data_mof_unit_30457.cif
_audit_creation_date              2012-12-11T14:29:30-0500
_audit_creation_method            fapswitch 2.2
_symmetry_space_group_name_H-M    P1
_symmetry_Int_Tables_number       1
_space_group_crystal_system       triclinic
_cell_length_a                    6.937912
_cell_length_b                    14.719719
_cell_length_c                    16.260461
_cell_angle_alpha                 90.484416
_cell_angle_beta                  89.774859
_cell_angle_gamma                 89.773245
_cell_volume                      1660.49979637

loop_
_atom_site_label
_atom_site_type_symbol
_atom_type_description
_atom_site_fract_x
_atom_site_fract_y
_atom_site_fract_z
_atom_type_partial_charge
O1    O     O_R   0.494400 0.416610 0.413880 -0.526842
O2    O     O_R   0.823920 0.406790 0.585520 -0.540967
O3    O     O_R   0.994250 0.583390 0.586120 -0.548420
C1    C     C_R   0.654471 0.383414 0.611854 0.738956
O4    O     O_R   0.824110 0.405730 0.414490 -0.490391
O5    O     O_R   0.994440 0.582310 0.413870 -0.544797
C2    C     C_R   0.656243 0.381849 0.387558 0.816853
O6    O     O_R   0.494210 0.417690 0.586130 -0.537613
O7    O     O_3   0.660810 0.557940 0.500000 -0.394550
V1    V     V_3+5 0.935650 0.489250 0.500000 1.569683
O8    O     O_R   0.324160 0.593210 0.414480 -0.554512
C3    C     C_R   0.155479 0.614940 0.386306 0.732615
O9    O     O_R   0.323970 0.594270 0.585510 -0.542992
C4    C     C_R   0.154707 0.616073 0.613926 0.673948
V2    V     V_3+5 0.435660 0.510750 0.500000 1.495941
O10   O     O_3   0.160630 0.442060 0.500000 -0.332294
H1    H     H_    0.356187 0.916571 0.517629 0.127510
C5    C     C_R   0.028463 0.565162 0.777112 -0.112482
C6    C     C_R   0.967040 0.538255 0.854811 -0.053440
C7    C     C_R   0.955998 0.601155 0.918866 -0.118514
C8    C     C_R   0.006344 0.691455 0.905753 -0.141252
C9    C     C_R   0.067611 0.721133 0.827334 0.068763
C10   C     C_R   0.078905 0.656595 0.761563 0.055682
C11   C     C_R   0.121137 0.812879 0.814299 -0.176680
C12   C     C_R   0.186103 0.839885 0.735322 0.066914
C13   C     C_R   0.197239 0.775365 0.669544 0.069716
C14   C     C_R   0.143625 0.683659 0.682572 -0.172533
C15   C     C_R   0.237029 0.931247 0.719786 -0.152305
C16   C     C_R   0.298805 0.958073 0.642110 -0.106679
C17   C     C_R   0.309440 0.895213 0.578025 -0.102712
C18   C     C_R   0.258555 0.805000 0.591114 -0.140526
H2    H     H_    0.037323 0.513183 0.729817 0.116930
H3    H     H_    0.929052 0.468036 0.865465 0.162101
H4    H     H_    0.909381 0.579761 0.979268 0.127453
H5    H     H_    0.998112 0.737288 0.958000 0.105565
H6    H     H_    0.228348 0.983234 0.767074 0.115553
H7    H     H_    0.337352 0.028218 0.631478 0.132110
H8    H     H_    0.266500 0.759202 0.538840 0.101195
C19   C     C_2   0.985582 0.709252 0.282640 -0.121327
C20   C     C_2   0.150384 0.682651 0.319424 -0.305381
H9    H     H_    0.849736 0.680825 0.303333 0.132779
H10   H     H_    0.287869 0.710412 0.300771 0.126909
C21   C     C_2   0.973141 0.776694 0.214652 -0.126910
C22   C     C_2   0.126272 0.814585 0.177167 -0.294373
H11   H     H_    0.829127 0.795110 0.194635 0.133804
H12   H     H_    0.271418 0.796772 0.195361 0.128696
C23   C     C_2   0.763008 0.203940 0.776666 -0.245277
C24   C     C_2   0.617313 0.195255 0.831934 0.301021
H13   H     H_    0.876056 0.152661 0.774860 0.132885
C25   C     C_2   0.785332 0.279504 0.717437 -0.044450
C26   C     C_2   0.637508 0.309889 0.672216 -0.210573
H14   H     H_    0.929340 0.305635 0.706807 0.169813
H15   H     H_    0.496837 0.279044 0.678998 0.185329
C27   C     C_2   0.775963 0.199277 0.219685 -0.199834
C28   C     C_2   0.610823 0.175855 0.182069 -0.366554
H16   H     H_    0.910582 0.171903 0.195638 0.196481
H17   H     H_    0.472785 0.198692 0.206150 0.166432
C29   C     C_2   0.788685 0.255664 0.296069 0.477015
C30   C     C_2   0.647598 0.315974 0.318053 -0.409068
H18   H     H_    0.518715 0.320796 0.280914 0.145652
O11   O     O_R   0.770210 0.079270 0.910680 -0.553189
O12   O     O_R   0.440150 0.091160 0.082270 -0.530298
O13   O     O_R   0.269970 0.914530 0.082860 -0.547276
C31   C     C_R   0.607885 0.112327 0.111211 0.810385
O14   O     O_R   0.440480 0.090100 0.911240 -0.508306
O15   O     O_R   0.270310 0.913460 0.910610 -0.542254
C32   C     C_R   0.609544 0.115091 0.886179 0.661465
O16   O     O_R   0.769870 0.080340 0.082930 -0.541975
O17   O     O_3   0.603660 0.938980 0.996790 -0.382275
V3    V     V_3+5 0.328750 0.007610 0.996740 1.512703
O18   O     O_R   0.940600 0.902510 0.911180 -0.542878
C33   C     C_R   0.109924 0.880562 0.882905 0.681466
O19   O     O_R   0.940270 0.903570 0.082200 -0.547132
C34   C     C_R   0.109511 0.881894 0.110369 0.732920
V4    V     V_3+5 0.828770 0.986010 0.996670 1.448119
O20   O     O_3   0.103730 0.054750 0.996710 -0.356716
S1    S     S_3+6 0.444525 0.282589 0.852471 -0.024467
O21   O     O_2   0.527577 0.374997 0.836522 -0.341709
O22   O     O_2   0.270652 0.267967 0.799207 -0.373597
O23   O     O_3   0.375848 0.277636 0.951677 -0.504066
H19   H     H_    0.270260 0.322796 0.957241 0.359518
S2    S     S_3+6 0.001208 0.239006 0.354895 -0.013479
O24   O     O_2   0.134524 0.317853 0.341801 -0.350075
O25   O     O_2   0.951372 0.232126 0.444699 -0.337154
O26   O     O_3   0.113732 0.142800 0.324749 -0.525247
H20   H     H_    0.240221 0.144223 0.352785 0.355457

loop_
_geom_bond_atom_site_label_1
_geom_bond_atom_site_label_2
_ccdc_geom_bond_type
O19   C34   A    
C6    C7    A    
C1    O6    A    
C19   H9    S    
S1    O21   D    
O11   V4    S    
O16   V4    S    
C13   C14   A    
C31   O16   A    
C15   C16   A    
C29   S2    S    
O5    C3    A    
C17   C18   A    
O14   V3    S    
O12   V3    S    
C5    C6    A    
O12   C31   A    
O8    V2    S    
O15   C33   A    
O14   C32   A    
C25   H14   S    
O1    V2    S    
C10   C14   A    
C4    C14   S    
O7    V1    S    
C7    H4    S    
C20   H10   S    
C30   H18   S    
C8    C9    A    
H1    C17   S    
O19   V4    S    
C2    C30   S    
C22   H12   S    
C23   C25   S    
S1    O22   D    
C27   H16   S    
C1    C26   S    
C5    C10   A    
C11   C12   A    
C23   H13   S    
C6    H3    S    
C19   C20   D    
O4    C2    A    
C19   C21   S    
C29   C30   D    
O26   H20   S    
C12   C15   A    
C24   S1    S    
C3    C20   S    
O2    C1    A    
V4    O20   S    
C16   C17   A    
O11   C32   A    
C23   C24   D    
O13   V3    S    
C28   C31   S    
C25   C26   D    
C22   C34   S    
C21   H11   S    
O3    C4    A    
O6    V2    S    
S2    O25   D    
C28   H17   S    
C21   C22   D    
V3    O20   S    
C9    C11   A    
C5    H2    S    
O2    V1    S    
C11   C33   S    
C27   C29   S    
S1    O23   S    
C27   C28   D    
O1    C2    A    
O23   H19   S    
O5    V1    S    
O8    C3    A    
C8    H5    S    
O13   C34   A    
S2    O26   S    
C18   H8    S    
O9    V2    S    
C12   C13   A    
O4    V1    S    
O3    V1    S    
V1    O10   S    
O18   V4    S    
O15   V3    S    
O17   V4    S    
C24   C32   S    
O7    V2    S    
O17   V3    S    
C13   C18   A    
O18   C33   A    
C7    C8    A    
C15   H6    S    
S2    O24   D    
C16   H7    S    
C9    C10   A    
C26   H15   S    
O9    C4    A    
V2    O10   S    
