data_mof_unit_30954.cif
_audit_creation_date              2012-12-10T19:10:05-0500
_audit_creation_method            fapswitch 2.2
_symmetry_space_group_name_H-M    P1
_symmetry_Int_Tables_number       1
_space_group_crystal_system       triclinic
_cell_length_a                    10.944529
_cell_length_b                    10.859064
_cell_length_c                    9.646283
_cell_angle_alpha                 91.228727
_cell_angle_beta                  91.24074
_cell_angle_gamma                 92.636939
_cell_volume                      1144.66358026

loop_
_atom_site_label
_atom_site_type_symbol
_atom_type_description
_atom_site_fract_x
_atom_site_fract_y
_atom_site_fract_z
_atom_type_partial_charge
C1    C     C_R   0.497357 0.262731 0.498715 0.805788
C2    C     C_R   0.148183 0.329301 0.972200 0.069095
C3    C     C_R   0.928378 0.454454 0.383078 -0.266646
C4    C     C_R   0.870262 0.481497 0.505527 -0.166294
C5    C     C_R   0.940875 0.496376 0.628575 -0.081077
C6    C     C_R   0.066229 0.525979 0.618057 0.463178
C7    C     C_R   0.126930 0.496728 0.494628 -0.179908
C8    C     C_R   0.055421 0.455355 0.376568 -0.050686
C9    C     C_R   0.915493 0.517709 0.886579 -0.131831
C10   C     C_R   0.873358 0.471027 0.010750 -0.152669
C11   C     C_R   0.807889 0.357529 0.013033 -0.097996
C12   C     C_R   0.262024 0.499197 0.498013 0.830121
C13   C     C_R   0.788194 0.288472 0.890533 -0.146215
C14   C     C_R   0.831978 0.333981 0.765864 -0.090364
C15   C     C_R   0.893546 0.450870 0.762146 0.161739
C16   C     C_R   0.434051 0.063612 0.602196 0.073436
C17   C     C_R   0.487718 0.129273 0.494519 -0.069008
C18   C     C_R   0.530361 0.063615 0.380066 -0.197934
C19   C     C_R   0.531828 0.935557 0.382225 -0.212574
C20   C     C_R   0.493697 0.871159 0.499828 -0.156967
C21   C     C_R   0.438842 0.936657 0.606125 0.091698
C22   C     C_3   0.464169 0.940795 0.759039 0.348928
C23   C     C_R   0.499650 0.737569 0.501007 0.791802
C24   C     C_3   0.452667 0.079475 0.754895 -0.541765
C25   C     C_R   0.529626 0.605272 0.076712 0.232469
C26   C     C_R   0.459564 0.399068 0.068314 0.030913
C27   C     C_R   0.461024 0.399567 0.921186 -0.124993
C28   C     C_R   0.529152 0.605352 0.929867 0.314142
C29   C     C_3   0.648057 0.677044 0.929622 -0.514733
C30   C     C_3   0.648278 0.677600 0.086633 -0.504124
C31   C     C_R   0.736889 0.492681 0.501714 0.800229
C32   C     C_R   0.181081 0.450588 0.015830 -0.167960
C33   C     C_R   0.156934 0.490994 0.150424 -0.147821
C34   C     C_R   0.104305 0.408915 0.244826 0.163874
C35   C     C_R   0.075098 0.286300 0.201991 -0.151547
C36   C     C_R   0.096043 0.246996 0.066107 -0.161284
Cu1   Cu    Cu3+1 0.499990 0.499980 0.640670 0.978540
Cu2   Cu    Cu3+1 0.500010 0.500020 0.359330 0.946567
H1    H     H_    0.773137 0.322311 0.109230 0.120979
H2    H     H_    0.739691 0.199460 0.892305 0.109090
H3    H     H_    0.817255 0.278324 0.671938 0.108057
H4    H     H_    0.568939 0.111063 0.292385 0.157624
H5    H     H_    0.569035 0.888092 0.294894 0.150129
H6    H     H_    0.557914 0.913438 0.784394 0.059768
H7    H     H_    0.369373 0.111998 0.805111 0.217811
H8    H     H_    0.539253 0.131720 0.784644 0.159771
H9    H     H_    0.225215 0.514373 0.946430 0.197343
H10   H     H_    0.428259 0.318826 0.862478 0.152797
H11   H     H_    0.719328 0.624171 0.881128 0.225190
H12   H     H_    0.641678 0.769803 0.887766 0.180495
H13   H     H_    0.721431 0.625827 0.135818 0.218004
H14   H     H_    0.639562 0.771145 0.131310 0.175219
H15   H     H_    0.176336 0.586838 0.179861 0.132813
H16   H     H_    0.030973 0.222699 0.272276 0.132920
H17   H     H_    0.070159 0.153047 0.033883 0.130437
H18   H     H_    0.873244 0.424660 0.294006 0.162931
H19   H     H_    0.960511 0.608320 0.888436 0.155264
H20   H     H_    0.891509 0.525406 0.104082 0.129320
N1    N     N_R   0.500790 0.500930 0.147930 -0.211411
N2    N     N_R   0.500790 0.500890 0.852020 -0.190343
O1    O     O_R   0.500000 0.319640 0.618810 -0.589739
O2    O     O_R   0.500010 0.319680 0.381230 -0.581734
O3    O     O_R   0.319640 0.499990 0.618790 -0.515172
O4    O     O_R   0.319650 0.500030 0.381210 -0.591618
O5    O     O_R   0.499990 0.680320 0.618770 -0.569125
O6    O     O_R   0.500000 0.680360 0.381190 -0.585218
O7    O     O_R   0.680350 0.499970 0.618790 -0.581364
O8    O     O_R   0.680360 0.500010 0.381210 -0.591601
C37   C     C_1   0.166259 0.289266 0.831242 0.228147
N3    N     N_1   0.180230 0.256709 0.717914 -0.302376
O9    O     O_3   0.369447 0.878458 0.830282 -0.573021
C38   C     C_3   0.388123 0.895907 0.974735 -0.326103
H21   H     H_    0.357849 0.987760 0.008355 0.193247
H22   H     H_    0.484768 0.885715 0.008590 0.145959
H23   H     H_    0.331414 0.825148 0.028414 0.176904
C39   C     C_1   0.406480 0.289739 0.128113 0.283810
N4    N     N_1   0.362047 0.200846 0.172955 -0.320454
O10   O     O_3   0.130314 0.575484 0.732093 -0.604416
C40   C     C_3   0.138051 0.704818 0.720157 -0.305416
H24   H     H_    0.047413 0.743403 0.696713 0.130087
H25   H     H_    0.204900 0.732839 0.640195 0.191296
H26   H     H_    0.170360 0.745577 0.821369 0.225577

loop_
_geom_bond_atom_site_label_1
_geom_bond_atom_site_label_2
_ccdc_geom_bond_type
C27   H10   S    
C30   H13   S    
C16   C21   A    
C35   C36   A    
C1    O2    A    
C7    C8    A    
C29   H11   S    
C25   C28   A    
C31   O7    A    
C26   C27   A    
Cu1   Cu2   S    
C24   H7    S    
C23   O6    A    
C28   C29   S    
C10   H20   S    
C18   C19   A    
C27   N2    A    
C18   H4    S    
C5    C6    A    
C12   O4    A    
C6    O10   S    
C2    C32   A    
C34   C35   A    
C13   H2    S    
C22   H6    S    
Cu2   O6    S    
C16   C17   A    
Cu1   O5    S    
C26   C39   S    
C2    C37   S    
C26   N1    A    
C16   C24   S    
C21   C22   S    
C35   H16   S    
C31   O8    A    
C38   H23   S    
Cu1   O3    S    
C19   H5    S    
C17   C18   A    
Cu2   O4    S    
C29   H12   S    
C28   N2    A    
C33   H15   S    
C7    C12   S    
C4    C31   S    
C39   N4    T    
C38   H22   S    
C3    C8    A    
C40   H25   S    
C12   O3    A    
O10   C40   S    
C4    C5    A    
C40   H24   S    
C29   C30   S    
C3    H18   S    
C20   C23   S    
C33   C34   A    
C8    C34   S    
C11   H1    S    
C14   H3    S    
Cu2   O8    S    
C32   H9    S    
C22   C24   S    
C3    C4    A    
C22   O9    S    
C9    C10   A    
C2    C36   A    
C25   C30   S    
C30   H14   S    
C38   H21   S    
C1    O1    A    
C40   H26   S    
Cu1   O1    S    
C6    C7    A    
C1    C17   S    
C24   H8    S    
C32   C33   A    
C23   O5    A    
C19   C20   A    
C9    C15   A    
O9    C38   S    
C36   H17   S    
C11   C13   A    
Cu1   O7    S    
C9    H19   S    
C37   N3    T    
C5    C15   S    
Cu1   N2    S    
C10   C11   A    
Cu2   N1    S    
C20   C21   A    
C14   C15   A    
C25   N1    A    
C13   C14   A    
Cu2   O2    S    
