data_mof_unit_61961.cif
_audit_creation_date              2012-12-10T20:58:45-0500
_audit_creation_method            fapswitch 2.2
_symmetry_space_group_name_H-M    P1
_symmetry_Int_Tables_number       1
_space_group_crystal_system       triclinic
_cell_length_a                    15.865406
_cell_length_b                    15.072821
_cell_length_c                    14.179707
_cell_angle_alpha                 89.999983
_cell_angle_beta                  89.987942
_cell_angle_gamma                 90.0
_cell_volume                      3390.88436061

loop_
_atom_site_label
_atom_site_type_symbol
_atom_type_description
_atom_site_fract_x
_atom_site_fract_y
_atom_site_fract_z
_atom_type_partial_charge
C1    C     C_1   0.250520 0.500000 0.500046 -0.134841
C2    C     C_R   0.661152 0.500000 0.499959 0.882351
C3    C     C_R   0.499999 0.500000 0.328638 0.892119
C4    C     C_R   0.500001 0.500000 0.671362 0.892118
C5    C     C_1   0.500000 0.807170 0.500000 0.086458
C6    C     C_1   0.500000 0.192830 0.500000 0.086458
C7    C     C_1   0.499999 0.500000 0.227334 -0.178446
C8    C     C_1   0.500001 0.500000 0.772666 -0.178446
C9    C     C_1   0.499999 0.500000 0.142241 0.013438
C10   C     C_1   0.500001 0.500000 0.857759 0.013438
C11   C     C_1   0.500000 0.500000 0.042543 0.031151
C12   C     C_1   0.749480 0.500000 0.499954 -0.134842
C13   C     C_1   0.500000 0.500000 0.957456 0.031151
C14   C     C_R   0.436251 0.953126 0.453567 -0.135659
C15   C     C_R   0.563749 0.046874 0.546433 -0.135659
C16   C     C_R   0.563749 0.953126 0.546433 -0.135656
C17   C     C_R   0.436251 0.046874 0.453567 -0.135656
C18   C     C_R   0.956273 0.580828 0.500108 0.518646
C19   C     C_R   0.043726 0.419171 0.499892 0.518646
C20   C     C_R   0.043726 0.580828 0.500131 0.518648
C21   C     C_R   0.956273 0.419171 0.499869 0.518648
C22   C     C_R   0.913083 0.500000 0.499976 -0.368752
C23   C     C_R   0.086917 0.500000 0.500024 -0.368752
C24   C     C_1   0.824258 0.500000 0.499960 0.238686
C25   C     C_1   0.175741 0.500000 0.500040 0.238686
C26   C     C_R   0.500000 0.905041 0.500000 0.058960
C27   C     C_R   0.500000 0.094959 0.500000 0.058960
C28   C     C_R   0.338848 0.500000 0.500041 0.882351
F1    F     F_    0.086238 0.659059 0.500257 -0.583372
F2    F     F_    0.913762 0.340941 0.499743 -0.583372
F3    F     F_    0.913762 0.659059 0.500214 -0.583376
F4    F     F_    0.086238 0.340941 0.499786 -0.583376
H1    H     H_    0.386284 0.081865 0.417169 0.155043
H2    H     H_    0.613716 0.918135 0.582830 0.155043
H3    H     H_    0.613716 0.081865 0.582830 0.155034
H4    H     H_    0.386284 0.918135 0.417169 0.155034
N1    N     N_1   0.500000 0.270550 0.500000 -0.071180
N2    N     N_1   0.500000 0.729450 0.500000 -0.071180
O1    O     O_R   0.378020 0.573650 0.500030 -0.593180
O2    O     O_R   0.621980 0.426350 0.499970 -0.593180
O3    O     O_R   0.621980 0.573650 0.499970 -0.593180
O4    O     O_R   0.378020 0.426350 0.500030 -0.593180
O5    O     O_R   0.500000 0.573680 0.373720 -0.591768
O6    O     O_R   0.500000 0.426320 0.626280 -0.591768
O7    O     O_R   0.500000 0.573680 0.626280 -0.591750
O8    O     O_R   0.500000 0.426320 0.373720 -0.591750
Zn1   Zn    Zn3+2 0.500000 0.598370 0.500000 1.010626
Zn2   Zn    Zn3+2 0.500000 0.401630 0.500000 1.010626

loop_
_geom_bond_atom_site_label_1
_geom_bond_atom_site_label_2
_ccdc_geom_bond_type
C1    C28   S    
C19   C23   A    
C18   C22   A    
C11   C13   T    
C21   F2    S    
C12   C24   T    
C3    O8    A    
C15   C27   A    
C6    C27   S    
C20   C23   A    
C4    C8    S    
C2    C12   S    
C23   C25   S    
O3    Zn1   S    
C6    N1    T    
O6    Zn2   S    
O4    Zn2   S    
C21   C22   A    
C14   C26   A    
N1    Zn2   S    
C1    C25   T    
C9    C11   S    
C14   C17   A    
C3    O5    A    
N2    Zn1   S    
C17   H1    S    
C20   F1    S    
C19   F4    S    
C8    C10   T    
C19   C21   A    
C3    C7    S    
C4    O7    A    
O7    Zn1   S    
C16   C26   A    
C22   C24   S    
C15   H3    S    
C2    O3    A    
C5    C26   S    
C17   C27   A    
O8    Zn2   S    
C2    O2    A    
C18   C20   A    
O1    Zn1   S    
C28   O4    A    
C7    C9    T    
O2    Zn2   S    
C14   H4    S    
C18   F3    S    
C4    O6    A    
C28   O1    A    
C16   H2    S    
C5    N2    T    
O5    Zn1   S    
C15   C16   A    
C10   C13   S    
