data_mof_unit_64617.cif
_audit_creation_date              2012-12-10T19:39:11-0500
_audit_creation_method            fapswitch 2.2
_symmetry_space_group_name_H-M    P1
_symmetry_Int_Tables_number       1
_space_group_crystal_system       triclinic
_cell_length_a                    15.843919
_cell_length_b                    15.895452
_cell_length_c                    17.076941
_cell_angle_alpha                 90.41782
_cell_angle_beta                  96.861961
_cell_angle_gamma                 92.382788
_cell_volume                      4265.93896575

loop_
_atom_site_label
_atom_site_type_symbol
_atom_type_description
_atom_site_fract_x
_atom_site_fract_y
_atom_site_fract_z
_atom_type_partial_charge
C1    C     C_R   0.510874 0.499187 0.651424 0.969770
C2    C     C_R   0.489126 0.500814 0.348576 0.969762
C3    C     C_R   0.460958 0.544248 0.776112 0.498507
C4    C     C_R   0.539048 0.455766 0.223886 0.498511
C5    C     C_R   0.466065 0.544945 0.857902 0.560800
C6    C     C_R   0.533944 0.455075 0.142097 0.560798
C7    C     C_R   0.527935 0.498301 0.903043 0.003770
C8    C     C_R   0.472071 0.501717 0.096957 0.003766
C9    C     C_R   0.586302 0.453762 0.865076 0.306831
C10   C     C_R   0.413699 0.546246 0.134925 0.306831
C11   C     C_R   0.581169 0.452759 0.782486 0.245240
C12   C     C_R   0.418828 0.547243 0.217514 0.245244
C13   C     C_R   0.250808 0.539194 0.541044 -0.081637
C14   C     C_R   0.749192 0.460806 0.458956 -0.081632
C15   C     C_R   0.162256 0.535358 0.543136 0.264175
C16   C     C_R   0.837743 0.464642 0.456864 0.264174
C17   C     C_R   0.109685 0.480140 0.490476 0.124230
C18   C     C_R   0.890315 0.519860 0.509524 0.124230
C19   C     C_R   0.150282 0.429667 0.439191 0.182896
C20   C     C_R   0.849718 0.570333 0.560809 0.182896
C21   C     C_R   0.239253 0.435803 0.439829 0.742480
C22   C     C_R   0.760746 0.564197 0.560170 0.742475
C23   C     C_R   0.499770 0.660178 0.500029 0.821127
C24   C     C_R   0.500230 0.339822 0.499971 0.821130
C25   C     C_3   0.534758 0.030109 0.570091 0.575532
C26   C     C_3   0.465242 0.969891 0.429909 0.575532
C27   C     C_3   0.454564 0.970997 0.556196 0.224520
C28   C     C_3   0.545436 0.029003 0.443805 0.224519
C29   C     C_1   0.499354 0.749624 0.500053 -0.031875
C30   C     C_1   0.500646 0.250376 0.499948 -0.031876
C31   C     C_3   0.580114 0.975261 0.514552 0.226814
C32   C     C_3   0.419886 0.024739 0.485448 0.226813
C33   C     C_3   0.499800 0.916463 0.500426 -0.346203
C34   C     C_3   0.500200 0.083537 0.499574 -0.346203
C35   C     C_1   0.499373 0.824988 0.500153 0.262333
C36   C     C_1   0.500627 0.175011 0.499848 0.262333
C37   C     C_R   0.517918 0.498272 0.737761 -0.414960
C38   C     C_R   0.482083 0.501733 0.262239 -0.414965
Cu1   Cu    Cu3+1 0.584780 0.504040 0.503820 1.108684
Cu2   Cu    Cu3+1 0.415220 0.495960 0.496180 1.108685
H1    H     H_    0.709279 0.419259 0.418357 0.249447
H2    H     H_    0.290721 0.580740 0.581643 0.249446
N1    N     N_2   0.534423 0.495759 0.986518 -0.035087
N2    N     N_2   0.465583 0.504261 0.013482 -0.035093
N3    N     N_R   0.287870 0.489880 0.490440 -0.290875
N4    N     N_R   0.712130 0.510120 0.509560 -0.290876
N5    N     N_2   0.018886 0.468553 0.490070 -0.056529
N6    N     N_2   0.981114 0.531447 0.509930 -0.056529
O1    O     O_R   0.579470 0.503780 0.617500 -0.505826
O2    O     O_R   0.420530 0.496220 0.382500 -0.505824
O3    O     O_R   0.436280 0.496950 0.611050 -0.564417
O4    O     O_R   0.563720 0.503050 0.388950 -0.564413
O5    O     O_R   0.571580 0.624340 0.503230 -0.538643
O6    O     O_R   0.428420 0.375660 0.496770 -0.538642
O7    O     O_R   0.428390 0.617510 0.496780 -0.568723
O8    O     O_R   0.571610 0.382490 0.503220 -0.568724
Cl1   Cl    Cl    0.395102 0.932373 0.631515 -0.296881
Cl2   Cl    Cl    0.604898 0.067627 0.368486 -0.296887
Cl3   Cl    Cl    0.090699 0.357452 0.373745 -0.265674
Cl4   Cl    Cl    0.909301 0.642548 0.626254 -0.265675
F1    F     F_    0.277198 0.386516 0.390395 -0.559618
F2    F     F_    0.722802 0.613484 0.609604 -0.559620
F3    F     F_    0.570739 0.061896 0.642601 -0.509141
F4    F     F_    0.429261 0.938104 0.357399 -0.509143
Cl5   Cl    Cl    0.313523 0.057740 0.465096 -0.299289
Cl6   Cl    Cl    0.686477 0.942260 0.534904 -0.299289
F5    F     F_    0.598561 0.409423 0.265699 -0.556083
F6    F     F_    0.401449 0.590594 0.734298 -0.556086
F7    F     F_    0.588193 0.407079 0.107269 -0.499531
F8    F     F_    0.411823 0.592949 0.892730 -0.499532
Cl7   Cl    Cl    0.664585 0.396833 0.922018 -0.241234
Cl8   Cl    Cl    0.335410 0.603173 0.077984 -0.241239
Cl9   Cl    Cl    0.651326 0.390379 0.736237 -0.379392
Cl10  Cl    Cl    0.348662 0.609612 0.263764 -0.379387
Cl11  Cl    Cl    0.876512 0.404085 0.383252 -0.325523
Cl12  Cl    Cl    0.123488 0.595914 0.616748 -0.325528

loop_
_geom_bond_atom_site_label_1
_geom_bond_atom_site_label_2
_ccdc_geom_bond_type
C25   C31   S    
C31   Cl6   S    
C26   C32   S    
C12   Cl10  S    
C6    F7    S    
C16   Cl11  S    
C17   N5    S    
C3    F6    S    
C14   N4    A    
C27   C33   S    
C23   C29   S    
C19   C21   A    
C24   O6    A    
C15   C17   A    
C25   F3    S    
C11   C37   A    
C26   F4    S    
C2    O2    A    
C33   C35   S    
Cu1   O8    S    
C31   C33   S    
C7    N1    S    
C20   Cl4   S    
C34   C36   S    
C1    C37   S    
C25   C34   S    
Cu1   O4    S    
C28   C34   S    
C10   C12   A    
C13   H2    S    
C23   O5    A    
C21   N3    A    
Cu2   N3    S    
C9    Cl7   S    
C4    C6    A    
C27   Cl1   S    
Cu1   Cu2   S    
C5    C7    A    
C6    C8    A    
C19   Cl3   S    
C32   C34   S    
N1    N2    D    
C5    F8    S    
C22   F2    S    
C9    C11   A    
C2    C38   S    
C26   C33   S    
N5    N6    D    
Cu2   O7    S    
C1    O3    A    
C2    O4    A    
C14   H1    S    
C8    C10   A    
Cu1   O1    S    
C4    C38   A    
Cu2   O6    S    
C13   C15   A    
C11   Cl9   S    
C14   C16   A    
C24   O8    A    
C7    C9    A    
C22   N4    A    
C27   C32   S    
C21   F1    S    
C28   C31   S    
C8    N2    S    
C20   C22   A    
C3    C5    A    
C18   N6    S    
C4    F5    S    
C23   O7    A    
C28   Cl2   S    
C25   C27   S    
Cu2   O3    S    
C29   C35   T    
C26   C28   S    
C30   C36   T    
C13   N3    A    
Cu1   O5    S    
Cu2   O2    S    
C17   C19   A    
Cu1   N4    S    
C18   C20   A    
C12   C38   A    
C24   C30   S    
C3    C37   A    
C16   C18   A    
C15   Cl12  S    
C1    O1    A    
C32   Cl5   S    
C10   Cl8   S    
