data_mof_unit_20124.cif
_audit_creation_date              2012-12-10T19:11:31-0500
_audit_creation_method            fapswitch 2.2
_symmetry_space_group_name_H-M    P1
_symmetry_Int_Tables_number       1
_space_group_crystal_system       triclinic
_cell_length_a                    10.657079
_cell_length_b                    9.699091
_cell_length_c                    10.509778
_cell_angle_alpha                 89.750148
_cell_angle_beta                  89.722688
_cell_angle_gamma                 90.146039
_cell_volume                      1086.30583235

loop_
_atom_site_label
_atom_site_type_symbol
_atom_type_description
_atom_site_fract_x
_atom_site_fract_y
_atom_site_fract_z
_atom_type_partial_charge
C1    C     C_R   0.257846 0.499532 0.498465 0.886059
C2    C     C_3   0.929959 0.598843 0.394039 -0.421137
C3    C     C_3   0.381630 0.080663 0.551447 -0.233298
C4    C     C_3   0.381926 0.918225 0.552153 -0.241489
C5    C     C_3   0.513173 0.081912 0.366657 -0.229532
C6    C     C_3   0.512519 0.919381 0.366543 -0.245309
C7    C     C_3   0.604399 0.081053 0.573957 -0.256261
C8    C     C_3   0.604963 0.918645 0.573094 -0.215378
C9    C     C_R   0.500211 0.500318 0.257179 0.903673
C10   C     C_R   0.742554 0.499977 0.498985 0.905220
C11   C     C_R   0.498248 0.499545 0.742660 0.942081
C12   C     C_3   0.499220 0.500760 0.122538 -0.101103
C13   C     C_3   0.511363 0.631613 0.039926 -0.198042
C14   C     C_3   0.387473 0.447728 0.044621 -0.236194
C15   C     C_3   0.400895 0.577436 0.958728 -0.313736
C16   C     C_3   0.496280 0.498504 0.877395 -0.131258
C17   C     C_3   0.604703 0.550604 0.957583 0.537817
C18   C     C_3   0.483715 0.371095 0.961971 0.586725
C19   C     C_3   0.595311 0.420837 0.041465 -0.386475
C20   C     C_3   0.802382 0.634741 0.997037 -0.312379
C21   C     C_3   0.460381 0.140754 0.010087 -0.365986
C22   C     C_3   0.943088 0.800496 0.669778 -0.290896
C23   C     C_3   0.074205 0.548481 0.630568 -0.539969
C24   C     C_3   0.871171 0.312465 0.267466 -0.309461
C25   C     C_3   0.073272 0.349520 0.474468 -0.471356
C26   C     C_3   0.927401 0.555357 0.630462 0.389069
C27   C     C_3   0.930776 0.347962 0.483529 0.373660
C28   C     C_3   0.073539 0.594276 0.391621 -0.421638
C29   C     C_3   0.121926 0.498141 0.498906 0.078390
C30   C     C_3   0.878861 0.499996 0.499265 -0.053405
H1    H     H_    0.322696 0.640057 0.919971 0.156354
H2    H     H_    0.695625 0.119618 0.536391 0.188024
H3    H     H_    0.695770 0.882119 0.533374 0.174280
H4    H     H_    0.597245 0.118456 0.673623 0.182512
H5    H     H_    0.599586 0.878835 0.672396 0.182498
H6    H     H_    0.601759 0.120552 0.322626 0.167194
H7    H     H_    0.600475 0.880973 0.321729 0.142001
H8    H     H_    0.523818 0.738150 0.076133 0.135658
H9    H     H_    0.299221 0.405377 0.085789 0.126720
H10   H     H_    0.673073 0.355437 0.076079 0.128583
H11   H     H_    0.122792 0.645347 0.655739 0.180550
H12   H     H_    0.899256 0.706211 0.413268 0.205270
H13   H     H_    0.106695 0.312233 0.380409 0.188832
H14   H     H_    0.104193 0.473335 0.704832 0.133829
H15   H     H_    0.111095 0.276535 0.546914 0.149334
H16   H     H_    0.895698 0.480573 0.704722 0.084988
H17   H     H_    0.909173 0.295437 0.575627 0.067785
H18   H     H_    0.110754 0.700763 0.403383 0.180694
H19   H     H_    0.106567 0.556708 0.297311 0.155225
H20   H     H_    0.834727 0.538911 0.044969 0.136643
H21   H     H_    0.763869 0.708443 0.067974 0.143683
H22   H     H_    0.885753 0.683931 0.952308 0.199699
H23   H     H_    0.892176 0.576930 0.298488 0.142157
H24   H     H_    0.377372 0.160228 0.071899 0.158068
H25   H     H_    0.547777 0.139117 0.067464 0.163514
H26   H     H_    0.448685 0.036773 0.968111 0.185770
H27   H     H_    0.881422 0.891720 0.680000 0.170071
H28   H     H_    0.998516 0.816094 0.581224 0.150425
H29   H     H_    0.003534 0.797736 0.755537 0.149122
H30   H     H_    0.960513 0.361634 0.237124 0.150529
H31   H     H_    0.790720 0.383623 0.257465 0.159154
H32   H     H_    0.854122 0.225734 0.201297 0.168971
H33   H     H_    0.300183 0.117593 0.495196 0.142212
H34   H     H_    0.299949 0.880391 0.497200 0.144573
H35   H     H_    0.367616 0.119478 0.649942 0.177850
H36   H     H_    0.369086 0.879411 0.651154 0.146029
H37   H     H_    0.435351 0.120259 0.306070 0.137896
H38   H     H_    0.434046 0.881855 0.306325 0.146059
N1    N     N_3   0.499750 0.138610 0.497240 -0.033530
N2    N     N_3   0.499750 0.861390 0.497240 -0.038478
O1    O     O_R   0.314910 0.616040 0.499970 -0.645095
O2    O     O_3   0.468335 0.237982 0.910484 -0.606556
O3    O     O_3   0.866686 0.681839 0.664609 -0.549348
O4    O     O_3   0.874494 0.258971 0.392116 -0.597946
O5    O     O_R   0.314910 0.383960 0.499970 -0.642369
O6    O     O_R   0.500080 0.616020 0.313900 -0.641340
O7    O     O_R   0.500080 0.383980 0.313900 -0.634577
O8    O     O_R   0.685320 0.616040 0.499930 -0.589767
O9    O     O_R   0.685320 0.383960 0.499930 -0.612634
O10   O     O_R   0.500150 0.616060 0.686000 -0.612568
O11   O     O_R   0.500150 0.383940 0.686000 -0.600673
O12   O     O_3   0.714656 0.604869 0.901158 -0.576294
Zn1   Zn    Zn3+2 0.500150 0.654960 0.499940 0.921555
Zn2   Zn    Zn3+2 0.500150 0.345040 0.499940 0.928472

loop_
_geom_bond_atom_site_label_1
_geom_bond_atom_site_label_2
_ccdc_geom_bond_type
C24   H31   S    
C20   O12   S    
C14   C18   S    
C5    H37   S    
C25   H13   S    
C22   H27   S    
C4    N2    S    
C10   O8    A    
C7    C8    S    
C11   O11   A    
C1    O1    A    
C23   C29   S    
C28   C29   S    
C3    N1    S    
C17   O12   S    
C20   H21   S    
O9    Zn2   S    
O5    Zn2   S    
C15   C16   S    
C5    H6    S    
C26   O3    S    
C18   C19   S    
C28   H19   S    
C23   C26   S    
C5    N1    S    
C14   H9    S    
O8    Zn1   S    
C16   C17   S    
C20   H20   S    
C9    O6    A    
C27   O4    S    
C6    H38   S    
C27   C30   S    
C18   O2    S    
C3    H35   S    
O10   Zn1   S    
O6    Zn1   S    
O1    Zn1   S    
C25   C29   S    
C21   O2    S    
C1    O5    A    
C19   H10   S    
C22   H29   S    
C21   H25   S    
O7    Zn2   S    
C23   H14   S    
C8    H5    S    
C7    N1    S    
C11   C16   S    
C10   C30   S    
C24   H30   S    
C1    C29   S    
C6    H7    S    
C9    O7    A    
N2    Zn1   S    
C13   H8    S    
C12   C14   S    
C26   C30   S    
C13   C15   S    
C7    H4    S    
C3    C4    S    
C25   H15   S    
O11   Zn2   S    
C27   H17   S    
C6    N2    S    
C28   H18   S    
C24   H32   S    
C7    H2    S    
C2    H23   S    
C22   H28   S    
C21   H26   S    
C10   O9    A    
C15   H1    S    
C3    H33   S    
C25   C27   S    
C4    H34   S    
C8    N2    S    
C23   H11   S    
C13   C17   S    
C21   H24   S    
C2    C30   S    
C20   H22   S    
N1    Zn2   S    
C4    H36   S    
C24   O4    S    
C5    C6    S    
C2    H12   S    
C12   C19   S    
C17   C19   S    
C8    H3    S    
C9    C12   S    
C11   O10   A    
C26   H16   S    
C12   C13   S    
C16   C18   S    
C14   C15   S    
C2    C28   S    
C22   O3    S    
