data_mof_unit_16341.cif
_audit_creation_date              2012-12-11T14:47:53-0500
_audit_creation_method            fapswitch 2.2
_symmetry_space_group_name_H-M    P1
_symmetry_Int_Tables_number       1
_space_group_crystal_system       triclinic
_cell_length_a                    11.519164
_cell_length_b                    11.520273
_cell_length_c                    19.57182
_cell_angle_alpha                 90.56147
_cell_angle_beta                  90.190069
_cell_angle_gamma                 60.043879
_cell_volume                      2250.17274849

loop_
_atom_site_label
_atom_site_type_symbol
_atom_type_description
_atom_site_fract_x
_atom_site_fract_y
_atom_site_fract_z
_atom_type_partial_charge
C1    C     C_R   0.640556 0.117357 0.599284 0.549649
C2    C     C_1   0.653177 0.149619 0.668659 0.009872
C3    C     C_R   0.542832 0.698412 0.293527 -0.082999
C4    C     C_R   0.612590 0.745956 0.598673 0.546012
C5    C     C_R   0.535653 0.713801 0.223854 -0.003190
C6    C     C_R   0.650643 0.693396 0.188326 -0.077735
C7    C     C_R   0.756309 0.696707 0.223774 -0.048596
C8    C     C_R   0.759886 0.688431 0.295863 -0.005067
C9    C     C_R   0.649662 0.692213 0.330674 -0.016314
C10   C     C_R   0.139469 0.292036 0.306081 -0.113411
C11   C     C_R   0.116376 0.311205 0.237217 -0.094375
C12   C     C_1   0.641442 0.704031 0.668042 0.009362
C13   C     C_R   0.129172 0.206466 0.195389 -0.041086
C14   C     C_R   0.163985 0.082055 0.223711 -0.127508
C15   C     C_R   0.192549 0.060758 0.293026 0.345979
C16   C     C_R   0.241035 0.145278 0.598242 0.546228
C17   C     C_R   0.182410 0.165748 0.334361 0.040310
C18   C     C_R   0.794020 0.105459 0.309319 -0.089076
C19   C     C_R   0.804939 0.120862 0.240125 -0.234876
C20   C     C_R   0.690694 0.197220 0.199762 -0.041190
C21   C     C_R   0.564380 0.264986 0.229568 0.402852
C22   C     C_R   0.550971 0.247137 0.298346 0.379312
C23   C     C_1   0.126454 0.198958 0.859205 0.005677
C24   C     C_R   0.665141 0.161690 0.338041 -0.022942
C25   C     C_R   0.081626 0.231365 0.928498 0.546538
C26   C     C_R   0.683794 0.604649 0.929423 0.534331
C27   C     C_R   0.708216 0.206871 0.930074 0.545245
C28   C     C_R   0.645003 0.114490 0.403277 0.593694
C29   C     C_R   0.080856 0.237618 0.125923 0.551231
C30   C     C_R   0.679370 0.619619 0.123269 0.513091
C31   C     C_R   0.711874 0.213874 0.128581 0.584870
C32   C     C_R   0.617851 0.738230 0.401783 0.564738
C33   C     C_R   0.242910 0.140767 0.401683 0.587556
C34   C     C_1   0.171515 0.170336 0.727700 -0.027004
C35   C     C_1   0.670226 0.646581 0.860065 0.006781
C36   C     C_1   0.654874 0.683835 0.728447 -0.028071
C37   C     C_1   0.663377 0.666780 0.799670 -0.028721
C38   C     C_2   0.407178 0.750342 0.188659 0.309562
C39   C     C_2   0.857027 0.713789 0.183868 0.230283
C40   C     C_2   0.876352 0.677875 0.334208 0.306719
C41   C     C_2   0.919531 0.030426 0.348905 0.277038
C42   C     C_1   0.149974 0.182416 0.798892 -0.028534
C43   C     C_1   0.195390 0.160906 0.667417 0.012189
C44   C     C_1   0.678407 0.191518 0.860706 0.006845
C45   C     C_1   0.658661 0.167243 0.729020 -0.027719
C46   C     C_1   0.665608 0.181068 0.800285 -0.028428
Cr1   Cr    Cr6+3 0.404720 0.198220 0.499960 1.109766
Cr2   Cr    Cr6+3 0.698290 0.897110 0.500380 1.097772
Cr3   Cr    Cr6+3 0.396970 0.904720 0.499610 1.110833
Cr4   Cr    Cr6+3 0.926180 0.152240 0.028110 1.039610
Cr5   Cr    Cr6+3 0.921340 0.452070 0.027460 1.065286
Cr6   Cr    Cr6+3 0.626260 0.447120 0.028700 1.094320
F1    F     F_    0.453752 0.343352 0.191753 -0.557934
F2    F     F_    0.424908 0.307651 0.324535 -0.571646
F3    F     F_    0.234592 0.937242 0.318788 -0.620604
H1    H     H_    0.456913 0.704598 0.319380 0.243753
H2    H     H_    0.904516 0.075596 0.218039 0.165691
H3    H     H_    0.130934 0.374901 0.336503 0.229659
H4    H     H_    0.085139 0.409641 0.217233 0.224652
H5    H     H_    0.168421 0.002188 0.192260 0.161024
H6    H     H_    0.387147 0.795836 0.138495 0.095131
H7    H     H_    0.827981 0.765029 0.135209 0.124547
H8    H     H_    0.918397 0.740713 0.321331 0.157357
H9    H     H_    0.008163 0.950975 0.324175 0.183092
O1    O     O_R   0.267740 0.231990 0.575440 -0.502459
O2    O     O_R   0.596140 0.579600 0.952720 -0.508385
O3    O     O_R   0.639070 0.321380 0.958660 -0.491456
O4    O     O_R   0.527280 0.186680 0.570530 -0.500313
O5    O     O_R   0.821240 0.124490 0.104360 -0.531191
O6    O     O_R   0.036900 0.167320 0.097830 -0.515048
O7    O     O_R   0.056190 0.349890 0.102870 -0.482721
O8    O     O_R   0.797670 0.565150 0.097930 -0.499181
O9    O     O_R   0.595880 0.584540 0.104260 -0.502627
O10   O     O_R   0.638830 0.325960 0.099140 -0.430341
O11   O     O_3   0.824590 0.350480 0.028090 -0.272251
O12   O     O_R   0.685970 0.784630 0.430010 -0.474007
O13   O     O_R   0.728090 0.003480 0.576380 -0.490821
O14   O     O_R   0.682970 0.789220 0.570490 -0.490364
O15   O     O_R   0.499290 0.771920 0.575530 -0.502625
O16   O     O_R   0.285330 0.030900 0.569730 -0.494410
O17   O     O_R   0.270980 0.227040 0.423900 -0.482104
O18   O     O_R   0.530280 0.182090 0.430050 -0.438893
O19   O     O_R   0.731330 0.998530 0.424830 -0.490596
O20   O     O_2   0.323364 0.729257 0.214794 -0.415509
O21   O     O_2   0.972565 0.668460 0.202855 -0.497139
O22   O     O_2   0.926253 0.598301 0.380829 -0.499625
O23   O     O_R   0.502530 0.766960 0.423990 -0.494349
O24   O     O_2   0.926781 0.060077 0.408216 -0.460540
O25   O     O_R   0.288330 0.026310 0.429250 -0.429204
O26   O     O_3   0.499990 0.000020 0.499980 -0.298829
O27   O     O_R   0.821500 0.119550 0.952820 -0.504220
O28   O     O_R   0.037130 0.162750 0.957360 -0.495400
O29   O     O_R   0.056440 0.344950 0.951330 -0.497707
O30   O     O_R   0.797900 0.560570 0.957460 -0.499118

loop_
_geom_bond_atom_site_label_1
_geom_bond_atom_site_label_2
_ccdc_geom_bond_type
C26   O30   A    
C25   O29   A    
C1    O13   A    
Cr3   O23   S    
C19   C20   A    
C34   C42   S    
Cr3   O26   S    
Cr6   O11   S    
C7    C8    A    
C22   F2    S    
C45   C46   S    
C19   H2    S    
C40   H8    S    
C17   C33   S    
C18   C24   A    
C13   C29   S    
C36   C37   S    
C35   C37   T    
Cr4   O5    S    
Cr5   O11   S    
C18   C19   A    
Cr6   O10   S    
C5    C6    A    
C10   C17   A    
C40   O22   D    
C1    O4    A    
C1    C2    S    
Cr1   O18   S    
Cr2   O14   S    
C41   O24   D    
Cr2   O12   S    
C9    C32   S    
C27   C44   S    
C8    C9    A    
C27   O27   A    
C12   C36   T    
C38   H6    S    
C38   O20   D    
C23   C25   S    
Cr2   O26   S    
C21   C22   A    
C28   O19   A    
Cr5   O7    S    
C11   H4    S    
C44   C46   T    
C2    C45   T    
C28   O18   A    
C26   O2    A    
C5    C38   S    
C4    O15   A    
Cr6   O9    S    
C18   C41   S    
C30   O9    A    
C31   O10   A    
C32   O23   A    
Cr3   O15   S    
C16   O16   A    
C15   F3    S    
Cr2   O13   S    
C4    O14   A    
C3    C9    A    
C33   O25   A    
C3    H1    S    
Cr4   O27   S    
C23   C42   T    
C16   C43   S    
Cr6   O3    S    
Cr5   O29   S    
Cr4   O28   S    
C6    C30   S    
Cr1   O26   S    
C22   C24   A    
C4    C12   S    
Cr5   O8    S    
C39   O21   D    
Cr1   O4    S    
Cr6   O2    S    
C29   O6    A    
C15   C17   A    
C39   H7    S    
C25   O28   A    
C10   H3    S    
C34   C43   T    
C24   C28   S    
Cr3   O25   S    
C3    C5    A    
C32   O12   A    
C30   O8    A    
Cr3   O16   S    
C6    C7    A    
C14   H5    S    
Cr2   O19   S    
Cr4   O6    S    
Cr4   O11   S    
C21   F1    S    
C11   C13   A    
Cr1   O17   S    
C27   O3    A    
C10   C11   A    
Cr5   O30   S    
C26   C35   S    
C31   O5    A    
C20   C21   A    
C7    C39   S    
C14   C15   A    
C16   O1    A    
C8    C40   S    
C41   H9    S    
C13   C14   A    
C33   O17   A    
Cr1   O1    S    
C29   O7    A    
C20   C31   S    
