data_mof_unit_64573.cif
_audit_creation_date              2012-12-10T18:07:54-0500
_audit_creation_method            fapswitch 2.2
_symmetry_space_group_name_H-M    P1
_symmetry_Int_Tables_number       1
_space_group_crystal_system       triclinic
_cell_length_a                    28.598426
_cell_length_b                    18.355198
_cell_length_c                    21.736638
_cell_angle_alpha                 90.335654
_cell_angle_beta                  140.15457
_cell_angle_gamma                 89.619295
_cell_volume                      7310.56711127

loop_
_atom_site_label
_atom_site_type_symbol
_atom_type_description
_atom_site_fract_x
_atom_site_fract_y
_atom_site_fract_z
_atom_type_partial_charge
C1    C     C_R   0.860077 0.000094 0.860234 0.876896
C2    C     C_R   0.139929 0.999892 0.140015 0.897619
C3    C     C_R   0.360077 0.500094 0.860234 0.876887
C4    C     C_R   0.639929 0.499892 0.140012 0.897545
C5    C     C_1   0.717106 0.000212 0.717926 -0.147912
C6    C     C_1   0.282900 0.999752 0.282164 -0.137192
C7    C     C_1   0.217107 0.500212 0.717926 -0.147915
C8    C     C_1   0.782900 0.499752 0.282163 -0.137207
C9    C     C_R   0.000103 0.860061 0.500219 0.820788
C10   C     C_R   0.999913 0.139930 0.499198 0.916658
C11   C     C_R   0.500103 0.360061 0.500219 0.820790
C12   C     C_R   0.499913 0.639930 0.499196 0.916694
C13   C     C_R   0.000680 0.996882 0.620928 0.850978
C14   C     C_R   0.999213 0.996649 0.378871 0.747021
C15   C     C_R   0.500680 0.496882 0.620928 0.851008
C16   C     C_R   0.499213 0.496650 0.378871 0.747022
C17   C     C_R   0.500075 0.139492 0.500220 0.828002
C18   C     C_R   0.499944 0.860510 0.499778 0.827510
C19   C     C_R   0.000075 0.639492 0.500220 0.828008
C20   C     C_R   0.999944 0.360510 0.499778 0.827512
C21   C     C_R   0.639487 0.000068 0.639788 0.827299
C22   C     C_R   0.360515 0.999917 0.360225 0.827322
C23   C     C_R   0.139487 0.500068 0.639788 0.827301
C24   C     C_R   0.860515 0.499917 0.360225 0.827331
C25   C     C_1   0.000277 0.782470 0.500609 -0.178684
C26   C     C_1   0.999775 0.217540 0.499006 -0.133456
C27   C     C_1   0.500277 0.282470 0.500609 -0.178687
C28   C     C_1   0.499775 0.717540 0.499005 -0.133430
C29   C     C_1   0.500229 0.217116 0.500625 -0.154511
C30   C     C_1   0.499818 0.782891 0.499254 -0.145028
C31   C     C_1   0.000229 0.717116 0.500625 -0.154510
C32   C     C_1   0.999818 0.282891 0.499255 -0.145035
C33   C     C_R   0.003345 0.999461 0.883465 0.864971
C34   C     C_R   0.999566 0.000039 0.119496 0.838410
C35   C     C_R   0.503347 0.499461 0.883467 0.864947
C36   C     C_R   0.499566 0.500039 0.119496 0.838417
C37   C     C_3   0.935783 0.960423 0.723438 -0.401006
C38   C     C_3   0.014758 0.076092 0.230102 -0.327931
C39   C     C_3   0.053094 0.943576 0.265814 -0.391671
C40   C     C_3   0.010477 0.076309 0.796327 -0.437603
C41   C     C_3   0.435765 0.460453 0.723421 -0.401089
C42   C     C_3   0.514760 0.576091 0.230104 -0.327930
C43   C     C_3   0.553093 0.443575 0.265813 -0.391666
C44   C     C_3   0.510507 0.576304 0.796357 -0.437513
C45   C     C_3   0.923588 0.972576 0.640624 0.143145
C46   C     C_3   0.031370 0.072846 0.317422 0.094122
C47   C     C_3   0.048012 0.931164 0.331635 0.093562
C48   C     C_3   0.019808 0.078078 0.734395 0.080271
C49   C     C_3   0.423575 0.472612 0.640613 0.143154
C50   C     C_3   0.531373 0.572846 0.317424 0.094119
C51   C     C_3   0.548010 0.431163 0.331633 0.093562
C52   C     C_3   0.519847 0.578068 0.734437 0.080255
C53   C     C_3   0.077014 0.951319 0.865416 -0.030212
C54   C     C_3   0.914448 0.976983 0.123561 -0.016419
C55   C     C_3   0.576991 0.451280 0.865392 -0.030172
C56   C     C_3   0.414447 0.476985 0.123561 -0.016421
C57   C     C_3   0.007664 0.996670 0.819082 -0.074885
C58   C     C_3   0.994457 0.999139 0.182833 -0.115620
C59   C     C_3   0.507663 0.496667 0.819081 -0.074769
C60   C     C_3   0.494457 0.499140 0.182833 -0.115626
C61   C     C_3   0.003175 0.996149 0.692732 -0.004399
C62   C     C_3   0.996776 0.996622 0.306992 -0.012083
C63   C     C_3   0.503174 0.496147 0.692732 -0.004422
C64   C     C_3   0.496776 0.496622 0.306992 -0.012081
C65   C     C_3   0.066711 0.938981 0.781581 0.245715
C66   C     C_3   0.911608 0.988176 0.194690 0.295070
C67   C     C_3   0.566682 0.438950 0.781550 0.245724
C68   C     C_3   0.411608 0.488178 0.194690 0.295076
C69   C     C_1   0.782489 0.000258 0.783150 -0.136655
C70   C     C_1   0.217521 0.999703 0.217059 -0.104035
C71   C     C_1   0.282489 0.500258 0.783150 -0.136658
C72   C     C_1   0.717521 0.499703 0.217057 -0.104098
Cu1   Cu    Cu3+1 0.000000 0.927450 0.000000 0.982722
Cu2   Cu    Cu3+1 0.000000 0.072550 0.000000 1.023829
Cu3   Cu    Cu3+1 0.500000 0.427450 0.000000 0.982741
Cu4   Cu    Cu3+1 0.500000 0.572550 0.000000 1.023844
Cu5   Cu    Cu3+1 0.927450 0.000000 0.427440 0.957771
Cu6   Cu    Cu3+1 0.072550 1.000000 0.572560 0.940509
Cu7   Cu    Cu3+1 0.427450 0.500000 0.427440 0.957741
Cu8   Cu    Cu3+1 0.572550 0.500000 0.572560 0.940522
Cu9   Cu    Cu3+1 0.499960 0.000000 0.437480 0.994601
Cu10  Cu    Cu3+1 0.500040 0.000000 0.562520 1.005413
Cu11  Cu    Cu3+1 0.999960 0.500000 0.437480 0.994581
Cu12  Cu    Cu3+1 0.000040 0.500000 0.562520 1.005405
H1    H     H_    0.937515 0.901835 0.736584 0.146996
H2    H     H_    0.969943 0.114967 0.175303 0.214112
H3    H     H_    0.052044 0.890542 0.240001 0.180099
H4    H     H_    0.054168 0.108427 0.863390 0.223571
H5    H     H_    0.437469 0.401864 0.736538 0.146992
H6    H     H_    0.469946 0.614968 0.175306 0.214113
H7    H     H_    0.552042 0.390541 0.239999 0.180100
H8    H     H_    0.554201 0.608413 0.863427 0.223668
H9    H     H_    0.888673 0.979865 0.703752 0.207571
H10   H     H_    0.061144 0.099545 0.250922 0.208410
H11   H     H_    0.106737 0.966405 0.306374 0.234245
H12   H     H_    0.959209 0.104076 0.759134 0.191393
H13   H     H_    0.388664 0.479918 0.703744 0.207577
H14   H     H_    0.561146 0.599544 0.250924 0.208411
H15   H     H_    0.606736 0.466402 0.306374 0.234248
H16   H     H_    0.459245 0.604087 0.759165 0.191367
O1    O     O_R   0.894190 0.938730 0.894180 -0.591430
O2    O     O_R   0.105810 0.061270 0.105820 -0.577399
O3    O     O_R   0.105810 0.938730 0.105820 -0.577291
O4    O     O_R   0.894190 0.061270 0.894180 -0.554465
O5    O     O_R   0.394190 0.438730 0.894180 -0.591431
O6    O     O_R   0.605810 0.561270 0.105820 -0.577398
O7    O     O_R   0.605810 0.438730 0.105820 -0.577287
O8    O     O_R   0.394190 0.561270 0.894180 -0.554461
O9    O     O_R   0.999980 0.938730 0.908830 -0.619423
O10   O     O_R   0.000020 0.061270 0.091170 -0.553941
O11   O     O_R   0.000020 0.938730 0.091170 -0.624505
O12   O     O_R   0.999980 0.061270 0.908830 -0.576928
O13   O     O_R   0.499980 0.438730 0.908830 -0.619422
O14   O     O_R   0.500020 0.561270 0.091170 -0.553936
O15   O     O_R   0.500020 0.438730 0.091170 -0.624499
O16   O     O_R   0.499980 0.561270 0.908830 -0.576925
O17   O     O_R   0.938700 0.894210 0.438700 -0.587120
O18   O     O_R   0.061300 0.105790 0.561300 -0.587582
O19   O     O_R   0.061300 0.894210 0.561300 -0.589649
O20   O     O_R   0.938700 0.105790 0.438700 -0.557610
O21   O     O_R   0.438700 0.394210 0.438700 -0.587118
O22   O     O_R   0.561300 0.605790 0.561300 -0.587556
O23   O     O_R   0.561300 0.394210 0.561300 -0.589656
O24   O     O_R   0.438700 0.605790 0.438700 -0.557650
O25   O     O_R   0.938740 0.000000 0.529880 -0.595158
O26   O     O_R   0.061260 0.000000 0.470120 -0.638946
O27   O     O_R   0.438740 0.500000 0.529880 -0.595187
O28   O     O_R   0.561260 0.500000 0.470120 -0.638951
O29   O     O_R   0.061220 0.000000 0.652370 -0.587637
O30   O     O_R   0.938780 0.000000 0.347630 -0.588569
O31   O     O_R   0.561220 0.500000 0.652370 -0.587622
O32   O     O_R   0.438780 0.500000 0.347630 -0.588567
O33   O     O_R   0.499910 0.105770 0.447130 -0.578927
O34   O     O_R   0.500090 0.894230 0.552870 -0.568620
O35   O     O_R   0.500090 0.105770 0.552870 -0.580537
O36   O     O_R   0.499910 0.894230 0.447130 -0.584807
O37   O     O_R   0.999910 0.605770 0.447130 -0.578924
O38   O     O_R   0.000090 0.394230 0.552870 -0.568625
O39   O     O_R   0.000090 0.605770 0.552870 -0.580538
O40   O     O_R   0.999910 0.394230 0.447130 -0.584810
O41   O     O_R   0.605760 0.000000 0.553010 -0.578463
O42   O     O_R   0.394240 1.000000 0.446990 -0.574699
O43   O     O_R   0.105760 0.500000 0.553010 -0.578466
O44   O     O_R   0.894240 0.500000 0.446990 -0.574691
O45   O     O_R   0.605780 1.000000 0.658540 -0.577477
O46   O     O_R   0.394220 0.000000 0.341460 -0.572683
O47   O     O_R   0.105780 0.500000 0.658540 -0.577478
O48   O     O_R   0.894220 0.500000 0.341460 -0.572700
C73   C     C_2   0.864337 0.031265 0.571221 0.363833
H17   H     H_    0.846758 0.044732 0.507281 0.130984
O49   O     O_2   0.834206 0.063018 0.583397 -0.573778
C74   C     C_2   0.114009 0.077740 0.412529 0.418186
H18   H     H_    0.134280 0.079473 0.479842 0.105824
O50   O     O_2   0.158624 0.083024 0.416077 -0.532543
C75   C     C_2   0.125352 0.926459 0.437764 0.393151
H19   H     H_    0.132217 0.911845 0.492593 0.111589
O51   O     O_2   0.180773 0.931335 0.462768 -0.516815
C76   C     C_2   0.968278 0.136213 0.656131 0.343313
H20   H     H_    0.935262 0.170278 0.652916 0.114632
O52   O     O_2   0.965389 0.148121 0.598127 -0.556744
C77   C     C_2   0.364355 0.531331 0.571239 0.363818
H21   H     H_    0.346792 0.544814 0.507315 0.130976
O53   O     O_2   0.334230 0.563092 0.583422 -0.573762
C78   C     C_2   0.614012 0.577736 0.412531 0.418186
H22   H     H_    0.634284 0.579469 0.479844 0.105823
O54   O     O_2   0.658626 0.583019 0.416078 -0.532540
C79   C     C_2   0.625350 0.426456 0.437762 0.393147
H23   H     H_    0.632214 0.411842 0.492591 0.111588
O55   O     O_2   0.680771 0.431329 0.462766 -0.516818
C80   C     C_2   0.468350 0.636228 0.656202 0.343252
H24   H     H_    0.435347 0.670310 0.652997 0.114631
O56   O     O_2   0.465473 0.648137 0.598209 -0.556767
C81   C     C_3   0.887539 0.902693 0.574586 -0.844791
H25   H     H_    0.885437 0.855203 0.603621 0.228272
H26   H     H_    0.829100 0.910798 0.503246 0.225896
H27   H     H_    0.913830 0.885165 0.557792 0.233405
C82   C     C_3   0.003249 0.144112 0.321622 -0.899648
H28   H     H_    0.954483 0.169291 0.251902 0.242454
H29   H     H_    0.993510 0.135965 0.361506 0.217726
H30   H     H_    0.043726 0.189032 0.358950 0.234901
C83   C     C_3   0.019709 0.853136 0.316537 -0.903093
H31   H     H_    0.977782 0.834095 0.241993 0.238216
H32   H     H_    0.063345 0.811336 0.354226 0.244014
H33   H     H_    0.000784 0.848688 0.345812 0.220881
C84   C     C_3   0.096075 0.110137 0.795599 -0.774581
H34   H     H_    0.140749 0.088949 0.869071 0.209624
H35   H     H_    0.109386 0.104064 0.759562 0.260931
H36   H     H_    0.097511 0.169664 0.807217 0.226352
C85   C     C_3   0.387491 0.402746 0.574540 -0.844733
H37   H     H_    0.385351 0.355264 0.603543 0.228261
H38   H     H_    0.329062 0.410886 0.503194 0.225890
H39   H     H_    0.413785 0.385193 0.557757 0.233418
C86   C     C_3   0.503254 0.644112 0.321627 -0.899648
H40   H     H_    0.454487 0.669291 0.251908 0.242457
H41   H     H_    0.493521 0.635967 0.361517 0.217718
H42   H     H_    0.543731 0.689032 0.358950 0.234905
C87   C     C_3   0.519705 0.353136 0.316533 -0.903093
H43   H     H_    0.477777 0.334096 0.241988 0.238216
H44   H     H_    0.563339 0.311334 0.354220 0.244013
H45   H     H_    0.500781 0.348688 0.345809 0.220880
C88   C     C_3   0.596134 0.610088 0.795669 -0.774473
H46   H     H_    0.640792 0.588877 0.869131 0.209714
H47   H     H_    0.609451 0.604009 0.759640 0.260929
H48   H     H_    0.597598 0.669614 0.807315 0.226340
C89   C     C_2   0.084950 0.877484 0.906053 0.387561
H49   H     H_    0.037383 0.845633 0.869857 0.084593
O57   O     O_2   0.144844 0.850686 0.977070 -0.540907
C90   C     C_2   0.854019 0.021294 0.030090 0.324551
H50   H     H_    0.797282 0.007762 0.981447 0.131670
O58   O     O_2   0.866548 0.072299 0.008635 -0.559204
C91   C     C_2   0.897714 0.898550 0.085183 0.294825
H51   H     H_    0.939299 0.863340 0.108051 0.117278
O59   O     O_2   0.835989 0.873557 0.024945 -0.564022
C92   C     C_2   0.147025 0.992865 0.954329 0.386189
H52   H     H_    0.196537 0.989380 0.977483 0.099098
O60   O     O_2   0.151414 0.025961 0.007510 -0.572851
C93   C     C_2   0.584885 0.377438 0.905984 0.387372
H53   H     H_    0.537301 0.345608 0.869760 0.084650
O61   O     O_2   0.644765 0.350612 0.976997 -0.540967
C94   C     C_2   0.354020 0.521297 0.030091 0.324551
H54   H     H_    0.297283 0.507768 0.981448 0.131668
O62   O     O_2   0.366550 0.572302 0.008637 -0.559201
C95   C     C_2   0.397711 0.398553 0.085181 0.294823
H55   H     H_    0.439296 0.363341 0.108049 0.117278
O63   O     O_2   0.335986 0.373562 0.024941 -0.564027
C96   C     C_2   0.647030 0.492781 0.954330 0.386118
H56   H     H_    0.696571 0.489159 0.977564 0.099214
O64   O     O_2   0.651401 0.525991 0.007441 -0.572926
C97   C     C_3   0.044248 0.858248 0.743745 -0.831124
H57   H     H_    0.000676 0.837079 0.729242 0.216908
H58   H     H_    0.029303 0.851632 0.679466 0.218320
H59   H     H_    0.090206 0.819565 0.797986 0.250288
C98   C     C_3   0.864424 0.057853 0.163393 -0.797063
H60   H     H_    0.873789 0.079548 0.219649 0.259624
H61   H     H_    0.871441 0.102708 0.137712 0.225855
H62   H     H_    0.804850 0.046809 0.100527 0.212591
C99   C     C_3   0.864494 0.926021 0.177666 -0.736151
H63   H     H_    0.849978 0.935876 0.211626 0.245224
H64   H     H_    0.810175 0.923472 0.100269 0.240372
H65   H     H_    0.885669 0.870443 0.196313 0.227962
C100  C     C_3   0.142663 0.941576 0.824232 -0.797610
H66   H     H_    0.141091 0.915866 0.776241 0.259370
H67   H     H_    0.166745 0.995528 0.842317 0.218907
H68   H     H_    0.183407 0.907763 0.890261 0.222173
C101  C     C_3   0.544182 0.358229 0.743673 -0.831164
H69   H     H_    0.500594 0.337081 0.729147 0.216929
H70   H     H_    0.529242 0.351621 0.679397 0.218309
H71   H     H_    0.590119 0.319522 0.797897 0.250293
C102  C     C_3   0.364426 0.557857 0.163395 -0.797075
H72   H     H_    0.373793 0.579552 0.219652 0.259623
H73   H     H_    0.371443 0.602711 0.137714 0.225857
H74   H     H_    0.304851 0.546814 0.100530 0.212590
C103  C     C_3   0.364492 0.426025 0.177664 -0.736157
H75   H     H_    0.349973 0.435883 0.211620 0.245224
H76   H     H_    0.310173 0.423476 0.100266 0.240371
H77   H     H_    0.385666 0.370447 0.196312 0.227960
C104  C     C_3   0.642636 0.441511 0.824202 -0.797637
H78   H     H_    0.641045 0.415825 0.776184 0.259377
H79   H     H_    0.666758 0.495449 0.842352 0.218892
H80   H     H_    0.683357 0.407657 0.890193 0.222146

loop_
_geom_bond_atom_site_label_1
_geom_bond_atom_site_label_2
_ccdc_geom_bond_type
C68   C102  S    
C25   C31   T    
C48   C84   S    
C41   H5    S    
C101  H70   S    
Cu3   O7    S    
C53   C92   S    
C49   C63   S    
C55   C59   S    
C75   O51   D    
C9    O17   A    
Cu1   Cu2   S    
C51   C79   S    
C95   H55   S    
C39   H3    S    
Cu10  O42   S    
Cu5   O20   S    
C19   C31   S    
C47   C62   S    
C94   O62   D    
Cu9   Cu10  S    
C84   H34   S    
C9    C25   S    
C55   C93   S    
Cu8   O22   S    
Cu5   Cu6   S    
C3    O5    A    
C87   H45   S    
C26   C32   T    
C86   H40   S    
Cu7   O21   S    
C102  H72   S    
C38   H10   S    
C47   C75   S    
C46   C62   S    
C50   C64   S    
C64   C68   S    
C55   C96   S    
C37   H1    S    
C78   H22   S    
Cu6   O18   S    
Cu6   O29   S    
C43   H15   S    
C52   C88   S    
C97   H59   S    
Cu5   O17   S    
C73   O49   D    
C7    C71   T    
C103  H75   S    
C50   C86   S    
C92   O60   D    
C84   H35   S    
C15   O31   A    
C49   C85   S    
C80   H24   S    
Cu12  O44   S    
C44   C59   S    
C6    C22   S    
C17   C29   S    
C27   C29   T    
C35   C59   S    
C100  H66   S    
C88   H46   S    
C20   O38   A    
Cu10  O35   S    
C87   H44   S    
C40   C48   S    
Cu11  O40   S    
C5    C69   T    
C51   C87   S    
Cu4   O6    S    
Cu4   O16   S    
C38   C58   S    
C68   C103  S    
C22   O46   A    
Cu12  O39   S    
C90   H50   S    
C82   H29   S    
C56   C94   S    
C17   O35   A    
Cu2   O4    S    
C53   C89   S    
Cu1   O11   S    
C18   C30   S    
C67   C101  S    
C15   C63   S    
C33   O9    A    
C53   C65   S    
C98   H60   S    
C49   C77   S    
C44   H8    S    
C104  H78   S    
C47   C83   S    
Cu2   O2    S    
C13   O25   A    
C44   C52   S    
Cu1   O1    S    
Cu12  O38   S    
Cu4   O8    S    
Cu8   O31   S    
C15   O27   A    
C99   H63   S    
C76   O52   D    
C34   O11   A    
C88   H47   S    
C46   C82   S    
C23   O43   A    
C11   O21   A    
C40   H12   S    
C2    C70   S    
C37   H9    S    
C41   C49   S    
C94   H54   S    
C77   O53   D    
C20   C32   S    
C77   H21   S    
C81   H26   S    
C37   C57   S    
C4    O7    A    
C63   C67   S    
C8    C72   T    
C102  H73   S    
C62   C66   S    
C66   C98   S    
C50   C78   S    
C48   C76   S    
C41   C59   S    
C79   O55   D    
C24   O48   A    
C83   H32   S    
C52   C80   S    
C79   H23   S    
C103  H76   S    
C53   C57   S    
C92   H52   S    
C84   H36   S    
Cu5   O30   S    
Cu8   O28   S    
C86   H41   S    
C93   H53   S    
C83   H31   S    
C39   C58   S    
C4    O6    A    
C1    C69   S    
C56   C60   S    
C42   H6    S    
C21   O45   A    
Cu10  O34   S    
C85   H39   S    
C3    C71   S    
Cu3   Cu4   S    
C91   H51   S    
C97   H57   S    
C10   O18   A    
C45   C81   S    
C56   C95   S    
C13   C61   S    
C16   O28   A    
Cu4   O14   S    
Cu11  Cu12  S    
C12   O24   A    
C11   C27   S    
C19   O37   A    
C82   H30   S    
C22   O42   A    
C4    C72   S    
C10   C26   S    
C51   C64   S    
C5    C21   S    
C35   O16   A    
C96   H56   S    
C33   O12   A    
C18   O36   A    
C98   H61   S    
C1    O4    A    
C39   H11   S    
C67   C104  S    
C43   C60   S    
C42   C50   S    
Cu3   O13   S    
C90   O58   D    
C54   C91   S    
C91   O59   D    
C38   H2    S    
Cu3   O5    S    
C96   O64   D    
C99   H64   S    
C66   C99   S    
C17   O33   A    
C76   H20   S    
C9    O19   A    
C88   H48   S    
C41   H13   S    
C101  H71   S    
C100  H67   S    
Cu3   O15   S    
C42   C60   S    
Cu6   O26   S    
C1    O1    A    
Cu11  O37   S    
Cu10  O45   S    
Cu5   O25   S    
C23   O47   A    
Cu9   O36   S    
C39   C47   S    
C21   O41   A    
C54   C58   S    
Cu12  O47   S    
C6    C70   T    
C14   O30   A    
C89   H49   S    
C87   H43   S    
C102  H74   S    
C33   C57   S    
C40   C57   S    
C83   H33   S    
C100  H68   S    
C11   O23   A    
C65   C100  S    
C74   O50   D    
Cu11  O48   S    
C36   C60   S    
C52   C63   S    
Cu2   O10   S    
C103  H77   S    
C55   C67   S    
C95   O63   D    
C81   H27   S    
Cu9   O33   S    
C54   C66   S    
C3    O8    A    
C93   O61   D    
Cu7   O24   S    
C54   C90   S    
C14   O26   A    
C65   C97   S    
C104  H80   S    
C20   O40   A    
C78   O54   D    
Cu6   O19   S    
Cu7   O27   S    
C28   C30   T    
C97   H58   S    
C56   C68   S    
C73   H17   S    
C86   H42   S    
Cu2   O12   S    
C44   H16   S    
C43   C51   S    
C48   C61   S    
C80   O56   D    
C2    O3    A    
C24   O44   A    
C45   C61   S    
C7    C23   S    
Cu7   O32   S    
Cu9   O41   S    
C8    C24   S    
C36   O14   A    
C35   O13   A    
C18   O34   A    
C45   C73   S    
Cu1   O9    S    
C85   H37   S    
C16   O32   A    
C98   H62   S    
C43   H7    S    
C38   C46   S    
C10   O20   A    
C82   H28   S    
C42   H14   S    
C81   H25   S    
Cu7   Cu8   S    
C61   C65   S    
Cu1   O3    S    
C12   O22   A    
C74   H18   S    
C12   C28   S    
C19   O39   A    
Cu9   O46   S    
C99   H65   S    
C75   H19   S    
C34   C58   S    
C2    O2    A    
Cu11  O43   S    
C16   C64   S    
C34   O10   A    
C104  H79   S    
C46   C74   S    
C101  H69   S    
C89   O57   D    
C37   C45   S    
C13   O29   A    
C40   H4    S    
C85   H38   S    
C36   O15   A    
Cu8   O23   S    
C14   C62   S    
