data_mof_unit_22510.cif
_audit_creation_date              2013-03-05T15:42:57-0500
_audit_creation_method            fapswitch 2.2
_symmetry_space_group_name_H-M    P1
_symmetry_Int_Tables_number       1
_space_group_crystal_system       triclinic
_cell_length_a                    8.638805
_cell_length_b                    15.046017
_cell_length_c                    22.77599
_cell_angle_alpha                 97.032096
_cell_angle_beta                  89.492315
_cell_angle_gamma                 99.32694
_cell_volume                      2899.11955474

loop_
_atom_site_label
_atom_site_type_symbol
_atom_site_description
_atom_site_fract_x
_atom_site_fract_y
_atom_site_fract_z
_atom_type_partial_charge
P1    P     P_3+3 0.054670 0.423610 0.368990 0.489521
O1    O     O_2   0.888680 0.450300 0.360330 -0.345479
O2    O     O_3   0.129270 0.451230 0.431380 -0.349871
O3    O     O_3   0.676100 0.614850 0.396630 -0.323353
O4    O     O_2   0.765092 0.539991 0.291806 -0.354886
O5    O     O_3   0.997838 0.305314 0.365634 -0.602795
O6    O     O_3   0.707641 0.702574 0.284886 -0.636015
C1    C     C_3   0.702834 0.851749 0.264425 -0.888048
H1    H     H_    0.820373 0.853946 0.243994 0.244061
H2    H     H_    0.614001 0.825087 0.229149 0.226055
P2    P     P_3+3 0.674060 0.707690 0.546600 0.552810
P3    P     P_3+3 0.151714 0.780256 0.435694 0.586642
O7    O     O_2   0.851930 0.720960 0.529560 -0.341126
O8    O     O_3   0.095720 0.661380 0.425720 -0.394459
O9    O     O_2   0.033743 0.820977 0.477685 -0.271465
O10   O     O_3   0.671313 0.724603 0.624166 -0.567972
O11   O     O_3   0.126990 0.829427 0.370611 -0.472894
C2    C     C_3   0.167153 0.776578 0.318819 0.520040
H3    H     H_    0.265111 0.742918 0.326601 0.132853
C3    C     C_3   0.210615 0.839362 0.270280 -0.229484
H4    H     H_    0.107139 0.869476 0.258946 0.223851
C4    C     C_3   0.293402 0.728174 0.681072 0.173636
H5    H     H_    0.260956 0.700624 0.723389 0.072672
H6    H     H_    0.405732 0.707212 0.666006 0.149685
C5    C     C_3   0.320606 0.832418 0.691807 0.158918
H7    H     H_    0.317179 0.858959 0.648384 0.156793
Ba1   Ba    Ba6+2 0.857590 0.542650 0.472590 1.695404
C6    C     C_3   0.097416 0.256446 0.329640 0.455367
H8    H     H_    0.220289 0.291891 0.334370 0.038583
C7    C     C_3   0.047652 0.245322 0.262955 0.193960
H9    H     H_    0.980294 0.300462 0.256868 0.040004
C8    C     C_3   0.812868 0.710702 0.647854 0.469510
H10   H     H_    0.911421 0.761412 0.635055 0.158537
H11   H     H_    0.833872 0.641320 0.632097 0.056264
C9    C     C_3   0.802722 0.722580 0.714995 -0.954793
H12   H     H_    0.792567 0.794010 0.731233 0.322322
H13   H     H_    0.909982 0.705955 0.734622 0.209242
H14   H     H_    0.698404 0.677534 0.729487 0.260674
P4    P     P_3+3 0.135040 0.576460 0.631020 0.508156
O12   O     O_2   0.301020 0.549730 0.639710 -0.358398
O13   O     O_3   0.060450 0.548840 0.568630 -0.315752
O14   O     O_3   0.513610 0.385220 0.603380 -0.311715
O15   O     O_3   0.177252 0.695813 0.636967 -0.595227
P5    P     P_3+3 0.035334 0.220681 0.550067 0.567148
O16   O     O_3   0.611400 0.391150 0.470030 -0.351124
O17   O     O_3   0.093990 0.338690 0.574280 -0.308655
O18   O     O_2   0.090424 0.203662 0.485988 -0.303009
O19   O     O_3   0.139145 0.154246 0.587421 -0.529885
Ba2   Ba    Ba6+2 0.332250 0.457420 0.527420 1.720815
P6    P     P_3+3 0.649490 0.602258 0.318255 0.512752
C10   C     C_3   0.687028 0.789524 0.314093 0.997552
H15   H     H_    0.687913 0.922321 0.281094 0.280865
O20   O     O_3   0.578310 0.608920 0.529980 -0.375070
C11   C     C_3   0.624579 0.221363 0.346673 0.331466
H16   H     H_    0.668791 0.255555 0.307908 0.144681
H17   H     H_    0.725758 0.229042 0.377556 0.102241
C12   C     C_3   0.570398 0.120936 0.325923 -0.667823
H18   H     H_    0.485924 0.112789 0.288477 0.288276
H19   H     H_    0.672416 0.088195 0.311076 0.247070
H20   H     H_    0.513461 0.085798 0.362361 0.238661
P7    P     P_3+3 0.511772 0.279433 0.447596 0.493946
O21   O     O_2   0.337770 0.279070 0.470480 -0.301403
O22   O     O_3   0.497619 0.261820 0.370199 -0.549147
H21   H     H_    0.302028 0.897146 0.287140 0.249908
C13   C     C_3   0.066905 0.141861 0.642313 0.410635
H22   H     H_    0.937423 0.127692 0.637904 0.138453
C14   C     C_3   0.115622 0.057831 0.663963 -0.106801
H23   H     H_    0.244409 0.061069 0.660409 0.112833
H24   H     H_    0.083072 0.054169 0.711046 0.128376
P8    P     P_3+3 0.545968 0.407803 0.682085 0.573218
C15   C     C_3   0.554550 0.232437 0.707959 0.870485
O23   O     O_2   0.410189 0.458373 0.703147 -0.340504
O24   O     O_3   0.494971 0.315110 0.724092 -0.547175
C16   C     C_3   0.461784 0.160926 0.744763 -0.136304
H25   H     H_    0.469640 0.090938 0.723956 0.139848
H26   H     H_    0.336301 0.167200 0.746336 0.081591
H27   H     H_    0.798881 0.604382 0.100104 0.177212
H28   H     H_    0.725249 0.608450 0.998173 0.171044
C17   C     C_R   0.352977 0.495587 0.327702 -0.138622
C18   C     C_R   0.156507 0.487417 0.925970 -0.099618
C19   C     C_R   0.100464 0.482469 0.866582 0.577030
O25   O     O_2   0.166141 0.442914 0.826220 -0.555230
N1    N     N_R   0.968908 0.519335 0.853843 -0.163513
C20   C     C_R   0.883823 0.556045 0.900086 0.516374
O26   O     O_2   0.772635 0.592681 0.889519 -0.595617
C21   C     C_R   0.925430 0.552864 0.959702 -0.026611
C22   C     C_R   0.063458 0.519809 0.972767 -0.032023
C23   C     C_R   0.301698 0.460993 0.940579 0.213205
C24   C     C_R   0.343822 0.461691 0.000160 -0.086753
C25   C     C_R   0.247981 0.489525 0.046648 -0.123361
C26   C     C_R   0.108404 0.519650 0.033003 -0.002223
C27   C     C_R   0.832452 0.583278 0.006715 -0.120400
C28   C     C_R   0.874829 0.580874 0.065517 -0.079609
C29   C     C_R   0.013228 0.549456 0.079529 -0.035041
C30   C     C_R   0.058473 0.547736 0.139060 0.512154
N2    N     N_R   0.197059 0.518298 0.152494 -0.164174
C31   C     C_R   0.290370 0.488490 0.106567 0.606711
C32   C     C_2   0.769204 0.495374 0.773451 -0.094423
C33   C     C_3   0.724293 0.494031 0.708751 0.022063
C34   C     C_1   0.004062 0.529880 0.688176 0.064007
C35   C     C_2   0.043764 0.540447 0.745175 -0.262261
C36   C     C_2   0.922037 0.519187 0.791754 0.176557
C37   C     C_R   0.398819 0.556348 0.234024 -0.281653
C38   C     C_R   0.451869 0.546261 0.290763 0.303347
C39   C     C_R   0.192817 0.468994 0.312617 0.107750
C40   C     C_R   0.141169 0.476721 0.255131 -0.240821
C41   C     C_R   0.245273 0.517345 0.214060 0.181193
O27   O     O_2   0.974391 0.573226 0.178809 -0.582643
O28   O     O_2   0.409681 0.459526 0.117718 -0.540778
C42   C     C_2   0.864447 0.486945 0.669428 0.133950
H29   H     H_    0.453822 0.440711 0.010322 0.176739
H30   H     H_    0.477798 0.593528 0.205067 0.172614
H31   H     H_    0.165463 0.563078 0.758316 0.178380
H32   H     H_    0.677574 0.476431 0.804480 0.181856
H33   H     H_    0.020411 0.451171 0.242410 0.197656
C43   C     C_R   0.748568 0.231771 0.508174 -0.255244
C44   C     C_R   0.828369 0.176452 0.535794 0.238137
C45   C     C_R   0.766321 0.083817 0.534507 -0.248348
C46   C     C_R   0.616337 0.047834 0.508852 0.131855
C47   C     C_R   0.533711 0.109589 0.484812 -0.247831
C48   C     C_R   0.602097 0.199801 0.483936 0.165094
C49   C     C_R   0.398015 0.914051 0.480738 -0.137179
C50   C     C_R   0.339529 0.821449 0.473045 0.308812
C51   C     C_R   0.574650 0.789810 0.515401 0.302438
C52   C     C_R   0.638365 0.882508 0.521043 -0.164006
C53   C     C_R   0.550430 0.947485 0.504123 0.055151
C54   C     C_R   0.423900 0.760211 0.492958 -0.340680
H34   H     H_    0.321692 0.957375 0.466778 0.160684
H35   H     H_    0.839833 0.041091 0.550973 0.168287
H36   H     H_    0.755622 0.901435 0.538693 0.190861
H37   H     H_    0.419938 0.089986 0.464172 0.168254
H38   H     H_    0.373264 0.689023 0.489225 0.152972
H39   H     H_    0.806582 0.298948 0.501810 0.192791
N3    N     N_R   0.806959 0.824274 0.359579 0.222396
O29   O     O_R   0.799949 0.785102 0.407338 -0.332638
O30   O     O_R   0.879259 0.907794 0.362582 -0.324048
C55   C     C_3   0.193896 0.867723 0.731257 -0.830413
H40   H     H_    0.079468 0.852891 0.707751 0.255289
H41   H     H_    0.182815 0.836085 0.773011 0.257961
H42   H     H_    0.224945 0.942280 0.742799 0.247981
N4    N     N_R   0.474714 0.866020 0.719351 0.254880
O31   O     O_R   0.507844 0.844382 0.770879 -0.351830
O32   O     O_R   0.578836 0.919411 0.692893 -0.344799
N5    N     N_R   0.092038 0.167882 0.350742 0.283959
O33   O     O_R   0.218934 0.132082 0.352890 -0.342113
O34   O     O_R   0.960208 0.124086 0.367827 -0.343875
N6    N     N_R   0.946498 0.158805 0.243500 0.255002
O35   O     O_R   0.809693 0.159186 0.220163 -0.374531
O36   O     O_R   0.003151 0.083098 0.238439 -0.301353
N7    N     N_R   0.185251 0.255288 0.224775 0.234540
O37   O     O_R   0.303611 0.214253 0.233443 -0.339134
O38   O     O_R   0.177444 0.291431 0.175909 -0.335607
N8    N     N_R   0.535526 0.791505 0.342205 0.161278
O39   O     O_R   0.494930 0.870838 0.356692 -0.488494
O40   O     O_R   0.482122 0.728609 0.374703 -0.513087
C56   C     C_3   0.112085 0.226657 0.687685 -0.745731
H43   H     H_    0.041623 0.279274 0.680652 0.291695
H44   H     H_    0.091153 0.211074 0.733764 0.249836
H45   H     H_    0.234978 0.257450 0.682896 0.249525
N9    N     N_R   0.038141 0.975841 0.628484 0.242840
O41   O     O_R   0.114230 0.934485 0.586859 -0.401655
O42   O     O_R   0.895338 0.940975 0.640536 -0.396433
N10   N     N_R   0.720698 0.240548 0.723998 0.251862
O43   O     O_R   0.791980 0.312571 0.756026 -0.370717
O44   O     O_R   0.782395 0.166871 0.721160 -0.412701
C57   C     C_3   0.529016 0.196099 0.641887 -1.075119
H46   H     H_    0.598278 0.240170 0.613165 0.292913
H47   H     H_    0.563818 0.127956 0.632341 0.246387
H48   H     H_    0.405733 0.190433 0.628475 0.269109
N11   N     N_R   0.520525 0.170876 0.805628 0.300350
O45   O     O_R   0.518585 0.245811 0.840456 -0.350595
O46   O     O_R   0.571912 0.103682 0.825789 -0.261727
C58   C     C_3   0.036013 0.700026 0.297705 -0.720211
H49   H     H_    0.086358 0.639691 0.280160 0.213950
H50   H     H_    0.960431 0.681400 0.334865 0.295258
H51   H     H_    0.968614 0.718189 0.261217 0.264880
C59   C     C_3   0.418402 0.435879 0.894343 -0.673673
H52   H     H_    0.448629 0.491711 0.866507 0.243644
H53   H     H_    0.529450 0.424320 0.914134 0.222187
H54   H     H_    0.367691 0.372445 0.866534 0.302321
C60   C     C_3   0.422834 0.466982 0.381334 -0.578358
H55   H     H_    0.358368 0.402863 0.393311 0.226318
H56   H     H_    0.542308 0.451283 0.372027 0.231894
H57   H     H_    0.424993 0.520925 0.419241 0.238396
N12   N     N_R   0.852483 0.417540 0.620939 0.236632
O47   O     O_R   0.802858 0.433866 0.570428 -0.365534
O48   O     O_R   0.838896 0.334475 0.632177 -0.492608
C61   C     C_3   0.270511 0.789930 0.213992 -0.994373
H58   H     H_    0.358127 0.748034 0.224981 0.252629
H59   H     H_    0.172171 0.745138 0.188923 0.286380
H60   H     H_    0.325925 0.840245 0.185150 0.296802

loop_
_geom_bond_atom_site_label_1
_geom_bond_atom_site_label_2
_geom_bond_distance
_ccdc_geom_bond_type
C42   N12   1.416151 S    
P6    C38   1.854727 S    
C35   C36   1.512576 S    
N1    C36   1.474061 S    
C22   C26   1.429520 A    
C47   H37   1.074372 S    
C35   H31   1.084164 S    
N6    O35   1.301286 A    
C3    H21   1.108175 S    
C19   O25   1.219615 D    
O2    Ba2   2.798813 S    
C7    N6    1.466758 S    
P4    O13   1.546601 S    
C58   H49   1.099551 S    
C47   C48   1.392214 A    
C34   C42   1.320375 D    
C55   H41   1.111119 S    
O17   Ba2   2.793381 S    
C28   C29   1.407727 A    
C15   N10   1.466309 S    
C61   H60   1.110190 S    
C61   H59   1.109384 S    
C6    H8    1.107798 S    
C9    H13   1.109429 S    
C20   C21   1.416062 A    
C2    H3    1.080542 S    
C18   C22   1.415734 A    
N4    O32   1.300883 A    
C7    H9    1.110034 S    
C10   N3    1.459754 S    
N12   O48   1.292870 A    
C11   O22   1.409506 S    
O12   Ba2   2.789662 S    
O14   P8    1.798874 S    
C43   C44   1.373187 A    
C17   C39   1.409887 A    
P7    C48   1.812940 S    
P1    O1    1.570813 D    
H27   C28   1.083507 S    
P7    O22   1.752571 S    
C54   H38   1.082741 S    
C34   C35   1.329626 D    
O7    Ba1   2.841263 S    
C45   C46   1.421947 A    
C52   H36   1.074459 S    
O5    C6    1.413370 S    
C30   N2    1.390934 Am   
C1    H1    1.110490 S    
C59   H53   1.111152 S    
C15   C57   1.541914 S    
P3    O11   1.765107 S    
O1    Ba1   2.789113 S    
C6    N5    1.464631 S    
O16   Ba2   2.987073 S    
O19   C13   1.411634 S    
N8    O40   1.296213 A    
C1    H15   1.110413 S    
C25   C31   1.418697 A    
C2    C3    1.545611 S    
P2    O20   1.582826 S    
P5    O18   1.535498 D    
Ba1   O16   2.849715 S    
C60   H56   1.108544 S    
C57   H47   1.110418 S    
P7    O21   1.585994 D    
O13   Ba2   2.996318 S    
C19   N1    1.390337 Am   
P5    O17   1.785239 S    
C12   H18   1.109685 S    
C58   H50   1.100066 S    
C55   H42   1.109490 S    
C11   H17   1.109212 S    
C43   C48   1.373788 A    
C14   H23   1.108390 S    
C8    C9    1.521129 S    
C23   C59   1.508455 S    
C9    H14   1.109937 S    
C20   O26   1.221719 D    
N5    O34   1.301659 A    
C16   H25   1.112880 S    
P4    O12   1.571095 D    
C15   O24   1.428111 S    
C21   C22   1.411547 A    
C18   C19   1.429966 A    
C12   H20   1.107292 S    
P4    O15   1.762174 S    
C43   H39   1.078979 S    
C13   C14   1.532188 S    
C5    H7    1.113336 S    
C60   H55   1.096749 S    
C33   C42   1.509542 S    
C4    C5    1.537102 S    
C17   C60   1.505836 S    
O3    P6    1.784819 S    
C37   H30   1.082622 S    
P1    O2    1.546631 S    
C9    H12   1.110050 S    
C8    H11   1.104540 S    
C49   C53   1.415094 A    
C5    C55   1.530329 S    
C2    C58   1.514082 S    
C3    C61   1.531008 S    
C31   O28   1.222338 D    
P2    O10   1.754280 S    
Ba1   O13   2.798162 S    
C50   C54   1.382672 A    
C4    O15   1.411646 S    
C56   H44   1.110061 S    
P3    O9    1.539582 D    
P2    Ba1   3.424224 S    
C59   H54   1.106966 S    
N2    C31   1.390151 Am   
P8    O24   1.781735 S    
O11   C2    1.413040 S    
C40   C41   1.415750 A    
C3    H4    1.111311 S    
C1    C10   1.545977 S    
C14   N9    1.456249 S    
C16   H26   1.103160 S    
C59   H52   1.110034 S    
C51   C54   1.386963 A    
P4    Ba2   3.400167 S    
N2    C41   1.468714 S    
P3    O8    1.762592 S    
C13   H22   1.107330 S    
C52   C53   1.421119 A    
O8    Ba1   2.792777 S    
N7    O38   1.303990 A    
C17   C38   1.397198 A    
N1    C20   1.389275 Am   
C12   H19   1.108331 S    
O10   C8    1.397295 S    
C25   C26   1.405062 A    
C21   C27   1.408914 A    
N9    O42   1.300749 A    
O3    Ba1   2.773392 S    
P8    C33   1.897654 S    
C37   C41   1.415512 A    
C55   H40   1.105532 S    
C60   H57   1.108271 S    
C11   H16   1.109791 S    
C10   N8    1.454960 S    
Ba2   O21   2.841365 S    
P1    O5    1.760389 S    
C7    N7    1.465438 S    
N6    O36   1.303033 A    
C4    H5    1.111162 S    
C56   H45   1.097522 S    
C5    N4    1.463058 S    
O6    P6    1.771005 S    
N5    O33   1.301177 A    
C15   C16   1.559490 S    
N3    O30   1.303547 A    
C46   C47   1.420948 A    
Ba1   O20   2.988037 S    
C49   C50   1.393139 A    
N3    O29   1.295565 A    
C13   C56   1.539779 S    
C39   C40   1.411143 A    
C24   H29   1.084093 S    
N12   O47   1.296036 A    
C40   H33   1.080786 S    
H28   C27   1.083472 S    
N9    O41   1.301976 A    
O2    Ba1   2.995432 S    
N8    O39   1.301476 A    
O6    C10   1.430418 S    
C6    C7    1.563867 S    
C18   C23   1.429471 A    
C45   H35   1.073677 S    
C32   C36   1.365718 D    
C44   C45   1.406742 A    
C8    H10   1.109730 S    
C26   C29   1.409895 A    
P2    O7    1.568612 D    
P4    C34   1.845630 S    
C57   H46   1.093762 S    
P3    C50   1.819270 S    
N11   O46   1.301072 A    
P5    C44   1.821235 S    
Ba2   O20   2.849022 S    
O16   P7    1.776460 S    
C27   C28   1.397776 A    
C58   H51   1.104585 S    
C4    H6    1.107121 S    
C49   H34   1.074491 S    
C29   C30   1.418820 A    
O4    P6    1.546727 D    
C16   N11   1.462418 S    
N10   O43   1.297599 A    
C32   H32   1.083309 S    
C30   O27   1.219807 D    
O14   Ba2   2.772680 S    
C46   C53   1.515936 S    
P5    O19   1.743441 S    
C56   H43   1.100873 S    
C23   C24   1.406425 A    
C57   H48   1.097638 S    
C1    H2    1.107970 S    
C32   C33   1.524049 S    
N11   O45   1.299075 A    
C37   C38   1.408600 A    
P1    Ba1   3.399513 S    
N7    O37   1.305264 A    
C61   H58   1.108846 S    
N10   O44   1.300201 A    
P8    O23   1.541060 D    
P2    C51   1.827240 S    
C14   H24   1.111846 S    
C24   C25   1.403656 A    
N4    O31   1.301883 A    
Ba1   Ba2   4.712254 S    
P1    C39   1.860760 S    
C51   C52   1.404738 A    
C11   C12   1.524954 S    
