data_mof_unit_15109.cif
_audit_creation_date              2012-12-11T16:34:28-0500
_audit_creation_method            fapswitch 2.2
_symmetry_space_group_name_H-M    P1
_symmetry_Int_Tables_number       1
_space_group_crystal_system       triclinic
_cell_length_a                    25.573917
_cell_length_b                    7.228787
_cell_length_c                    23.404077
_cell_angle_alpha                 90.0
_cell_angle_beta                  104.301908
_cell_angle_gamma                 89.999854
_cell_volume                      4192.57981197

loop_
_atom_site_label
_atom_site_type_symbol
_atom_type_description
_atom_site_fract_x
_atom_site_fract_y
_atom_site_fract_z
_atom_type_partial_charge
O1    O     O_R   0.438720 0.630760 0.439780 -0.535173
O2    O     O_R   0.061280 0.869240 0.060220 -0.532020
O3    O     O_R   0.561280 0.130760 0.560220 -0.535171
O4    O     O_R   0.938720 0.369240 0.939780 -0.532022
O5    O     O_R   0.546410 0.956760 0.446260 -0.539710
O6    O     O_R   0.953590 0.543240 0.053740 -0.544754
O7    O     O_R   0.453590 0.456760 0.553740 -0.539709
O8    O     O_R   0.046410 0.043240 0.946260 -0.544754
C1    C     C_R   0.561701 0.792163 0.432866 0.691326
C2    C     C_R   0.938728 0.708075 0.067485 0.685314
C3    C     C_R   0.438299 0.292163 0.567134 0.691332
C4    C     C_R   0.061272 0.208074 0.932515 0.685318
O9    O     O_R   0.438220 0.960230 0.432810 -0.538120
O10   O     O_R   0.061780 0.539770 0.067190 -0.539063
O11   O     O_R   0.561780 0.460230 0.567190 -0.538115
O12   O     O_R   0.938220 0.039770 0.932810 -0.539063
O13   O     O_R   0.452310 0.134250 0.546660 -0.536816
O14   O     O_R   0.047690 0.365750 0.953340 -0.536476
O15   O     O_R   0.547690 0.634250 0.453340 -0.536820
O16   O     O_R   0.952310 0.865750 0.046660 -0.536478
C5    C     C_R   0.418823 0.791799 0.416452 0.678172
C6    C     C_R   0.080862 0.708249 0.083547 0.680181
C7    C     C_R   0.581178 0.291799 0.583547 0.678173
C8    C     C_R   0.919137 0.208250 0.916453 0.680181
O17   O     O_3   0.504750 0.798450 0.537370 -0.376575
O18   O     O_3   0.995250 0.701550 0.962630 -0.374337
O19   O     O_3   0.495250 0.298450 0.462630 -0.376579
O20   O     O_3   0.004750 0.201550 0.037370 -0.374337
V1    V     V_3+5 0.499120 0.071860 0.493070 1.367324
V2    V     V_3+5 0.000880 0.428140 0.006930 1.374693
V3    V     V_3+5 0.500880 0.571860 0.506930 1.367325
V4    V     V_3+5 0.999120 0.928140 0.993070 1.374694
C9    C     C_R   0.712509 0.123900 0.684867 -0.194444
C10   C     C_R   0.780096 0.120696 0.817284 -0.174817
C11   C     C_R   0.287507 0.623860 0.315110 -0.194427
C12   C     C_R   0.219906 0.620706 0.182709 -0.174820
H1    H     H_    0.738812 0.005185 0.688090 0.130816
H2    H     H_    0.746052 0.030594 0.816434 0.121543
H3    H     H_    0.261215 0.505113 0.311874 0.130799
H4    H     H_    0.253950 0.530613 0.183556 0.121551
C13   C     C_R   0.665347 0.129993 0.639394 -0.162991
C14   C     C_R   0.826698 0.101903 0.863104 -0.172365
C15   C     C_R   0.334668 0.629956 0.360585 -0.162997
C16   C     C_R   0.173303 0.601909 0.136892 -0.172362
H5    H     H_    0.656723 0.016141 0.608403 0.127640
H6    H     H_    0.827667 0.998817 0.896943 0.116283
H7    H     H_    0.343299 0.516076 0.391565 0.127649
H8    H     H_    0.172333 0.498826 0.103052 0.116289
C17   C     C_R   0.630458 0.282731 0.633159 -0.069054
C18   C     C_R   0.870955 0.219056 0.866244 -0.059424
C19   C     C_R   0.369545 0.782730 0.366837 -0.069057
C20   C     C_R   0.129044 0.719053 0.133756 -0.059433
C21   C     C_R   0.643073 0.426624 0.674718 -0.196912
C22   C     C_R   0.868821 0.349859 0.821487 -0.180148
C23   C     C_R   0.356921 0.926655 0.325288 -0.196904
C24   C     C_R   0.131177 0.849837 0.178516 -0.180106
H9    H     H_    0.615969 0.543557 0.671276 0.129893
H10   H     H_    0.904060 0.434430 0.822634 0.116194
H11   H     H_    0.384017 0.043615 0.328740 0.129889
H12   H     H_    0.095935 0.934385 0.177374 0.116164
C25   C     C_R   0.689682 0.419715 0.721849 0.117524
C26   C     C_R   0.822588 0.368932 0.774398 0.096357
C27   C     C_R   0.310312 0.919746 0.278156 0.117500
C28   C     C_R   0.177412 0.868909 0.225604 0.096367
C29   C     C_R   0.725936 0.268894 0.725790 0.053086
C30   C     C_R   0.776932 0.254947 0.773083 0.052609
C31   C     C_R   0.274068 0.768890 0.274203 0.053078
C32   C     C_R   0.223071 0.754946 0.226911 0.052612
C33   C     C_R   0.130081 0.375784 0.893095 -0.199535
C34   C     C_R   0.370510 0.119501 0.606971 -0.212110
C35   C     C_R   0.869918 0.875785 0.106903 -0.199534
C36   C     C_R   0.629489 0.619501 0.393027 -0.212112
H13   H     H_    0.127218 0.486612 0.923350 0.124772
H14   H     H_    0.375688 0.006019 0.578643 0.125408
H15   H     H_    0.872782 0.986613 0.076648 0.124772
H16   H     H_    0.624311 0.506019 0.421355 0.125406
C37   C     C_R   0.166978 0.393846 0.857771 0.091897
C38   C     C_R   0.332348 0.100134 0.640863 0.088417
C39   C     C_R   0.833020 0.893847 0.142226 0.091895
C40   C     C_R   0.667651 0.600135 0.359135 0.088416
C41   C     C_R   0.172758 0.246090 0.819900 -0.021563
C42   C     C_R   0.323909 0.249602 0.676850 -0.014131
C43   C     C_R   0.827239 0.746091 0.180097 -0.021562
C44   C     C_R   0.676090 0.749603 0.323148 -0.014129
C45   C     C_R   0.140064 0.088694 0.817247 -0.174273
C46   C     C_R   0.354264 0.411668 0.677888 -0.197705
C47   C     C_R   0.859933 0.588695 0.182751 -0.174274
C48   C     C_R   0.645735 0.911670 0.322111 -0.197705
H17   H     H_    0.144812 0.978931 0.787606 0.129239
H18   H     H_    0.348263 0.524285 0.706196 0.132979
H19   H     H_    0.855185 0.478932 0.212391 0.129240
H20   H     H_    0.651736 0.024289 0.293804 0.132979
C49   C     C_R   0.101340 0.072941 0.850783 0.068431
C50   C     C_R   0.392850 0.431312 0.644603 0.075706
C51   C     C_R   0.898658 0.572941 0.149216 0.068434
C52   C     C_R   0.607150 0.931316 0.355398 0.075710
C53   C     C_R   0.097823 0.217131 0.891361 -0.113812
C54   C     C_R   0.400686 0.282940 0.607237 -0.091923
C55   C     C_R   0.902176 0.717132 0.108637 -0.113810
C56   C     C_R   0.599314 0.782941 0.392763 -0.091925
N1    N     N_R   0.240971 0.093195 0.777508 -0.304805
N2    N     N_R   0.255039 0.400527 0.718581 -0.306314
N3    N     N_R   0.759026 0.593197 0.222488 -0.304803
N4    N     N_R   0.744959 0.900527 0.281416 -0.306313
N5    N     N_R   0.276168 0.092549 0.743914 -0.301385
N6    N     N_R   0.219870 0.401204 0.752164 -0.302734
N7    N     N_R   0.723829 0.592551 0.256082 -0.301384
N8    N     N_R   0.780128 0.901205 0.247833 -0.302733
C57   C     C_R   0.283817 0.245968 0.713493 0.513023
C58   C     C_R   0.212323 0.248024 0.782689 0.510668
C59   C     C_R   0.716181 0.745969 0.286504 0.513020
C60   C     C_R   0.787674 0.748026 0.217307 0.510666
C61   C     C_3   0.698044 0.571608 0.767744 -0.391234
C62   C     C_3   0.658810 0.550192 0.807348 -0.295020
C63   C     C_3   0.664127 0.711277 0.850555 -0.777910
H21   H     H_    0.705892 0.718714 0.878940 0.226856
H22   H     H_    0.654153 0.843735 0.826216 0.226675
H23   H     H_    0.635779 0.691258 0.879115 0.220635
H24   H     H_    0.616551 0.544293 0.780285 0.192338
H25   H     H_    0.667602 0.418785 0.832610 0.198658
H26   H     H_    0.739518 0.570050 0.796515 0.184460
H27   H     H_    0.692135 0.708087 0.745088 0.172222
C64   C     C_3   0.825277 0.501325 0.724849 -0.384674
C65   C     C_3   0.832923 0.703630 0.745759 -0.301670
C66   C     C_3   0.843583 0.829106 0.697435 -0.778910
H28   H     H_    0.881807 0.788708 0.686323 0.229400
H29   H     H_    0.809870 0.819736 0.657191 0.225542
H30   H     H_    0.847249 0.974726 0.713087 0.226011
H31   H     H_    0.796230 0.753376 0.758138 0.191197
H32   H     H_    0.867495 0.716842 0.785000 0.198694
H33   H     H_    0.859886 0.459151 0.706885 0.178706
H34   H     H_    0.788645 0.492152 0.687843 0.182325
C67   C     C_3   0.301939 0.071675 0.232273 -0.391224
C68   C     C_3   0.341175 0.050343 0.192668 -0.295007
C69   C     C_3   0.335817 0.211393 0.149440 -0.777887
H35   H     H_    0.345747 0.343900 0.173764 0.226667
H36   H     H_    0.364176 0.191457 0.120890 0.220631
H37   H     H_    0.294052 0.218667 0.121045 0.226845
H38   H     H_    0.383436 0.044572 0.219731 0.192331
H39   H     H_    0.332412 0.918899 0.167420 0.198659
H40   H     H_    0.260466 0.070089 0.203502 0.184473
H41   H     H_    0.307837 0.208142 0.254937 0.172217
C70   C     C_3   0.174725 0.001263 0.275162 -0.384699
C71   C     C_3   0.167043 0.203561 0.254262 -0.301730
C72   C     C_3   0.156466 0.329020 0.302627 -0.778961
H42   H     H_    0.118289 0.288578 0.313837 0.229422
H43   H     H_    0.190238 0.319691 0.342813 0.225546
H44   H     H_    0.152757 0.474629 0.286970 0.226015
H45   H     H_    0.203694 0.253323 0.241800 0.191247
H46   H     H_    0.132421 0.216764 0.215078 0.198678
H47   H     H_    0.140131 0.959027 0.293142 0.178695
H48   H     H_    0.211367 0.992122 0.312152 0.182372
C73   C     C_3   0.199993 0.570422 0.863309 -0.366466
C74   C     C_3   0.258966 0.538026 0.896381 -0.298608
C75   C     C_3   0.291708 0.716109 0.900154 -0.724013
H49   H     H_    0.291739 0.765692 0.855226 0.258848
H50   H     H_    0.274479 0.825249 0.923512 0.224811
H51   H     H_    0.334027 0.689658 0.924843 0.209546
H52   H     H_    0.260621 0.488420 0.941763 0.188767
H53   H     H_    0.277770 0.431275 0.873796 0.208270
H54   H     H_    0.197221 0.631598 0.819241 0.205065
H55   H     H_    0.182893 0.677119 0.887799 0.167186
C76   C     C_3   0.300835 0.920394 0.635816 -0.366981
C77   C     C_3   0.241702 0.946203 0.602158 -0.296917
C78   C     C_3   0.210351 0.765489 0.599632 -0.723573
H56   H     H_    0.228882 0.655709 0.577818 0.225109
H57   H     H_    0.210027 0.719814 0.644862 0.261438
H58   H     H_    0.168039 0.786722 0.574058 0.208620
H59   H     H_    0.221792 0.052861 0.623572 0.207161
H60   H     H_    0.239955 0.992736 0.556443 0.188512
H61   H     H_    0.318776 0.815208 0.611663 0.161651
H62   H     H_    0.304002 0.860470 0.680143 0.206306
C79   C     C_3   0.800004 0.070423 0.136687 -0.366468
C80   C     C_3   0.741031 0.038026 0.103614 -0.298607
C81   C     C_3   0.708289 0.216109 0.099839 -0.724014
H63   H     H_    0.708258 0.265694 0.144766 0.258847
H64   H     H_    0.725519 0.325247 0.076481 0.224811
H65   H     H_    0.665971 0.189657 0.075149 0.209546
H66   H     H_    0.739378 0.988417 0.058232 0.188767
H67   H     H_    0.722227 0.931276 0.126198 0.208270
H68   H     H_    0.802775 0.131598 0.180755 0.205066
H69   H     H_    0.817104 0.177120 0.112198 0.167187
C82   C     C_3   0.699166 0.420397 0.364183 -0.366984
C83   C     C_3   0.758299 0.446212 0.397841 -0.296905
C84   C     C_3   0.789650 0.265494 0.400376 -0.723586
H70   H     H_    0.771119 0.155728 0.422196 0.225104
H71   H     H_    0.789973 0.219794 0.355148 0.261435
H72   H     H_    0.831962 0.286733 0.425949 0.208621
H73   H     H_    0.778209 0.552857 0.376422 0.207161
H74   H     H_    0.760045 0.492768 0.443554 0.188508
H75   H     H_    0.681226 0.315212 0.388338 0.161652
H76   H     H_    0.695999 0.360470 0.319857 0.206306
C85   C     C_3   0.063506 0.905969 0.843065 -0.327908
C86   C     C_3   0.059707 0.786942 0.787695 -0.343882
C87   C     C_3   0.015943 0.639230 0.781847 -0.751552
H77   H     H_    0.024501 0.548446 0.821374 0.232975
H78   H     H_    0.975746 0.704742 0.776723 0.222557
H79   H     H_    0.014878 0.552617 0.742397 0.218930
H80   H     H_    0.049951 0.875899 0.747714 0.201911
H81   H     H_    0.098620 0.715403 0.790385 0.200033
H82   H     H_    0.076372 0.815099 0.882347 0.185954
H83   H     H_    0.022061 0.957877 0.840600 0.181398
C88   C     C_3   0.424107 0.612502 0.651530 -0.347104
C89   C     C_3   0.483308 0.587434 0.685269 -0.287384
C90   C     C_3   0.512626 0.773374 0.694333 -0.753015
H84   H     H_    0.511024 0.840302 0.651274 0.247759
H85   H     H_    0.493815 0.866839 0.721236 0.222735
H86   H     H_    0.555537 0.752602 0.717679 0.205069
H87   H     H_    0.485075 0.525093 0.729134 0.185959
H88   H     H_    0.504646 0.493286 0.661198 0.190988
H89   H     H_    0.420474 0.679948 0.608203 0.187976
H90   H     H_    0.405931 0.713565 0.676842 0.161562
C91   C     C_3   0.936492 0.405969 0.156934 -0.327914
C92   C     C_3   0.940289 0.286940 0.212303 -0.343878
C93   C     C_3   0.984054 0.139228 0.218154 -0.751540
H91   H     H_    0.975500 0.048451 0.178626 0.232968
H92   H     H_    0.024251 0.204742 0.223285 0.222552
H93   H     H_    0.985114 0.052607 0.257601 0.218934
H94   H     H_    0.950042 0.375895 0.252285 0.201914
H95   H     H_    0.901376 0.215399 0.209611 0.200032
H96   H     H_    0.923628 0.315100 0.117652 0.185954
H97   H     H_    0.977937 0.457876 0.159401 0.181394
C94   C     C_3   0.575898 0.112518 0.348477 -0.347106
C95   C     C_3   0.516696 0.087480 0.314741 -0.287381
C96   C     C_3   0.487386 0.273437 0.305683 -0.752978
H98   H     H_    0.489001 0.340379 0.348743 0.247762
H99   H     H_    0.506193 0.366882 0.278770 0.222728
H100  H     H_    0.444470 0.252687 0.282349 0.205047
H101  H     H_    0.514923 0.025143 0.270875 0.185951
H102  H     H_    0.495355 0.993340 0.338812 0.191001
H103  H     H_    0.579537 0.179955 0.391807 0.187966
H104  H     H_    0.594076 0.213580 0.323166 0.161563

loop_
_geom_bond_atom_site_label_1
_geom_bond_atom_site_label_2
_ccdc_geom_bond_type
O17   V3    S    
C69   H37   S    
C43   C47   A    
C88   C89   S    
C48   C52   A    
O1    C5    A    
C78   H56   S    
C23   H11   S    
C64   H34   S    
C34   C38   A    
O13   V1    S    
C39   C79   S    
C33   C37   A    
C76   C77   S    
C10   C14   A    
N4    N8    A    
C82   C83   S    
O15   V3    S    
C95   C96   S    
C10   C30   A    
C84   H71   S    
C35   C39   A    
C62   C63   S    
C9    C29   A    
C69   H35   S    
C81   H64   S    
C90   H84   S    
O7    C3    A    
C67   H41   S    
C18   C22   A    
C3    C54   S    
C27   C67   S    
O9    V1    S    
C77   C78   S    
C63   H23   S    
C47   H19   S    
C92   H94   S    
C93   H92   S    
C68   H39   S    
O4    C8    A    
C51   C55   A    
C7    C17   S    
C75   H50   S    
C77   H60   S    
C50   C54   A    
C70   C71   S    
O1    V3    S    
C96   H100  S    
C85   H82   S    
C83   C84   S    
O2    V4    S    
C14   H6    S    
C40   C82   S    
O3    V1    S    
C80   C81   S    
C12   H4    S    
C71   H46   S    
C46   C50   A    
C37   C73   S    
C20   C24   A    
O3    C7    A    
C1    O15   A    
C86   H81   S    
C61   H27   S    
C94   C95   S    
C2    O16   A    
C63   H22   S    
C23   C27   A    
C89   H87   S    
C34   H14   S    
C66   H30   S    
C34   C54   A    
C24   C28   A    
C33   H13   S    
O14   V2    S    
C11   C31   A    
C76   H61   S    
C62   H24   S    
C36   H16   S    
C87   H79   S    
C16   C20   A    
C70   H47   S    
C86   C87   S    
C79   H68   S    
C38   C76   S    
O12   C8    A    
C79   C80   S    
C82   H76   S    
C75   H51   S    
N1    N5    A    
C88   H89   S    
C77   H59   S    
C45   C49   A    
O10   V2    S    
C13   C17   A    
C26   C64   S    
C72   H43   S    
O16   V4    S    
C72   H42   S    
C81   H65   S    
O5    V1    S    
C90   H85   S    
C8    C18   S    
C27   C31   A    
C44   C59   S    
O7    V3    S    
C74   H53   S    
C26   C30   A    
C65   H32   S    
C31   C32   S    
O8    V4    S    
C42   C57   S    
C48   H20   S    
C64   C65   S    
C46   H18   S    
C93   H93   S    
C91   H96   S    
C68   H38   S    
C21   H9    S    
C92   C93   S    
C84   H72   S    
C22   C26   A    
N1    C58   A    
C42   C46   A    
C35   C55   A    
C9    H1    S    
C85   H83   S    
N8    C60   A    
C73   H54   S    
N3    C60   A    
C4    O14   A    
C11   H3    S    
C93   H91   S    
O5    C1    A    
C71   H45   S    
C95   H102  S    
C91   H97   S    
C38   C42   A    
C49   C53   A    
C81   H63   S    
C37   C41   A    
O8    C4    A    
C52   C94   S    
C22   H10   S    
C96   H98   S    
C4    C53   S    
O9    C5    A    
C62   H25   S    
C41   C58   S    
C76   H62   S    
C74   C75   S    
C14   C18   A    
C70   H48   S    
O6    V2    S    
C79   H69   S    
C29   C30   S    
C1    C56   S    
C25   C61   S    
C67   C68   S    
C51   C91   S    
C83   H74   S    
C88   H90   S    
C94   H103  S    
O12   V4    S    
C21   C25   A    
C28   C32   A    
C80   H67   S    
C5    C19   S    
C72   H44   S    
C11   C15   A    
C94   H104  S    
C6    C20   S    
C61   C62   S    
N6    C58   A    
C90   H86   S    
C69   H36   S    
N5    C57   A    
C47   C51   A    
C3    O13   A    
C45   H17   S    
C64   H33   S    
C10   H2    S    
N7    C59   A    
C49   C85   S    
C44   C48   A    
C71   C72   S    
C82   H75   S    
C36   C56   A    
N4    C59   A    
C12   C32   A    
O11   V3    S    
C68   C69   S    
O18   V4    S    
C28   C70   S    
C78   H58   S    
C67   H40   S    
C73   H55   S    
C9    C13   A    
O10   C6    A    
O20   V2    S    
C74   H52   S    
C36   C40   A    
C92   H95   S    
O2    C6    A    
C40   C44   A    
C35   H15   S    
C15   C19   A    
C84   H70   S    
C66   H28   S    
O19   V1    S    
C91   C92   S    
C52   C56   A    
O11   C7    A    
C96   H99   S    
C65   H31   S    
N2    N6    A    
C19   C23   A    
C25   C29   A    
C2    C55   S    
O4    V2    S    
C17   C21   A    
C12   C16   A    
O6    C2    A    
C87   H77   S    
C39   C43   A    
C86   H80   S    
C24   H12   S    
C61   H26   S    
C89   C90   S    
C78   H57   S    
C85   C86   S    
C89   H88   S    
C75   H49   S    
C66   H29   S    
C13   H5    S    
C43   C60   S    
N2    C57   A    
N3    N7    A    
C50   C88   S    
C63   H21   S    
C73   C74   S    
C95   H101  S    
C15   H7    S    
C80   H66   S    
C83   H73   S    
C41   C45   A    
C16   H8    S    
C65   C66   S    
C87   H78   S    
C33   C53   A    
