data_mof_unit_22651.cif
_audit_creation_date              2012-12-10T18:57:13-0500
_audit_creation_method            fapswitch 2.2
_symmetry_space_group_name_H-M    P1
_symmetry_Int_Tables_number       1
_space_group_crystal_system       triclinic
_cell_length_a                    8.730097
_cell_length_b                    10.81716
_cell_length_c                    9.556582
_cell_angle_alpha                 89.725385
_cell_angle_beta                  97.823932
_cell_angle_gamma                 90.136021
_cell_volume                      894.061751879

loop_
_atom_site_label
_atom_site_type_symbol
_atom_type_description
_atom_site_fract_x
_atom_site_fract_y
_atom_site_fract_z
_atom_type_partial_charge
C1    C     C_R   0.496972 0.262434 0.499535 0.798398
C2    C     C_R   0.557504 0.598763 0.932801 0.262197
C3    C     C_3   0.718218 0.648229 0.946084 -0.503935
C4    C     C_R   0.203968 0.499200 0.463942 0.881976
C5    C     C_3   0.718492 0.648237 0.104953 -0.505449
C6    C     C_R   0.500361 0.737456 0.499574 0.801336
C7    C     C_R   0.796113 0.499833 0.536179 0.883391
C8    C     C_2   0.038256 0.497179 0.444360 -0.367798
C9    C     C_2   0.962005 0.500228 0.556218 -0.376253
C10   C     C_R   0.402695 0.061838 0.582115 0.122500
C11   C     C_R   0.488049 0.129168 0.494466 -0.117790
C12   C     C_R   0.556571 0.936358 0.389883 -0.214102
C13   C     C_R   0.555011 0.065363 0.390016 -0.212482
C14   C     C_3   0.227274 0.115143 0.759384 -0.858579
C15   C     C_R   0.493029 0.870455 0.495278 -0.087807
C16   C     C_R   0.409014 0.935044 0.584773 0.073666
C17   C     C_3   0.401059 0.927505 0.739551 -0.452727
C18   C     C_3   0.387514 0.068672 0.735786 -0.046592
C19   C     C_R   0.557507 0.598842 0.080075 0.264795
C20   C     C_R   0.429314 0.408593 0.066126 -0.077509
C21   C     C_R   0.429595 0.408661 0.917546 -0.092475
Cu1   Cu    Cu3+1 0.499990 0.499980 0.640670 0.935146
Cu2   Cu    Cu3+1 0.500010 0.500020 0.359330 0.939849
H1    H     H_    0.978900 0.492682 0.337124 0.165922
H2    H     H_    0.296064 0.877535 0.763249 0.202804
H3    H     H_    0.511206 0.894580 0.800226 0.173188
H4    H     H_    0.485734 0.117259 0.799087 0.169849
H5    H     H_    0.374228 0.333286 0.115059 0.143655
H6    H     H_    0.218842 0.116080 0.874232 0.230843
H7    H     H_    0.208300 0.210090 0.716110 0.234142
H8    H     H_    0.133812 0.055353 0.705404 0.244180
H9    H     H_    0.375470 0.333659 0.856007 0.149495
H10   H     H_    0.801590 0.581363 0.911115 0.218753
H11   H     H_    0.722664 0.742587 0.900318 0.187480
H12   H     H_    0.801783 0.581267 0.160520 0.213703
H13   H     H_    0.723704 0.742595 0.150718 0.186276
H14   H     H_    0.021635 0.503675 0.663712 0.173651
H15   H     H_    0.613011 0.114694 0.313346 0.161156
H16   H     H_    0.614628 0.888844 0.312677 0.150475
N1    N     N_R   0.500980 0.500930 0.148050 -0.188081
N2    N     N_R   0.500990 0.500890 0.852140 -0.186835
O1    O     O_R   0.500000 0.319640 0.618810 -0.590426
O2    O     O_R   0.500020 0.319680 0.381230 -0.590537
O3    O     O_R   0.274830 0.499980 0.591380 -0.579704
O4    O     O_R   0.274850 0.500020 0.353800 -0.585718
O5    O     O_R   0.499980 0.680320 0.618770 -0.583255
O6    O     O_R   0.500000 0.680360 0.381190 -0.584741
O7    O     O_R   0.725150 0.499980 0.646200 -0.588436
O8    O     O_R   0.725170 0.500020 0.408620 -0.577602

loop_
_geom_bond_atom_site_label_1
_geom_bond_atom_site_label_2
_ccdc_geom_bond_type
Cu1   O7    S    
C5    C19   S    
C6    O5    A    
C14   C18   S    
C1    C11   S    
C12   C15   A    
C14   H8    S    
C4    C8    S    
C17   H2    S    
C7    O7    A    
C12   H16   S    
C9    H14   S    
C2    C3    S    
C2    C19   A    
C10   C11   A    
C10   C16   A    
C12   C13   A    
C11   C13   A    
C13   H15   S    
Cu1   O1    S    
C4    O3    A    
C14   H7    S    
Cu2   O4    S    
C17   H3    S    
C5    H12   S    
C8    H1    S    
C10   C18   S    
C17   C18   S    
C4    O4    A    
C20   N1    A    
C21   H9    S    
C21   N2    A    
Cu2   O8    S    
Cu1   N2    S    
Cu2   O6    S    
C19   N1    A    
C3    H10   S    
C2    N2    A    
C15   C16   A    
C5    H13   S    
C1    O1    A    
Cu2   O2    S    
C20   C21   A    
C7    O8    A    
C6    O6    A    
C7    C9    S    
Cu1   Cu2   S    
C16   C17   S    
C20   H5    S    
C3    H11   S    
Cu1   O5    S    
C6    C15   S    
C1    O2    A    
Cu1   O3    S    
C18   H4    S    
Cu2   N1    S    
C14   H6    S    
C8    C9    D    
C3    C5    S    
