data_mof_unit_10776.cif
_audit_creation_date              2012-12-10T17:43:35-0500
_audit_creation_method            fapswitch 2.2
_symmetry_space_group_name_H-M    P1
_symmetry_Int_Tables_number       1
_space_group_crystal_system       triclinic
_cell_length_a                    14.909304
_cell_length_b                    10.535457
_cell_length_c                    9.962966
_cell_angle_alpha                 91.636056
_cell_angle_beta                  89.268812
_cell_angle_gamma                 91.174968
_cell_volume                      1563.86319701

loop_
_atom_site_label
_atom_site_type_symbol
_atom_type_description
_atom_site_fract_x
_atom_site_fract_y
_atom_site_fract_z
_atom_type_partial_charge
C1    C     C_R   0.517107 0.262792 0.498509 0.962397
C2    C     C_R   0.907908 0.626720 0.519553 -0.009611
C3    C     C_R   0.945780 0.278035 0.466264 -0.220048
C4    C     C_R   0.038588 0.272056 0.467076 0.123629
C5    C     C_R   0.090475 0.384444 0.491100 0.050705
C6    C     C_R   0.046749 0.503771 0.503274 -0.033441
C7    C     C_R   0.096897 0.618649 0.516448 0.050045
C8    C     C_R   0.053013 0.733611 0.538431 -0.250190
C9    C     C_R   0.960247 0.738445 0.546142 0.314044
C10   C     C_R   0.184290 0.383124 0.503035 0.199734
C11   C     C_R   0.232078 0.498621 0.503475 -0.137060
C12   C     C_R   0.327483 0.498101 0.500887 1.003309
C13   C     C_R   0.190465 0.615755 0.510104 0.000425
C14   C     C_R   0.583066 0.119855 0.737979 0.320273
C15   C     C_R   0.564106 0.067871 0.862568 -0.142026
C16   C     C_R   0.507391 0.962258 0.871267 -0.176170
C17   C     C_R   0.475769 0.901589 0.754899 -0.105942
C18   C     C_R   0.500224 0.947218 0.627145 0.047647
C19   C     C_R   0.542781 0.066544 0.620146 0.027315
C20   C     C_R   0.540532 0.128989 0.496615 -0.213959
C21   C     C_R   0.527445 0.058955 0.376121 0.124178
C22   C     C_R   0.487273 0.939671 0.382598 0.273603
C23   C     C_R   0.490332 0.740664 0.502040 0.943375
C24   C     C_R   0.483436 0.878262 0.505944 -0.205421
C25   C     C_R   0.350612 0.390250 0.132772 0.331727
C26   C     C_R   0.270898 0.380268 0.061118 -0.265639
C27   C     C_R   0.276207 0.364465 0.922264 0.080173
C28   C     C_R   0.358887 0.381848 0.858410 -0.079536
C29   C     C_R   0.430225 0.442134 0.926839 0.058581
C30   C     C_R   0.428577 0.443646 0.070661 0.062963
C31   C     C_R   0.567605 0.556289 0.071834 0.162740
C32   C     C_R   0.567069 0.555833 0.928474 -0.091751
C33   C     C_R   0.672484 0.502600 0.499175 0.942808
C34   C     C_R   0.813331 0.625765 0.509308 0.228229
C35   C     C_R   0.767654 0.508658 0.497466 -0.107904
C36   C     C_R   0.811225 0.394796 0.483791 -0.235348
C37   C     C_R   0.903319 0.393590 0.484543 0.121102
C38   C     C_R   0.952703 0.508346 0.502462 -0.000769
H1    H     H_    0.593944 0.108986 0.952631 0.170231
H2    H     H_    0.490847 0.924092 0.967794 0.205699
H3    H     H_    0.430730 0.820745 0.766334 0.172444
H4    H     H_    0.209231 0.351521 0.111690 0.182227
H5    H     H_    0.366795 0.344695 0.758167 0.233572
H6    H     H_    0.772698 0.306729 0.470883 0.168163
H7    H     H_    0.621136 0.602277 0.874085 0.164860
H8    H     H_    0.906660 0.191239 0.448833 0.185965
H9    H     H_    0.090644 0.821293 0.555830 0.177881
N1    N     N_R   0.499150 0.498800 0.142780 -0.110547
N2    N     N_R   0.499120 0.498720 0.857170 -0.118215
O1    O     O_R   0.500000 0.316780 0.614690 -0.617674
O2    O     O_R   0.499990 0.316750 0.385360 -0.570054
O3    O     O_R   0.367850 0.499980 0.614680 -0.646124
O4    O     O_R   0.367840 0.499960 0.385350 -0.598452
O5    O     O_R   0.500010 0.683250 0.614640 -0.628203
O6    O     O_R   0.500000 0.683220 0.385310 -0.580674
O7    O     O_R   0.632160 0.500040 0.614650 -0.581171
O8    O     O_R   0.632150 0.500020 0.385320 -0.609173
Zn1   Zn    Zn3+2 0.500010 0.500020 0.653130 0.981519
Zn2   Zn    Zn3+2 0.499990 0.499980 0.346870 1.020967
Br1   Br    Br    0.742161 0.775809 0.487689 -0.474981
Br2   Br    Br    0.677802 0.245028 0.733372 -0.510694
Br3   Br    Br    0.426210 0.871316 0.225655 -0.513018
N3    N     N_3   0.639271 0.619347 0.143222 -0.380363
H10   H     H_    0.690387 0.646857 0.076695 0.173070
H11   H     H_    0.613722 0.702879 0.186179 0.230182
Br4   Br    Br    0.356612 0.238163 0.230049 -0.401996
N4    N     N_3   0.200052 0.320561 0.847121 -0.404842
H12   H     H_    0.148941 0.386061 0.862453 0.200017
H13   H     H_    0.177851 0.234041 0.885806 0.223364
N5    N     N_3   0.078557 0.152551 0.434010 -0.378695
H14   H     H_    0.056159 0.121512 0.339350 0.202384
H15   H     H_    0.056294 0.086691 0.504161 0.236517
Br5   Br    Br    0.249879 0.230042 0.537804 -0.478876
N6    N     N_3   0.245081 0.730073 0.513572 -0.456638
H16   H     H_    0.235011 0.778304 0.605501 0.200930
H17   H     H_    0.226491 0.787564 0.435171 0.233227
Br6   Br    Br    0.916920 0.898561 0.615902 -0.469183
N7    N     N_3   0.550718 0.110213 0.247461 -0.361824
H18   H     H_    0.580565 0.038164 0.189187 0.186567
H19   H     H_    0.602852 0.177254 0.260189 0.187424

loop_
_geom_bond_atom_site_label_1
_geom_bond_atom_site_label_2
_ccdc_geom_bond_type
N3    H11   S    
O6    Zn2   S    
C32   H7    S    
C19   C20   A    
C4    N5    S    
O4    Zn2   S    
C7    C8    A    
C29   N2    A    
C26   C27   A    
C29   C30   A    
N6    H17   S    
N1    Zn2   S    
C18   C24   A    
C30   N1    A    
C36   C37   A    
C34   C35   A    
C5    C6    A    
C10   Br5   S    
N7    H19   S    
O8    Zn2   S    
C15   C16   A    
C18   C19   A    
C35   C36   A    
C16   C17   A    
C21   N7    S    
C23   C24   S    
C6    C38   A    
N5    H14   S    
C1    O1    A    
C12   O4    A    
C2    C34   A    
C33   O7    A    
C21   C22   A    
C34   Br1   S    
C12   O3    A    
N6    H16   S    
N4    H12   S    
O1    Zn1   S    
C31   N3    S    
N7    H18   S    
C8    C9    A    
C25   C26   A    
C14   Br2   S    
N2    Zn1   S    
N4    H13   S    
C37   C38   A    
C22   Br3   S    
C2    C38   A    
C31   C32   A    
C17   C18   A    
C9    Br6   S    
C20   C21   A    
C1    O2    A    
C15   H1    S    
O3    Zn1   S    
C16   H2    S    
C31   N1    A    
C22   C24   A    
C36   H6    S    
O2    Zn2   S    
C3    C4    A    
C26   H4    S    
C23   O5    A    
O5    Zn1   S    
C25   C30   A    
C28   C29   A    
C1    C20   S    
C33   O8    A    
C28   H5    S    
C14   C19   A    
C25   Br4   S    
C4    C5    A    
C11   C12   S    
C23   O6    A    
C6    C7    A    
C3    H8    S    
C8    H9    S    
C5    C10   A    
C11   C13   A    
C33   C35   S    
O7    Zn1   S    
C17   H3    S    
C32   N2    A    
C27   N4    S    
C10   C11   A    
N3    H10   S    
C7    C13   A    
C13   N6    S    
C3    C37   A    
C27   C28   A    
C14   C15   A    
N5    H15   S    
C2    C9    A    
