data_mof_unit_24993.cif
_audit_creation_date              2012-12-11T15:07:37-0500
_audit_creation_method            fapswitch 2.2
_symmetry_space_group_name_H-M    P1
_symmetry_Int_Tables_number       1
_space_group_crystal_system       triclinic
_cell_length_a                    21.718595
_cell_length_b                    7.196746
_cell_length_c                    18.633241
_cell_angle_alpha                 90.000141
_cell_angle_beta                  95.879445
_cell_angle_gamma                 90.000039
_cell_volume                      2897.11492517

loop_
_atom_site_label
_atom_site_type_symbol
_atom_type_description
_atom_site_fract_x
_atom_site_fract_y
_atom_site_fract_z
_atom_type_partial_charge
O1    O     O_R   0.449650 0.506500 0.414480 -0.538119
O2    O     O_R   0.550350 0.006500 0.585520 -0.538121
O3    O     O_R   0.432010 0.173150 0.560250 -0.547744
O4    O     O_R   0.567990 0.673150 0.439750 -0.547743
C1    C     C_R   0.417354 0.344580 0.582623 0.776013
C2    C     C_R   0.582646 0.844580 0.417377 0.776013
O5    O     O_R   0.442320 0.176650 0.413480 -0.533903
O6    O     O_R   0.557680 0.676650 0.586520 -0.533902
O7    O     O_R   0.560730 0.008380 0.437700 -0.499805
O8    O     O_R   0.439270 0.508380 0.562300 -0.499804
C3    C     C_R   0.428152 0.345413 0.387932 0.807047
C4    C     C_R   0.571848 0.845414 0.612068 0.807048
O9    O     O_3   0.538840 0.339860 0.508120 -0.379039
O10   O     O_3   0.461160 0.839860 0.491880 -0.379039
V1    V     V_3+5 0.492800 0.064220 0.498490 1.531749
V2    V     V_3+5 0.507200 0.564220 0.501510 1.531753
C5    C     C_R   0.871620 0.025500 0.692492 0.185952
C6    C     C_R   0.128381 0.525515 0.307507 0.185952
H1    H     H_    0.954936 0.077183 0.762595 0.127575
H2    H     H_    0.045065 0.577198 0.237404 0.127575
H3    H     H_    0.792323 0.987366 0.572899 0.140240
H4    H     H_    0.207678 0.487390 0.427100 0.140240
C7    C     C_R   0.886269 0.945193 0.819793 -0.110292
C8    C     C_R   0.113731 0.445196 0.180207 -0.110293
C9    C     C_R   0.587010 0.851393 0.743682 -0.233518
C10   C     C_R   0.412989 0.351380 0.256318 -0.233518
C11   C     C_R   0.621203 0.889448 0.808975 -0.203181
C12   C     C_R   0.378796 0.389431 0.191024 -0.203180
C13   C     C_R   0.685075 0.923595 0.812485 0.379352
C14   C     C_R   0.314925 0.423582 0.187515 0.379352
C15   C     C_R   0.716656 0.900042 0.749901 -0.009075
C16   C     C_R   0.283344 0.400040 0.250099 -0.009075
C17   C     C_R   0.680128 0.884132 0.681351 -0.022659
C18   C     C_R   0.319872 0.384135 0.318649 -0.022659
C19   C     C_R   0.783010 0.913513 0.752676 0.047624
C20   C     C_R   0.216990 0.413515 0.247324 0.047623
C21   C     C_R   0.809009 0.966593 0.688828 0.035714
C22   C     C_R   0.190992 0.466605 0.311172 0.035714
C23   C     C_R   0.772283 0.957828 0.622445 -0.251352
C24   C     C_R   0.227717 0.457845 0.377555 -0.251353
C25   C     C_R   0.709776 0.905770 0.617600 0.325585
C26   C     C_R   0.290225 0.405783 0.382400 0.325585
C27   C     C_R   0.824987 0.875319 0.815708 0.142665
C28   C     C_R   0.175012 0.375317 0.184293 0.142664
C29   C     C_R   0.907956 0.024178 0.758862 -0.195316
C30   C     C_R   0.092045 0.524189 0.241137 -0.195314
C31   C     C_R   0.614609 0.855670 0.679298 -0.075983
C32   C     C_R   0.385390 0.355668 0.320702 -0.075984
H5    H     H_    0.537513 0.830890 0.742889 0.134951
H6    H     H_    0.462486 0.330873 0.257111 0.134953
H7    H     H_    0.597073 0.900563 0.856858 0.116667
H8    H     H_    0.402926 0.400537 0.143141 0.116667
C33   C     C_R   0.629019 0.008060 0.315723 0.339911
C34   C     C_R   0.370980 0.508061 0.684277 0.339911
C35   C     C_R   0.629972 0.857882 0.364795 -0.157539
C36   C     C_R   0.370028 0.357882 0.635205 -0.157540
C37   C     C_R   0.675844 0.721087 0.363288 -0.227392
C38   C     C_R   0.324156 0.221087 0.636711 -0.227389
C39   C     C_R   0.722385 0.734693 0.315985 0.026990
C40   C     C_R   0.277615 0.234693 0.684015 0.026989
C41   C     C_R   0.723446 0.890372 0.269705 -0.048676
C42   C     C_R   0.276554 0.390372 0.730295 -0.048677
C43   C     C_R   0.677389 0.028858 0.270500 0.017136
C44   C     C_R   0.322610 0.528859 0.729500 0.017136
C45   C     C_R   0.767832 0.595084 0.314839 0.250898
C46   C     C_R   0.232168 0.095083 0.685161 0.250900
C47   C     C_R   0.816593 0.616200 0.270016 0.299790
C48   C     C_R   0.183407 0.116199 0.729984 0.299791
C49   C     C_R   0.816779 0.769640 0.222780 0.059962
C50   C     C_R   0.183221 0.269640 0.777220 0.059962
C51   C     C_R   0.770446 0.907628 0.222559 -0.116513
C52   C     C_R   0.229554 0.407628 0.777440 -0.116512
C53   C     C_R   0.771752 0.064347 0.176121 0.006315
C54   C     C_R   0.228248 0.564347 0.823879 0.006315
C55   C     C_R   0.728694 0.209982 0.182237 0.353554
C56   C     C_R   0.271306 0.709983 0.817763 0.353555
C57   C     C_R   0.681990 0.189488 0.228532 -0.271240
C58   C     C_R   0.318010 0.689489 0.771468 -0.271239
C59   C     C_R   0.864037 0.789497 0.177071 -0.187271
C60   C     C_R   0.135964 0.289496 0.822929 -0.187271
C61   C     C_R   0.865168 0.939924 0.129303 -0.172624
C62   C     C_R   0.134832 0.439923 0.870697 -0.172624
C63   C     C_R   0.817630 0.073782 0.126647 0.369937
C64   C     C_R   0.182370 0.573783 0.873352 0.369937
H9    H     H_    0.675663 0.605027 0.400293 0.205018
H10   H     H_    0.324337 0.105027 0.599706 0.205018
H11   H     H_    0.900532 0.686560 0.178237 0.188118
H12   H     H_    0.099469 0.186559 0.821763 0.188118
H13   H     H_    0.650640 0.304600 0.233320 0.136752
H14   H     H_    0.349359 0.804602 0.766680 0.136751
O11   O     O_R   0.060820 0.290050 0.937800 -0.549313
O12   O     O_R   0.939180 0.790050 0.062200 -0.549313
O13   O     O_R   0.057690 0.616620 0.086540 -0.537479
O14   O     O_R   0.942310 0.116620 0.913460 -0.537478
C65   C     C_R   0.071883 0.448748 0.112199 0.708225
C66   C     C_R   0.928117 0.948747 0.887801 0.708224
O15   O     O_R   0.068010 0.619890 0.939770 -0.502927
O16   O     O_R   0.931990 0.119890 0.060230 -0.502928
O17   O     O_R   0.949640 0.787940 0.914460 -0.541937
O18   O     O_R   0.050360 0.287940 0.085540 -0.541937
C67   C     C_R   0.084627 0.451081 0.919488 0.734356
C68   C     C_R   0.915373 0.951082 0.080512 0.734356
O19   O     O_3   0.961210 0.453080 0.991940 -0.371901
O20   O     O_3   0.038790 0.953080 0.008060 -0.371901
V3    V     V_3+5 0.007200 0.728820 0.001500 1.490538
V4    V     V_3+5 0.992800 0.228820 0.998500 1.490538
O21   O     O_3   0.763046 0.439110 0.357265 -0.650528
H15   H     H_    0.782387 0.332307 0.334709 0.302747
O22   O     O_3   0.236954 0.939109 0.642734 -0.650528
H16   H     H_    0.217613 0.832306 0.665289 0.302748
O23   O     O_3   0.864914 0.490646 0.271946 -0.648563
H17   H     H_    0.872274 0.438277 0.321220 0.289558
O24   O     O_3   0.135087 0.990644 0.728055 -0.648563
H18   H     H_    0.127726 0.938275 0.678780 0.289557
O25   O     O_3   0.815340 0.205974 0.072906 -0.606418
H19   H     H_    0.772208 0.208818 0.049613 0.315802
O26   O     O_3   0.184660 0.705974 0.927095 -0.606418
H20   H     H_    0.227792 0.708820 0.950387 0.315803
O27   O     O_3   0.734631 0.375482 0.145821 -0.630816
H21   H     H_    0.701775 0.463264 0.157123 0.282574
O28   O     O_3   0.265369 0.875483 0.854179 -0.630815
H22   H     H_    0.298226 0.963264 0.842879 0.282573
C69   C     C_3   0.900278 0.095948 0.627158 -0.773617
H23   H     H_    0.900907 0.983383 0.586497 0.208416
H24   H     H_    0.873326 0.216011 0.603325 0.215048
H25   H     H_    0.948783 0.142870 0.640949 0.211154
C70   C     C_3   0.099724 0.595973 0.372840 -0.773616
H26   H     H_    0.099094 0.483412 0.413503 0.208416
H27   H     H_    0.126677 0.716037 0.396671 0.215048
H28   H     H_    0.051219 0.642897 0.359049 0.211153
C71   C     C_3   0.809466 0.738946 0.873136 -0.656791
H29   H     H_    0.844277 0.625502 0.877834 0.197132
H30   H     H_    0.810227 0.809386 0.926256 0.214980
H31   H     H_    0.764231 0.669589 0.859509 0.208508
C72   C     C_3   0.190532 0.238936 0.126866 -0.656789
H32   H     H_    0.155720 0.125494 0.122171 0.197132
H33   H     H_    0.189772 0.309369 0.073746 0.214981
H34   H     H_    0.235766 0.169577 0.140495 0.208507
O29   O     O_3   0.715878 0.997914 0.874502 -0.649758
H35   H     H_    0.687123 0.007412 0.912402 0.280920
O30   O     O_3   0.284122 0.497896 0.125497 -0.649759
H36   H     H_    0.312877 0.507387 0.087596 0.280920
O31   O     O_3   0.676797 0.884489 0.550707 -0.662691
H37   H     H_    0.704515 0.903510 0.512242 0.281364
O32   O     O_3   0.323204 0.384508 0.449293 -0.662691
H38   H     H_    0.295486 0.403535 0.487758 0.281364
O33   O     O_3   0.579656 0.129978 0.312057 -0.647281
H39   H     H_    0.568399 0.163315 0.260832 0.264417
O34   O     O_3   0.420343 0.629981 0.687942 -0.647280
H40   H     H_    0.431600 0.663318 0.739167 0.264417

loop_
_geom_bond_atom_site_label_1
_geom_bond_atom_site_label_2
_ccdc_geom_bond_type
C72   H34   S    
C46   C48   A    
C7    C29   A    
C11   C13   A    
O26   H20   S    
C12   H8    S    
C1    C36   S    
O23   H17   S    
O1    C3    A    
C2    C35   S    
C71   H31   S    
O2    C4    A    
C2    O7    A    
C59   H11   S    
O32   H38   S    
C72   H32   S    
C23   C25   A    
C10   C12   A    
C58   H14   S    
O5    C3    A    
C57   H13   S    
C14   O30   S    
C54   C56   A    
C56   O28   S    
C16   C20   A    
C19   C21   A    
C56   C58   A    
C25   O31   S    
C10   H6    S    
C37   C39   A    
C38   C40   A    
O25   H19   S    
C66   O17   A    
C38   H10   S    
C33   O33   S    
C7    C27   A    
C7    C66   S    
C40   C42   A    
C49   C51   A    
C42   C44   A    
C69   H24   S    
O13   V3    S    
C5    C69   S    
O33   H39   S    
C36   C38   A    
C64   O26   S    
C45   C47   A    
C18   C26   A    
O21   H15   S    
C15   C17   A    
C19   C27   A    
C9    C31   A    
C10   C32   A    
C48   O24   S    
O15   V3    S    
C41   C51   A    
C28   C72   S    
C24   C26   A    
C40   C46   A    
O6    V2    S    
C22   C24   A    
C13   C15   A    
C53   C55   A    
O11   V4    S    
C3    C32   S    
O11   C67   A    
C4    C31   S    
O17   V3    S    
C6    C30   A    
O20   V3    S    
C61   C63   A    
C11   H7    S    
C34   O34   S    
C61   C68   S    
C33   C35   A    
C45   O21   S    
C13   O29   S    
O29   H35   S    
C34   C36   A    
C39   C41   A    
C50   C60   A    
C63   O25   S    
C69   H23   S    
C55   O27   S    
C60   C62   A    
C8    C65   S    
C54   C64   A    
C51   C53   A    
C65   O18   A    
C69   H25   S    
O5    V1    S    
C71   H30   S    
O16   C68   A    
C47   C49   A    
C16   C18   A    
O4    V2    S    
C70   H27   S    
C6    C70   S    
O15   C67   A    
H3    C23   S    
O6    C4    A    
H4    C24   S    
C41   C43   A    
C42   C52   A    
O1    V2    S    
C5    C21   A    
O14   C66   A    
O2    V1    S    
C55   C57   A    
O28   H22   S    
C52   C54   A    
C62   C64   A    
C35   C37   A    
C17   C31   A    
C15   C19   A    
C20   C28   A    
O4    C2    A    
C18   C32   A    
C70   H26   S    
O3    V1    S    
C59   C61   A    
O24   H18   S    
C43   C57   A    
C47   O23   S    
C72   H33   S    
O14   V4    S    
C44   C58   A    
C5    C29   A    
O3    C1    A    
O27   H21   S    
H1    C29   S    
O12   C68   A    
C9    C11   A    
O18   V4    S    
O16   V4    S    
C8    C30   A    
C27   C71   S    
O31   H37   S    
C6    C22   A    
C70   H28   S    
C17   C25   A    
C1    O8    A    
C60   H12   S    
O8    V2    S    
O30   H36   S    
C39   C45   A    
C20   C22   A    
C14   C16   A    
C33   C43   A    
O13   C65   A    
C34   C44   A    
C8    C28   A    
C12   C14   A    
C62   C67   S    
C37   H9    S    
O19   V4    S    
C46   O22   S    
O7    V1    S    
C9    H5    S    
C49   C59   A    
O12   V3    S    
C21   C23   A    
C48   C50   A    
O9    V2    S    
O22   H16   S    
O10   V1    S    
C50   C52   A    
O34   H40   S    
C26   O32   S    
C53   C63   A    
H2    C30   S    
C71   H29   S    
