data_mof_unit_32380.cif
_audit_creation_date              2012-12-10T17:31:07-0500
_audit_creation_method            fapswitch 2.2
_symmetry_space_group_name_H-M    P1
_symmetry_Int_Tables_number       1
_space_group_crystal_system       triclinic
_cell_length_a                    12.001063
_cell_length_b                    12.856138
_cell_length_c                    15.620389
_cell_angle_alpha                 86.397116
_cell_angle_beta                  115.985486
_cell_angle_gamma                 94.661517
_cell_volume                      2158.22264682

loop_
_atom_site_label
_atom_site_type_symbol
_atom_type_description
_atom_site_fract_x
_atom_site_fract_y
_atom_site_fract_z
_atom_type_partial_charge
C1    C     C_R   0.477222 0.299360 0.501108 0.927706
C2    C     C_R   0.593086 0.975755 0.433121 -0.077100
C3    C     C_R   0.403670 0.133333 0.556908 -0.089730
C4    C     C_R   0.596327 0.866670 0.443075 -0.089981
C5    C     C_R   0.521882 0.134936 0.463341 -0.221794
C6    C     C_R   0.478180 0.865064 0.536700 -0.221806
C7    C     C_R   0.528649 0.027839 0.473586 0.084630
C8    C     C_R   0.471460 0.972168 0.526498 0.084837
C9    C     C_R   0.000250 0.592815 0.404780 -0.283395
C10   C     C_R   0.999749 0.407184 0.595219 -0.283286
C11   C     C_R   0.121732 0.584753 0.414936 0.027799
C12   C     C_R   0.522773 0.700639 0.498880 0.928195
C13   C     C_R   0.878268 0.415246 0.585063 0.027845
C14   C     C_R   0.162560 0.461009 0.542451 0.005939
C15   C     C_R   0.837441 0.538990 0.457549 0.005637
C16   C     C_R   0.576563 0.494342 0.680074 0.917972
C17   C     C_R   0.423434 0.505641 0.319925 0.918288
C18   C     C_R   0.041094 0.466578 0.534936 0.081758
C19   C     C_R   0.958906 0.533420 0.465063 0.081707
C20   C     C_R   0.623925 0.492404 0.783291 -0.043311
C21   C     C_R   0.376058 0.507508 0.216708 -0.043386
C22   C     C_R   0.788164 0.496165 0.943306 -0.172772
C23   C     C_R   0.643204 0.463254 0.109337 -0.023134
C24   C     C_R   0.211796 0.503675 0.056703 -0.172786
C25   C     C_R   0.750809 0.498814 0.845119 -0.190523
C26   C     C_R   0.249169 0.501098 0.154891 -0.190525
C27   C     C_R   0.536778 0.486760 0.819820 -0.208556
C28   C     C_R   0.463191 0.513065 0.180170 -0.208767
C29   C     C_R   0.571539 0.500040 0.915754 0.087943
C30   C     C_R   0.428408 0.499733 0.084240 0.087970
C31   C     C_R   0.698745 0.494143 0.978914 0.162398
C32   C     C_R   0.301201 0.505637 0.021086 0.162408
C33   C     C_R   0.481613 0.509154 0.950483 0.007811
C34   C     C_R   0.356726 0.536479 0.890651 -0.023130
C35   C     C_R   0.518321 0.490586 0.049505 0.007803
C36   C     C_1   0.680166 0.408494 0.200668 0.169040
C37   C     C_1   0.319756 0.591243 0.799321 0.168932
C38   C     C_2   0.649974 0.809340 0.391818 0.934373
C39   C     C_2   0.349914 0.190679 0.608067 0.934543
C40   C     C_2   0.348936 0.966375 0.623876 0.906444
C41   C     C_2   0.651216 0.033668 0.376257 0.907107
C42   C     C_R   0.733271 0.475649 0.075398 -0.258517
C43   C     C_R   0.266664 0.524096 0.924597 -0.258550
C44   C     C_R   0.536516 0.812719 0.494158 -0.150345
C45   C     C_R   0.463485 0.187281 0.505831 -0.150297
C46   C     C_R   0.407011 0.024256 0.566953 -0.077182
H1    H     H_    0.829058 0.460558 0.122765 0.150089
H2    H     H_    0.820072 0.502366 0.817980 0.153895
H3    H     H_    0.886101 0.494006 0.991204 0.130883
H4    H     H_    0.113857 0.505839 0.008811 0.130882
H5    H     H_    0.434719 0.820084 0.576120 0.183588
H6    H     H_    0.565320 0.179907 0.423899 0.183380
H7    H     H_    0.773575 0.590344 0.404330 0.135543
H8    H     H_    0.226430 0.409659 0.595674 0.135525
H9    H     H_    0.619240 0.709927 0.288088 0.326302
H10   H     H_    0.380570 0.289805 0.711990 0.326274
H11   H     H_    0.191124 0.914661 0.632806 0.362340
H12   H     H_    0.170878 0.539189 0.877232 0.150069
H13   H     H_    0.809064 0.085842 0.367612 0.362408
H14   H     H_    0.847289 0.369632 0.632046 0.140012
H15   H     H_    0.152710 0.630367 0.367953 0.140009
H16   H     H_    0.939195 0.644879 0.350125 0.165281
H17   H     H_    0.060805 0.355120 0.649875 0.165237
H18   H     H_    0.558977 0.532661 0.227171 0.153750
H19   H     H_    0.441002 0.467147 0.772806 0.153728
H20   H     H_    0.179917 0.497602 0.182037 0.153908
N1    N     N_R   0.799120 0.480200 0.517090 -0.105919
N2    N     N_R   0.200880 0.519800 0.482910 -0.105929
N3    N     N_1   0.710048 0.364378 0.273546 -0.166526
N4    N     N_1   0.289867 0.635364 0.726446 -0.166489
O1    O     O_R   0.580150 0.341050 0.504560 -0.617275
O2    O     O_R   0.573020 0.741819 0.319892 -0.814484
O3    O     O_2   0.239091 0.178539 0.587521 -0.582836
O4    O     O_R   0.426914 0.257819 0.680332 -0.814493
O5    O     O_2   0.414441 0.927934 0.701901 -0.610027
O6    O     O_R   0.219629 0.955883 0.587751 -0.726064
O7    O     O_2   0.585758 0.071741 0.298059 -0.610041
O8    O     O_R   0.780514 0.044632 0.412647 -0.726070
O9    O     O_R   0.419850 0.658950 0.495440 -0.617335
O10   O     O_R   0.388090 0.353760 0.493600 -0.607374
O11   O     O_R   0.611910 0.646240 0.506400 -0.607275
O12   O     O_R   0.650890 0.490020 0.640860 -0.629839
O13   O     O_R   0.349110 0.509980 0.359140 -0.629835
O14   O     O_R   0.458830 0.502730 0.629890 -0.614568
O15   O     O_R   0.541170 0.497270 0.370110 -0.614469
O16   O     O_2   0.760641 0.821871 0.411939 -0.583113
Zn1   Zn    Zn3+2 0.628240 0.491510 0.507320 0.978312
Zn2   Zn    Zn3+2 0.371760 0.508490 0.492680 0.978337

loop_
_geom_bond_atom_site_label_1
_geom_bond_atom_site_label_2
_ccdc_geom_bond_type
C21   C26   A    
C31   C42   A    
C27   C29   A    
C34   C37   S    
C14   C18   A    
C2    C7    A    
C7    C8    A    
C13   H14   S    
C36   N3    T    
C15   C19   A    
C1    O1    A    
C23   C42   A    
C30   C35   A    
C38   O16   D    
C17   O15   A    
C15   H7    S    
H11   O6    S    
C24   C26   A    
C41   O7    D    
C20   C25   A    
C2    C41   S    
O12   Zn1   S    
C12   O9    A    
C29   C33   A    
C16   O14   A    
C18   C19   A    
C39   O4    S    
C43   H12   S    
C9    C19   A    
C10   H17   S    
C22   C25   A    
C5    H6    S    
C6    H5    S    
H9    O2    S    
O13   Zn2   S    
C3    C39   S    
C6    C44   A    
C37   N4    T    
H13   O8    S    
O9    Zn2   S    
O15   Zn1   S    
C24   H4    S    
C38   O2    S    
H10   O4    S    
C22   C31   A    
C9    H16   S    
C26   H20   S    
C41   O8    S    
C5    C7    A    
C6    C8    A    
C4    C44   A    
C5    C45   A    
C3    C45   A    
C17   C21   S    
C40   O6    S    
C17   O13   A    
C2    C4    A    
C24   C32   A    
C27   H19   S    
C16   C20   S    
C15   N1    A    
C16   O12   A    
C33   C34   A    
C9    C11   A    
C25   H2    S    
O11   Zn1   S    
C22   H3    S    
O1    Zn1   S    
C28   H18   S    
C14   H8    S    
C21   C28   A    
C4    C38   S    
C23   C35   A    
N2    Zn2   S    
C40   C46   S    
C11   N2    A    
C13   N1    A    
C34   C43   A    
O14   Zn2   S    
C11   H15   S    
C10   C13   A    
C20   C27   A    
C3    C46   A    
N1    Zn1   S    
C40   O5    D    
C28   C30   A    
O10   Zn2   S    
C30   C32   A    
C1    C45   S    
C10   C18   A    
C33   C35   A    
C32   C43   A    
C12   O11   A    
C42   H1    S    
C39   O3    D    
C8    C46   A    
C29   C31   A    
C23   C36   S    
C1    O10   A    
C14   N2    A    
C12   C44   S    
