data_mof_unit_25827.cif
_audit_creation_date              2013-03-05T15:49:21-0500
_audit_creation_method            fapswitch 2.2
_symmetry_space_group_name_H-M    P1
_symmetry_Int_Tables_number       1
_space_group_crystal_system       triclinic
_cell_length_a                    23.810534
_cell_length_b                    26.204208
_cell_length_c                    8.527399
_cell_angle_alpha                 89.393342
_cell_angle_beta                  99.306588
_cell_angle_gamma                 89.920004
_cell_volume                      5250.19868746

loop_
_atom_site_label
_atom_site_type_symbol
_atom_site_description
_atom_site_fract_x
_atom_site_fract_y
_atom_site_fract_z
_atom_type_partial_charge
P1    P     P_3+3 0.883430 0.443490 0.026090 0.497842
P2    P     P_3+3 0.883430 0.556510 0.526090 0.494532
P3    P     P_3+3 0.383430 0.943490 0.026090 0.491638
P4    P     P_3+3 0.383430 0.056510 0.526090 0.492122
O1    O     O_2   0.888900 0.426190 0.854560 -0.316923
O2    O     O_2   0.888900 0.573810 0.354560 -0.333138
O3    O     O_2   0.388900 0.926190 0.854560 -0.320336
O4    O     O_2   0.388900 0.073810 0.354560 -0.333535
O5    O     O_3   0.935290 0.474120 0.115310 -0.442884
O6    O     O_3   0.935290 0.525880 0.615310 -0.451218
O7    O     O_3   0.435290 0.974120 0.115310 -0.441320
O8    O     O_3   0.435290 0.025880 0.615310 -0.449806
O9    O     O_3   0.980700 0.380570 0.633410 -0.417163
O10   O     O_3   0.980700 0.619430 0.133410 -0.390670
O11   O     O_3   0.480700 0.880570 0.633410 -0.397865
O12   O     O_3   0.480700 0.119430 0.133410 -0.392041
O13   O     O_2   0.886111 0.340838 0.718423 -0.373491
O14   O     O_2   0.885084 0.659152 0.204347 -0.379013
O15   O     O_2   0.385701 0.841458 0.715354 -0.397169
O16   O     O_2   0.384120 0.157739 0.199944 -0.383480
O17   O     O_3   0.824043 0.483980 0.992491 -0.533911
O18   O     O_3   0.821692 0.519356 0.503077 -0.537200
O19   O     O_3   0.324066 0.984024 0.992447 -0.531741
O20   O     O_3   0.321767 0.019247 0.502854 -0.534953
O21   O     O_3   0.954007 0.273880 0.631828 -0.543249
O22   O     O_3   0.958655 0.725369 0.135891 -0.522429
O23   O     O_3   0.456261 0.774926 0.640207 -0.525682
O24   O     O_3   0.457758 0.225385 0.143429 -0.530368
H1    H     H_    0.027980 0.300725 0.765879 0.188155
H2    H     H_    0.041665 0.699661 0.197790 0.149845
H3    H     H_    0.537731 0.800917 0.623564 0.127826
H4    H     H_    0.540403 0.197026 0.192965 0.148944
C1    C     C_3   0.039130 0.224268 0.689566 -0.946001
C2    C     C_3   0.039512 0.777532 0.116636 -0.988548
C3    C     C_3   0.533818 0.719517 0.615070 -0.925180
C4    C     C_3   0.540224 0.277882 0.156076 -0.968343
H5    H     H_    0.025129 0.206752 0.795886 0.283154
H6    H     H_    0.039229 0.793139 0.237084 0.291381
H7    H     H_    0.545165 0.715093 0.746086 0.277796
H8    H     H_    0.542699 0.285242 0.284890 0.297499
H9    H     H_    0.025154 0.199843 0.585091 0.243311
H10   H     H_    0.013785 0.802753 0.026931 0.250434
H11   H     H_    0.503889 0.688733 0.568654 0.256532
H12   H     H_    0.513667 0.308104 0.088441 0.258822
P5    P     P_3+3 0.116320 0.442910 0.663460 0.418884
P6    P     P_3+3 0.116320 0.557090 0.163460 0.486854
P7    P     P_3+3 0.616320 0.942910 0.663460 0.423081
P8    P     P_3+3 0.616320 0.057090 0.163460 0.487140
P9    P     P_3+3 0.075452 0.335568 0.096400 0.450221
P10   P     P_3+3 0.071217 0.668225 0.597571 0.441063
P11   P     P_3+3 0.573778 0.834124 0.096192 0.458862
P12   P     P_3+3 0.570474 0.168737 0.598329 0.425617
O25   O     O_2   0.110790 0.425640 0.834940 -0.384288
O26   O     O_2   0.110790 0.574360 0.334940 -0.331016
O27   O     O_2   0.610790 0.925640 0.834940 -0.385175
O28   O     O_2   0.610790 0.074360 0.334940 -0.331631
O29   O     O_3   0.018840 0.380480 0.055970 -0.378967
O30   O     O_3   0.018840 0.619520 0.555970 -0.394299
O31   O     O_3   0.518840 0.880480 0.055970 -0.406221
O32   O     O_3   0.518840 0.119520 0.555970 -0.419794
O33   O     O_2   0.111305 0.339319 0.961044 -0.382929
O34   O     O_2   0.112643 0.661211 0.476986 -0.380711
O35   O     O_2   0.607999 0.835662 0.956621 -0.359606
O36   O     O_2   0.612570 0.161623 0.479572 -0.380199
O37   O     O_3   0.171413 0.487208 0.711736 -0.601420
O38   O     O_3   0.174244 0.515603 0.219394 -0.561904
O39   O     O_3   0.671363 0.987267 0.711512 -0.601237
O40   O     O_3   0.674407 0.015742 0.219079 -0.561274
O41   O     O_3   0.044089 0.275432 0.067943 -0.511090
O42   O     O_3   0.036518 0.725715 0.537753 -0.495324
O43   O     O_3   0.541237 0.773900 0.079963 -0.541809
O44   O     O_3   0.536731 0.226724 0.538653 -0.516347
C5    C     C_3   0.009907 0.267531 0.185746 0.393735
C6    C     C_3   0.996766 0.735708 0.639363 0.384972
C7    C     C_3   0.481833 0.780764 0.060689 0.346805
C8    C     C_3   0.482137 0.226041 0.582031 0.446518
H13   H     H_    0.977637 0.298464 0.182930 0.033704
H14   H     H_    0.976323 0.700469 0.677314 0.019559
H15   H     H_    0.466685 0.801682 0.947790 0.163268
H16   H     H_    0.455824 0.195137 0.519258 0.094761
H17   H     H_    0.036599 0.266122 0.305011 0.019291
H18   H     H_    0.018498 0.755238 0.747047 0.036078
H19   H     H_    0.469496 0.802354 0.161664 0.035123
H20   H     H_    0.484832 0.220045 0.712218 -0.011424
C9    C     C_3   0.977964 0.217080 0.156277 -0.406211
C10   C     C_3   0.948835 0.769412 0.552845 -0.366056
C11   C     C_3   0.451785 0.729251 0.051706 -0.431595
C12   C     C_3   0.451257 0.276479 0.533563 -0.426623
H21   H     H_    0.945588 0.221792 0.047342 0.170417
H22   H     H_    0.926214 0.747644 0.450349 0.196841
H23   H     H_    0.467057 0.705100 0.960593 0.213542
H24   H     H_    0.438768 0.277119 0.402208 0.201216
C13   C     C_3   0.173030 0.475571 0.112283 0.219300
C14   C     C_3   0.197181 0.499063 0.579103 0.273532
C15   C     C_3   0.673125 0.975622 0.112205 0.218542
C16   C     C_3   0.697165 0.999050 0.578877 0.272886
H25   H     H_    0.132687 0.454140 0.105780 0.129769
H26   H     H_    0.184053 0.538203 0.539556 0.164801
H27   H     H_    0.632708 0.954296 0.105561 0.128604
H28   H     H_    0.684286 0.038276 0.539594 0.164266
H29   H     H_    0.178615 0.491004 0.994908 0.145635
H30   H     H_    0.185562 0.472971 0.478170 0.068148
H31   H     H_    0.678839 0.990962 0.994824 0.146006
H32   H     H_    0.685338 0.973077 0.477745 0.068389
C17   C     C_3   0.221457 0.438115 0.169717 -0.423718
C18   C     C_3   0.261836 0.499035 0.626871 -0.407523
C19   C     C_3   0.721380 0.938014 0.169991 -0.425684
C20   C     C_3   0.761818 0.998668 0.626559 -0.405391
H33   H     H_    0.219850 0.425579 0.293542 0.153607
H34   H     H_    0.273276 0.523968 0.732006 0.201960
H35   H     H_    0.719531 0.925437 0.293637 0.153023
H36   H     H_    0.773439 0.023646 0.731507 0.201663
H37   H     H_    0.215368 0.403627 0.094632 0.193032
H38   H     H_    0.281496 0.514996 0.527255 0.182060
H39   H     H_    0.715276 0.903575 0.094659 0.189779
H40   H     H_    0.781594 0.014389 0.526836 0.181162
Ba1   Ba    Ba6+2 0.999910 0.463090 0.844860 1.511745
Ba2   Ba    Ba6+2 0.999910 0.536910 0.344860 1.524520
Ba3   Ba    Ba6+2 0.499910 0.963090 0.844860 1.506728
Ba4   Ba    Ba6+2 0.499910 0.036910 0.344860 1.515961
C21   C     C_3   0.839395 0.533038 0.950416 0.307155
C22   C     C_3   0.831737 0.471826 0.442506 0.312306
C23   C     C_3   0.339575 0.033053 0.950280 0.311246
C24   C     C_3   0.332085 0.971673 0.442880 0.313308
H41   H     H_    0.854839 0.531718 0.834960 0.078719
H42   H     H_    0.846232 0.476776 0.326017 0.078216
H43   H     H_    0.355034 0.031682 0.834846 0.079429
H44   H     H_    0.346548 0.976563 0.326327 0.078504
H45   H     H_    0.872756 0.549099 0.042789 0.141015
H46   H     H_    0.863638 0.450811 0.529183 0.126726
H47   H     H_    0.372994 0.049056 0.042606 0.142454
H48   H     H_    0.364124 0.950858 0.529705 0.128316
C25   C     C_3   0.786905 0.567459 0.937718 -0.728904
C26   C     C_3   0.776246 0.441510 0.420203 -0.718542
C27   C     C_3   0.287266 0.067695 0.937520 -0.726755
C28   C     C_3   0.276801 0.941066 0.420988 -0.715328
H49   H     H_    0.798661 0.607693 0.920106 0.158096
H50   H     H_    0.784042 0.401922 0.384489 0.149388
H51   H     H_    0.299260 0.107850 0.919398 0.159543
H52   H     H_    0.284883 0.901478 0.385730 0.150731
H53   H     H_    0.769429 0.565148 0.050891 0.267287
H54   H     H_    0.759846 0.439471 0.535064 0.270089
H55   H     H_    0.269865 0.065616 0.050845 0.266829
H56   H     H_    0.260433 0.939048 0.535897 0.269806
O45   O     O_3   0.064650 0.525760 0.074400 -0.420578
O46   O     O_3   0.064650 0.474240 0.574400 -0.435702
O47   O     O_3   0.564650 0.025760 0.074400 -0.419295
O48   O     O_3   0.564650 0.974240 0.574400 -0.435436
P13   P     P_3+3 0.927462 0.666043 0.086245 0.439327
P14   P     P_3+3 0.925129 0.335102 0.591440 0.421198
P15   P     P_3+3 0.427673 0.166189 0.086073 0.426457
P16   P     P_3+3 0.425599 0.834895 0.591017 0.413721
C29   C     C_3   0.013631 0.277342 0.659591 0.494049
C30   C     C_3   0.015105 0.723892 0.106664 0.508782
C31   C     C_3   0.506471 0.771405 0.573936 0.410406
C32   C     C_3   0.514397 0.225663 0.115727 0.463640
H57   H     H_    0.029617 0.294334 0.555631 0.003705
H58   H     H_    0.017502 0.708915 0.986375 -0.028639
H59   H     H_    0.496959 0.775358 0.442425 0.039452
H60   H     H_    0.516443 0.217751 0.988971 0.004543
H61   H     H_    0.086313 0.226711 0.710023 0.241225
H62   H     H_    0.084031 0.776595 0.093014 0.227636
H63   H     H_    0.573080 0.716107 0.561070 0.225252
H64   H     H_    0.583809 0.279418 0.125523 0.226649
H65   H     H_    0.954890 0.208178 0.256726 0.149983
H66   H     H_    0.917384 0.777699 0.632652 0.136202
H67   H     H_    0.405400 0.736303 0.014569 0.172407
H68   H     H_    0.411459 0.278606 0.585948 0.141987
H69   H     H_    0.838858 0.266079 0.397929 0.151668
H70   H     H_    0.841630 0.733339 0.892243 0.175153
H71   H     H_    0.341296 0.764497 0.394829 0.148600
H72   H     H_    0.342983 0.234165 0.890841 0.175166
C33   C     C_R   0.888012 0.380474 0.294879 -0.571378
C34   C     C_R   0.900287 0.623721 0.782879 -0.546343
C35   C     C_R   0.388451 0.879957 0.294218 -0.565933
C36   C     C_R   0.400787 0.124032 0.782336 -0.555874
C37   C     C_R   0.864788 0.384189 0.134688 0.310706
C38   C     C_R   0.870246 0.617665 0.629304 0.337855
C39   C     C_R   0.365200 0.883852 0.134113 0.294629
C40   C     C_R   0.370460 0.117800 0.629147 0.319883
C41   C     C_R   0.824430 0.346197 0.070933 -0.206971
C42   C     C_R   0.827415 0.654866 0.568359 -0.240506
C43   C     C_R   0.325425 0.845503 0.069685 -0.222570
C44   C     C_R   0.327756 0.155108 0.568193 -0.244425
C45   C     C_R   0.814434 0.303225 0.167988 -0.004859
C46   C     C_R   0.817957 0.697896 0.663069 -0.033583
C47   C     C_R   0.316127 0.802093 0.165839 -0.009717
C48   C     C_R   0.318741 0.198380 0.662448 -0.037660
C49   C     C_R   0.845035 0.298927 0.324502 -0.249623
C50   C     C_R   0.849492 0.701822 0.817397 -0.222949
C51   C     C_R   0.347006 0.797611 0.322003 -0.221397
C52   C     C_R   0.350660 0.202540 0.816178 -0.219431
C53   C     C_R   0.882042 0.337961 0.388112 0.285701
C54   C     C_R   0.889863 0.664484 0.878020 0.218476
C55   C     C_R   0.383419 0.836956 0.386322 0.271954
C56   C     C_R   0.390908 0.165140 0.876886 0.228772
C57   C     C_R   0.179394 0.652759 0.112814 -0.227615
C58   C     C_R   0.179940 0.349246 0.610726 -0.221293
C59   C     C_R   0.678409 0.153359 0.113781 -0.228660
C60   C     C_R   0.679559 0.849028 0.609624 -0.215475
C61   C     C_R   0.133591 0.618490 0.058804 0.271261
C62   C     C_R   0.137218 0.386068 0.548998 0.129579
C63   C     C_R   0.633056 0.118731 0.059146 0.271155
C64   C     C_R   0.637104 0.886049 0.547790 0.127270
C65   C     C_R   0.111857 0.667438 0.808131 0.152098
C66   C     C_R   0.121337 0.341420 0.295351 0.204631
C67   C     C_R   0.610830 0.168001 0.809154 0.178985
C68   C     C_R   0.620810 0.841072 0.293778 0.236014
C69   C     C_R   0.156517 0.701230 0.861061 -0.254711
C70   C     C_R   0.162330 0.304600 0.355818 -0.341393
C71   C     C_R   0.655105 0.202116 0.862712 -0.252598
C72   C     C_R   0.661712 0.804207 0.354833 -0.334834
C73   C     C_R   0.189592 0.695345 0.014096 0.001732
C74   C     C_R   0.192881 0.308146 0.511857 0.058978
C75   C     C_R   0.688172 0.196249 0.015767 -0.004572
C76   C     C_R   0.692380 0.807857 0.510839 0.053093
C77   C     C_1   0.235123 0.732539 0.065570 -0.032948
C78   C     C_1   0.237545 0.269532 0.565121 0.082022
C79   C     C_1   0.733425 0.233660 0.067689 -0.029532
C80   C     C_1   0.736925 0.769142 0.564580 0.088960
C81   C     C_1   0.770608 0.264865 0.112798 -0.043288
C82   C     C_1   0.773761 0.736903 0.608771 -0.016628
C83   C     C_1   0.272402 0.763665 0.110557 -0.051182
C84   C     C_1   0.274465 0.237334 0.608711 -0.016830
C85   C     C_R   0.099543 0.628982 0.912706 -0.231923
C86   C     C_R   0.111338 0.382521 0.389481 -0.181069
C87   C     C_R   0.598912 0.129213 0.913170 -0.240216
C88   C     C_R   0.611240 0.882489 0.387891 -0.194683
H73   H     H_    0.165932 0.731725 0.782672 0.156769
H74   H     H_    0.170234 0.273010 0.281302 0.173364
H75   H     H_    0.664263 0.232829 0.784744 0.160093
H76   H     H_    0.669402 0.772407 0.280884 0.174642
H77   H     H_    0.909401 0.412636 0.351506 0.124810
H78   H     H_    0.929098 0.593961 0.834108 0.155282
H79   H     H_    0.409321 0.912259 0.351543 0.125538
H80   H     H_    0.429151 0.094031 0.834065 0.159077
N1    N     N_2   0.276152 0.461085 0.160144 -0.073175
H81   H     H_    0.283613 0.494204 0.224450 0.233256
C89   C     C_3   0.323798 0.426084 0.187732 -0.867253
H82   H     H_    0.329062 0.410447 0.310955 0.242289
H83   H     H_    0.363307 0.446501 0.171414 0.241498
H84   H     H_    0.317223 0.394317 0.101428 0.272508
N2    N     N_2   0.282786 0.447636 0.663382 -0.083435
H85   H     H_    0.273144 0.422857 0.569744 0.169228
C90   C     C_3   0.341629 0.444126 0.738230 -0.846877
H86   H     H_    0.352546 0.403648 0.769213 0.240052
H87   H     H_    0.348677 0.466578 0.849435 0.263228
H88   H     H_    0.369902 0.458427 0.655855 0.244695
N3    N     N_2   0.776228 0.960807 0.161223 -0.072094
H89   H     H_    0.783653 0.993977 0.225277 0.233376
C91   C     C_3   0.823754 0.925687 0.190043 -0.868873
H90   H     H_    0.863397 0.945938 0.174043 0.241762
H91   H     H_    0.817243 0.893788 0.104209 0.272014
H92   H     H_    0.828743 0.910246 0.313466 0.242829
N4    N     N_2   0.782370 0.947174 0.663445 -0.082236
H93   H     H_    0.772714 0.922392 0.569825 0.169064
C92   C     C_3   0.841081 0.943338 0.739200 -0.855348
H94   H     H_    0.851535 0.902840 0.771061 0.238817
H95   H     H_    0.848134 0.965972 0.850040 0.265068
H96   H     H_    0.869674 0.957198 0.657093 0.244539
C93   C     C_2   0.742382 0.552345 0.801184 0.746026
H97   H     H_    0.750579 0.556578 0.680322 0.049858
O49   O     O_2   0.696611 0.535707 0.824910 -0.536092
C94   C     C_2   0.732702 0.465556 0.294222 0.753336
H98   H     H_    0.740478 0.467894 0.172470 0.047931
O50   O     O_2   0.688331 0.482393 0.327479 -0.535558
C95   C     C_2   0.242582 0.052630 0.801318 0.739814
H99   H     H_    0.250754 0.056587 0.680356 0.051575
O51   O     O_2   0.196706 0.036347 0.825424 -0.539297
C96   C     C_2   0.233088 0.964792 0.294787 0.749792
H100  H     H_    0.240833 0.967062 0.172995 0.049716
O52   O     O_2   0.188620 0.981455 0.327914 -0.540924
C97   C     C_2   0.216825 0.645845 0.269141 0.616876
H101  H     H_    0.238999 0.678318 0.327676 -0.004921
O53   O     O_2   0.225165 0.604059 0.332697 -0.589663
C98   C     C_2   0.211481 0.355187 0.774428 0.603854
H102  H     H_    0.214090 0.392241 0.829477 0.056325
O54   O     O_2   0.234587 0.319050 0.850429 -0.598917
C99   C     C_2   0.715758 0.146493 0.270176 0.623748
H103  H     H_    0.736890 0.179179 0.330299 -0.004274
O55   O     O_2   0.725212 0.104553 0.331883 -0.590646
C100  C     C_2   0.710830 0.854729 0.773776 0.604680
H104  H     H_    0.713670 0.891753 0.829045 0.053195
O56   O     O_2   0.733439 0.818414 0.849945 -0.597860
C101  C     C_2   0.790491 0.351111 0.909174 0.646736
H105  H     H_    0.774989 0.317180 0.844395 -0.006579
O57   O     O_2   0.777272 0.392700 0.848720 -0.553896
C102  C     C_2   0.791195 0.649809 0.410116 0.648488
H106  H     H_    0.774650 0.683727 0.344273 -0.007639
O58   O     O_2   0.777257 0.608266 0.353878 -0.555343
C103  C     C_2   0.291260 0.850538 0.908311 0.651591
H107  H     H_    0.276183 0.816636 0.842722 -0.009665
O59   O     O_2   0.277407 0.892169 0.849099 -0.551756
C104  C     C_2   0.291194 0.149904 0.410516 0.647339
H108  H     H_    0.274517 0.183762 0.344564 -0.007729
O60   O     O_2   0.277130 0.108308 0.354894 -0.556067
N5    N     N_2   0.054930 0.595793 0.862260 -0.114560
H109  H     H_    0.016758 0.613634 0.824267 0.150830
C105  C     C_3   0.071869 0.555941 0.765356 -0.449023
H110  H     H_    0.032913 0.540292 0.698831 0.282364
H111  H     H_    0.096740 0.526716 0.838499 0.220631
H112  H     H_    0.099667 0.569346 0.680697 0.201830
N6    N     N_2   0.069910 0.418460 0.323980 -0.098604
H113  H     H_    0.081414 0.456184 0.319492 0.206947
C106  C     C_3   0.013695 0.406135 0.353112 -0.548779
H114  H     H_    0.984010 0.411561 0.247411 0.233871
H115  H     H_    0.996896 0.433198 0.430195 0.255385
H116  H     H_    0.009995 0.365492 0.387215 0.148234
N7    N     N_2   0.554619 0.095758 0.862297 -0.113585
H117  H     H_    0.516426 0.113467 0.823750 0.152309
C107  C     C_3   0.571957 0.056079 0.765422 -0.444868
H118  H     H_    0.533129 0.040289 0.698581 0.283085
H119  H     H_    0.596917 0.026906 0.838592 0.219411
H120  H     H_    0.599776 0.069729 0.681115 0.202790
N8    N     N_2   0.569830 0.918462 0.322788 -0.096659
H121  H     H_    0.581358 0.956201 0.319391 0.207366
C108  C     C_3   0.513730 0.906113 0.352839 -0.540847
H122  H     H_    0.483914 0.911464 0.247368 0.232612
H123  H     H_    0.496976 0.933193 0.429955 0.252965
H124  H     H_    0.510188 0.865470 0.387308 0.144631
N9    N     N_2   0.016061 0.175512 0.132738 -0.059381
H125  H     H_    0.995819 0.146666 0.064247 0.194620
C109  C     C_3   0.052332 0.156242 0.273680 -0.755666
H126  H     H_    0.080325 0.125709 0.239881 0.253776
H127  H     H_    0.026123 0.139911 0.358370 0.225079
H128  H     H_    0.080021 0.186906 0.331975 0.238402
N10   N     N_2   0.970795 0.816441 0.495037 -0.059199
H129  H     H_    0.947174 0.829491 0.390080 0.206216
C110  C     C_3   0.983532 0.856509 0.610833 -0.812525
H130  H     H_    0.001981 0.889660 0.555154 0.250498
H131  H     H_    0.015093 0.843221 0.713390 0.249502
H132  H     H_    0.944040 0.869112 0.653145 0.228208
N11   N     N_2   0.461881 0.703575 0.205060 -0.085664
H133  H     H_    0.504066 0.694486 0.243551 0.229802
C111  C     C_3   0.423693 0.661820 0.222642 -0.842490
H134  H     H_    0.433467 0.645899 0.345204 0.242985
H135  H     H_    0.428841 0.631175 0.136953 0.251274
H136  H     H_    0.378867 0.675490 0.202616 0.250102
N12   N     N_2   0.486891 0.320460 0.579845 -0.055885
H137  H     H_    0.472208 0.353115 0.517784 0.196850
C112  C     C_3   0.501531 0.329026 0.748807 -0.785346
H138  H     H_    0.525986 0.365052 0.769421 0.243397
H139  H     H_    0.528894 0.297543 0.806036 0.249003
H140  H     H_    0.462419 0.332153 0.803777 0.225880

loop_
_geom_bond_atom_site_label_1
_geom_bond_atom_site_label_2
_geom_bond_distance
_ccdc_geom_bond_type
N4    C92   1.444903 S    
C25   H49   1.106134 S    
C11   H23   1.112442 S    
N5    C105  1.435591 S    
C103  H107  1.085063 S    
C2    H10   1.110775 S    
C18   N2    1.448732 S    
C28   H52   1.108284 S    
C63   C87   1.396687 A    
P8    Ba4   3.424726 S    
O27   Ba3   2.829692 S    
N11   H133  1.031722 S    
C61   C85   1.396560 A    
P8    C63   1.909230 S    
C100  H104  1.080496 S    
C30   H58   1.112127 S    
C72   H76   1.083346 S    
C15   H27   1.107321 S    
C11   H67   1.113253 S    
O13   P14   1.544885 D    
C12   H68   1.112613 S    
O42   C6    1.408748 S    
O31   Ba3   2.789679 S    
P4    O8    1.558292 S    
P11   O35   1.547528 D    
N7    C107  1.435694 S    
C16   C20   1.527307 S    
C45   C81   1.474779 S    
C1    H61   1.110732 S    
C86   N6    1.407113 S    
P11   O43   1.755944 S    
C34   H78   1.078869 S    
C35   C55   1.383103 A    
O18   C22   1.388526 S    
O40   C15   1.395754 S    
N3    C91   1.445763 S    
C109  H126  1.110409 S    
O3    Ba3   2.829222 S    
N6    C106  1.436896 S    
C10   H22   1.112890 S    
C13   H29   1.103476 S    
C111  H135  1.111264 S    
Ba3   O48   2.986225 S    
C69   C73   1.417746 A    
Ba1   O46   2.986225 S    
P15   C56   1.856106 S    
C46   C50   1.410595 A    
C108  H124  1.108784 S    
C27   H51   1.106490 S    
P12   O44   1.749696 S    
H3    C31   1.112571 S    
N6    H113  1.028111 S    
Ba2   O46   2.802390 S    
C68   C72   1.405508 A    
C9    N9    1.452707 S    
C38   C42   1.440655 A    
C34   C54   1.394108 A    
C35   H79   1.064772 S    
C16   H32   1.104842 S    
C20   N4    1.448639 S    
C96   O52   1.220488 D    
C4    H12   1.109339 S    
C58   C74   1.438049 A    
C73   C77   1.475142 S    
O22   P13   1.750165 S    
O16   P15   1.545675 D    
C9    H65   1.112796 S    
P10   O42   1.748206 S    
C43   C103  1.485466 S    
C101  O57   1.219505 D    
P2    O18   1.749877 S    
O10   P13   1.755260 S    
P7    C64   1.903912 S    
O12   P15   1.754653 S    
C99   O55   1.218251 D    
P3    O7    1.568331 S    
C111  H134  1.110112 S    
N5    H109  1.024694 S    
H2    C30   1.111946 S    
P9    C66   1.871330 S    
C14   H30   1.104896 S    
N9    H125  1.031561 S    
C90   H88   1.111359 S    
C5    H13   1.113507 S    
C7    H15   1.110570 S    
C40   C44   1.440602 A    
C77   C83   1.224261 T    
O23   P16   1.749910 S    
H69   C49   1.083182 S    
H72   C52   1.083472 S    
C25   C93   1.499329 S    
N3    H89   1.031669 S    
C59   C75   1.435085 A    
C17   H37   1.109209 S    
C103  O59   1.219555 D    
C3    C31   1.519633 S    
O12   Ba4   2.790022 S    
C93   H97   1.084110 S    
C1    C29   1.519252 S    
P9    O29   1.776968 S    
C24   H48   1.111412 S    
C92   H94   1.110531 S    
C22   C26   1.529011 S    
P12   O32   1.782114 S    
H4    C32   1.112036 S    
P6    C61   1.909018 S    
C94   H98   1.084809 S    
C106  H115  1.090458 S    
C58   C62   1.433944 A    
C65   C69   1.405149 A    
C3    H11   1.110126 S    
C27   H55   1.112176 S    
P5    O25   1.552037 D    
N1    H81   1.031702 S    
C67   C71   1.405227 A    
O5    Ba2   2.829742 S    
C110  H131  1.109532 S    
O7    Ba4   2.829742 S    
C15   H31   1.103479 S    
C97   H101  1.084881 S    
C112  H139  1.109222 S    
C87   N7    1.389841 S    
C31   H59   1.111303 S    
C32   H60   1.111511 S    
C74   C78   1.480590 S    
N10   C110  1.447550 S    
C91   H92   1.111734 S    
O19   C23   1.396678 S    
C6    C10   1.529017 S    
C23   C27   1.529073 S    
C109  H127  1.110895 S    
C102  O58   1.218919 D    
C21   H41   1.106131 S    
O8    Ba3   2.803014 S    
C66   C70   1.404832 A    
C23   H43   1.106182 S    
C60   C64   1.433532 A    
C89   H83   1.110280 S    
P1    Ba1   3.423096 S    
C65   C85   1.401077 A    
C5    C9    1.528858 S    
P3    Ba3   3.423096 S    
O38   C13   1.395464 S    
C7    C11   1.525466 S    
C107  H119  1.093443 S    
P5    O37   1.754249 S    
C13   H25   1.107298 S    
P5    Ba1   3.428586 S    
C17   H33   1.109084 S    
C17   N1    1.449318 S    
C19   H35   1.109049 S    
Ba2   O45   2.990581 S    
C76   C80   1.481254 S    
C2    H62   1.110815 S    
C95   H99   1.084113 S    
C45   C49   1.416667 A    
C100  O56   1.220511 D    
C48   C52   1.410334 A    
C92   H96   1.111367 S    
N1    C89   1.445613 S    
O6    Ba1   2.803014 S    
Ba1   Ba2   4.663300 S    
C68   C88   1.396694 A    
C47   C83   1.474579 S    
C37   C41   1.433617 A    
C16   H28   1.105172 S    
C60   C76   1.438125 A    
O11   Ba3   2.820439 S    
C105  H112  1.110156 S    
C51   C55   1.405768 A    
C49   C53   1.405921 A    
C36   C40   1.397944 A    
C98   H102  1.080460 S    
O24   P15   1.750533 S    
P9    O41   1.747137 S    
P2    C38   1.886562 S    
C90   H86   1.110664 S    
C104  O60   1.218931 D    
P12   C67   1.896365 S    
C89   H82   1.111702 S    
C10   H66   1.112907 S    
C8    H20   1.111084 S    
P2    Ba2   3.426844 S    
C91   H90   1.110268 S    
C62   C86   1.403718 A    
C71   H75   1.083209 S    
P1    O1    1.561242 D    
C52   C56   1.404647 A    
H1    C29   1.107174 S    
P4    C40   1.887695 S    
O9    P14   1.777267 S    
P6    O38   1.756019 S    
P3    O3    1.561242 D    
C104  H108  1.085055 S    
P4    O20   1.749962 S    
C14   H26   1.105026 S    
Ba3   O47   2.829076 S    
N2    H85   1.031496 S    
P8    O47   1.574230 S    
P6    Ba2   3.424726 S    
Ba1   O45   2.829076 S    
C42   C46   1.432409 A    
C5    H17   1.108919 S    
C108  H123  1.090449 S    
C59   C99   1.487519 S    
P5    C62   1.898609 S    
C99   H103  1.084752 S    
O41   C5    1.405321 S    
C34   C38   1.397711 A    
C41   C101  1.485848 S    
O44   C8    1.407950 S    
C24   H44   1.109480 S    
C2    C30   1.519678 S    
C46   C82   1.481865 S    
P7    O27   1.552037 D    
N8    H121  1.028054 S    
C59   C63   1.433700 A    
C6    H18   1.109001 S    
O11   P16   1.773312 S    
C33   H77   1.064468 S    
N11   C111  1.445635 S    
O23   C31   1.405865 S    
P9    O33   1.545062 D    
C24   C28   1.528886 S    
O21   C29   1.404237 S    
P10   O30   1.783532 S    
C8    H16   1.112209 S    
C60   C100  1.484512 S    
P12   O36   1.548136 D    
C44   C104  1.486598 S    
C9    H21   1.112711 S    
C66   C86   1.392966 A    
C112  H138  1.110443 S    
C1    H5    1.110480 S    
C20   H36   1.112982 S    
C12   N12   1.451892 S    
C3    H7    1.110933 S    
C105  H110  1.089106 S    
P14   C53   1.867119 S    
C101  H105  1.085044 S    
C75   C79   1.475084 S    
C26   H54   1.112358 S    
C57   C97   1.488080 S    
N12   H137  1.031622 S    
P6    O26   1.560934 D    
C70   H74   1.083419 S    
P1    O5    1.568331 S    
P8    O40   1.756299 S    
C15   C19   1.528926 S    
C67   C87   1.401242 A    
C90   H87   1.110928 S    
C33   C53   1.382590 A    
C57   C73   1.435216 A    
C4    C32   1.520816 S    
O29   Ba1   2.789679 S    
C26   C94   1.499880 S    
C23   H47   1.110936 S    
C21   H45   1.110933 S    
C111  H136  1.111467 S    
O9    Ba1   2.820439 S    
Ba3   Ba4   4.663300 S    
C78   C84   1.228167 T    
C25   H53   1.112162 S    
C1    H9    1.109437 S    
C20   H40   1.112295 S    
N10   H129  1.031746 S    
C28   H56   1.112347 S    
C95   O51   1.220475 D    
C7    H19   1.113298 S    
O32   Ba4   2.820071 S    
C29   H57   1.109182 S    
C3    H63   1.110793 S    
C42   C102  1.486574 S    
Ba4   O47   2.990581 S    
C94   O50   1.220472 D    
C106  H114  1.059813 S    
C6    H14   1.113636 S    
C4    H64   1.110784 S    
C96   H100  1.084819 S    
C71   C75   1.417765 A    
C107  H118  1.089238 S    
P1    O17   1.750896 S    
C110  H130  1.110322 S    
P3    O19   1.751183 S    
O20   C24   1.389017 S    
C10   N10   1.451705 S    
P4    O4    1.552328 D    
C80   C82   1.228537 T    
N7    H117  1.024365 S    
C18   H38   1.112336 S    
C43   C47   1.433507 A    
O25   Ba1   2.829692 S    
C91   H91   1.111355 S    
P6    O45   1.574230 S    
C58   C98   1.484176 S    
O30   Ba2   2.820071 S    
C85   N5    1.390162 S    
P3    C39   1.892073 S    
C13   C17   1.528657 S    
P1    C37   1.890430 S    
C12   H24   1.111406 S    
N9    C109  1.447601 S    
C57   C61   1.434217 A    
C97   O53   1.218258 D    
C64   C88   1.406557 A    
O14   P13   1.546094 D    
C8    C12   1.531568 S    
C47   C51   1.416867 A    
P7    Ba3   3.428586 S    
C27   C95   1.499326 S    
O28   Ba4   2.831627 S    
P2    O2    1.552328 D    
P7    O39   1.754216 S    
C39   C43   1.433405 A    
N8    C108  1.436940 S    
C19   N3    1.449358 S    
H71   C51   1.083188 S    
P5    O46   1.564020 S    
C72   C76   1.414504 A    
C4    H8    1.109425 S    
C88   N8    1.406495 S    
C93   O49   1.220472 D    
C41   C45   1.433285 A    
P11   C68   1.876939 S    
C11   N11   1.449060 S    
C35   C39   1.390441 A    
N2    C90   1.445013 S    
C70   C74   1.413524 A    
C44   C48   1.432580 A    
O1    Ba1   2.829222 S    
O21   P14   1.753210 S    
C92   H95   1.110920 S    
C22   H42   1.109485 S    
P13   C54   1.855661 S    
C79   C81   1.224321 T    
C33   C37   1.390669 A    
C106  H116  1.108418 S    
O15   P16   1.544474 D    
C69   H73   1.083185 S    
C36   C56   1.394554 A    
C105  H111  1.093315 S    
C19   H39   1.109350 S    
C48   C84   1.481282 S    
O37   C14   1.403458 S    
N12   C112  1.446526 S    
C98   O54   1.220518 D    
O26   Ba2   2.831627 S    
O39   C16   1.403527 S    
P10   O34   1.547791 D    
C110  H132  1.111244 S    
O22   C30   1.406661 S    
P11   O31   1.773669 S    
N4    H93   1.031470 S    
P2    O6    1.558292 S    
O4    Ba4   2.827297 S    
O10   Ba2   2.790022 S    
C18   H34   1.112989 S    
C112  H140  1.111544 S    
P8    O28   1.560934 D    
P7    O48   1.564020 S    
C14   C18   1.527436 S    
P16   C55   1.867958 S    
C2    H6    1.110589 S    
C26   H50   1.108074 S    
Ba4   O48   2.802390 S    
H70   C50   1.083439 S    
C109  H128  1.109652 S    
C102  H106  1.085050 S    
O43   C7    1.408359 S    
C36   H80   1.078697 S    
C22   H46   1.111369 S    
C89   H84   1.111364 S    
O17   C21   1.396028 S    
C108  H122  1.059782 S    
C50   C54   1.405151 A    
P10   C65   1.896829 S    
C107  H120  1.110297 S    
O24   C32   1.406287 S    
P4    Ba4   3.426844 S    
C28   C96   1.499924 S    
C21   C25   1.529158 S    
O2    Ba2   2.827297 S    
