data_mof_unit_9868.cif
_audit_creation_date              2012-10-26T17:11:29-0400
_audit_creation_method            fapswitch 2.2
_symmetry_space_group_name_H-M    P1
_symmetry_Int_Tables_number       1
_space_group_crystal_system       triclinic
_cell_length_a                    28.024554
_cell_length_b                    18.707703
_cell_length_c                    16.869223
_cell_angle_alpha                 90.008571
_cell_angle_beta                  62.640735
_cell_angle_gamma                 89.974846
_cell_volume                      7854.82938772

loop_
_atom_site_label
_atom_site_type_symbol
_atom_type_description
_atom_site_fract_x
_atom_site_fract_y
_atom_site_fract_z
_atom_type_partial_charge
C1    C     C_R   0.295999 0.730616 0.329005 0.827225
C2    C     C_R   0.704775 0.271010 0.670682 0.864547
C3    C     C_R   0.705693 0.727161 0.670171 0.845561
C4    C     C_R   0.295934 0.269522 0.329043 0.833984
C5    C     C_R   0.795999 0.230618 0.329005 0.827221
C6    C     C_R   0.204776 0.771012 0.670682 0.864548
C7    C     C_R   0.205677 0.227193 0.670180 0.845672
C8    C     C_R   0.795933 0.769523 0.329043 0.833996
C9    C     C_R   0.410520 0.999969 0.464108 0.068224
C10   C     C_R   0.589381 0.000037 0.536301 0.069092
C11   C     C_R   0.910520 0.499969 0.464108 0.068220
C12   C     C_R   0.089381 0.500037 0.536301 0.069089
C13   C     C_R   0.582693 0.871097 0.549656 -0.214584
C14   C     C_R   0.417215 0.128909 0.450774 -0.226044
C15   C     C_R   0.417165 0.870997 0.451156 -0.215783
C16   C     C_R   0.582750 0.129011 0.549256 -0.218093
C17   C     C_R   0.082694 0.371097 0.549655 -0.214587
C18   C     C_R   0.917215 0.628909 0.450774 -0.226042
C19   C     C_R   0.917165 0.370997 0.451156 -0.215784
C20   C     C_R   0.082750 0.629010 0.549256 -0.218078
C21   C     C_R   0.220002 0.767265 0.955715 0.004586
C22   C     C_R   0.781359 0.239012 0.045427 0.067671
C23   C     C_R   0.781231 0.762251 0.045811 0.087674
C24   C     C_R   0.220856 0.231393 0.955309 0.069155
C25   C     C_R   0.720002 0.267259 0.955712 0.004576
C26   C     C_R   0.281357 0.739006 0.045427 0.067714
C27   C     C_R   0.281221 0.262263 0.045819 0.087420
C28   C     C_R   0.720873 0.731330 0.955309 0.069347
C29   C     C_R   0.272687 0.793296 0.922075 -0.242212
C30   C     C_R   0.728479 0.213509 0.079330 -0.261000
C31   C     C_R   0.729654 0.791090 0.075588 -0.197227
C32   C     C_R   0.272345 0.201915 0.926368 -0.286160
C33   C     C_R   0.772699 0.293252 0.922040 -0.242285
C34   C     C_R   0.228489 0.713465 0.079299 -0.260996
C35   C     C_R   0.229574 0.290922 0.075784 -0.197166
C36   C     C_R   0.772293 0.701684 0.926548 -0.285839
C37   C     C_R   0.303649 0.780135 0.965998 0.481951
C38   C     C_R   0.697474 0.227302 0.035028 0.481818
C39   C     C_R   0.699361 0.777113 0.030768 0.479092
C40   C     C_R   0.303025 0.217520 0.970709 0.478166
C41   C     C_R   0.803661 0.280097 0.965966 0.481979
C42   C     C_R   0.197485 0.727263 0.034998 0.481798
C43   C     C_R   0.199278 0.276977 0.030957 0.479162
C44   C     C_R   0.802969 0.717303 0.970894 0.477967
C45   C     C_R   0.144438 0.828140 0.945173 0.624408
C46   C     C_R   0.854958 0.171519 0.055909 0.527536
C47   C     C_R   0.855361 0.828113 0.055618 0.572737
C48   C     C_R   0.144494 0.171016 0.945493 0.534566
C49   C     C_R   0.644441 0.328144 0.945169 0.624413
C50   C     C_R   0.354959 0.671519 0.055908 0.527517
C51   C     C_R   0.355354 0.328124 0.055625 0.572991
C52   C     C_R   0.644483 0.671029 0.945507 0.534458
C53   C     C_R   0.118249 0.851585 0.895738 -0.194503
C54   C     C_R   0.881716 0.148481 0.104634 -0.171604
C55   C     C_R   0.881958 0.851279 0.104498 -0.186864
C56   C     C_R   0.118336 0.147939 0.895823 -0.171939
C57   C     C_R   0.618250 0.351587 0.895737 -0.194511
C58   C     C_R   0.381716 0.648481 0.104634 -0.171591
C59   C     C_R   0.381956 0.351283 0.104501 -0.186944
C60   C     C_R   0.618331 0.647945 0.895829 -0.171901
C61   C     C_R   0.137440 0.829887 0.807299 -0.391202
C62   C     C_R   0.863508 0.171644 0.192490 -0.354551
C63   C     C_R   0.863583 0.828312 0.192489 -0.352522
C64   C     C_R   0.137874 0.169299 0.807118 -0.368735
C65   C     C_R   0.637439 0.329886 0.807299 -0.391205
C66   C     C_R   0.363507 0.671644 0.192490 -0.354549
C67   C     C_R   0.363584 0.328313 0.192490 -0.352529
C68   C     C_R   0.637882 0.669287 0.807117 -0.368653
C69   C     C_R   0.182164 0.785279 0.767128 -0.098476
C70   C     C_R   0.819979 0.218473 0.231904 -0.167813
C71   C     C_R   0.819849 0.781822 0.232002 -0.172987
C72   C     C_R   0.184402 0.210514 0.765728 -0.144548
C73   C     C_R   0.682161 0.285274 0.767129 -0.098472
C74   C     C_R   0.319977 0.718470 0.231904 -0.167818
C75   C     C_R   0.319851 0.281821 0.232002 -0.172940
C76   C     C_R   0.684439 0.710445 0.765706 -0.144831
C77   C     C_R   0.206969 0.758527 0.817819 0.311538
C78   C     C_R   0.796479 0.246698 0.179733 0.319532
C79   C     C_R   0.796094 0.754131 0.179989 0.308717
C80   C     C_R   0.211489 0.231940 0.815248 0.311067
C81   C     C_R   0.706962 0.258516 0.817823 0.311510
C82   C     C_R   0.296475 0.746692 0.179734 0.319546
C83   C     C_R   0.296096 0.254129 0.179990 0.308516
C84   C     C_R   0.711559 0.731798 0.815204 0.311179
C85   C     C_R   0.196609 0.631684 0.527202 0.806120
C86   C     C_R   0.803386 0.368320 0.472829 0.790009
C87   C     C_R   0.803395 0.631679 0.472793 0.788191
C88   C     C_R   0.196598 0.368316 0.527244 0.812749
C89   C     C_R   0.696609 0.131684 0.527202 0.806121
C90   C     C_R   0.303386 0.868320 0.472829 0.790011
C91   C     C_R   0.303395 0.131679 0.472793 0.788238
C92   C     C_R   0.696598 0.868316 0.527244 0.812776
C93   C     C_R   0.189003 0.782666 0.906415 -0.076864
C94   C     C_R   0.812164 0.219801 0.093808 -0.090436
C95   C     C_R   0.812098 0.780762 0.093957 -0.010824
C96   C     C_R   0.190861 0.212889 0.905281 -0.099702
C97   C     C_R   0.689001 0.282661 0.906415 -0.076870
C98   C     C_R   0.312162 0.719796 0.093809 -0.090450
C99   C     C_R   0.312094 0.280768 0.093960 -0.010913
C100  C     C_R   0.690887 0.712826 0.905267 -0.099625
C101  C     C_R   0.926092 0.903469 0.066863 0.839129
C102  C     C_R   0.073573 0.096905 0.933517 0.834065
C103  C     C_R   0.073817 0.903347 0.933287 0.839337
C104  C     C_R   0.925965 0.096382 0.066956 0.833459
C105  C     C_R   0.426092 0.403470 0.066864 0.839136
C106  C     C_R   0.573566 0.596914 0.933523 0.834058
C107  C     C_R   0.573818 0.403348 0.933286 0.839347
C108  C     C_R   0.425965 0.596383 0.066956 0.833459
C109  C     C_R   0.041154 0.629573 0.525573 0.088628
C110  C     C_R   0.958707 0.370435 0.474965 0.090997
C111  C     C_R   0.958765 0.629521 0.474558 0.087361
C112  C     C_R   0.041091 0.370485 0.525993 0.091050
C113  C     C_R   0.541154 0.129573 0.525573 0.088632
C114  C     C_R   0.458707 0.870435 0.474965 0.091000
C115  C     C_R   0.458765 0.129521 0.474557 0.087369
C116  C     C_R   0.541091 0.870486 0.525994 0.091056
C117  C     C_R   0.019822 0.694354 0.514056 -0.173156
C118  C     C_R   0.980021 0.305654 0.486526 -0.163553
C119  C     C_R   0.980108 0.694324 0.485909 -0.178342
C120  C     C_R   0.019732 0.305683 0.514682 -0.163687
C121  C     C_R   0.519823 0.194354 0.514055 -0.173207
C122  C     C_R   0.480021 0.805654 0.486527 -0.163573
C123  C     C_R   0.480108 0.194325 0.485909 -0.178401
C124  C     C_R   0.519732 0.805683 0.514683 -0.163694
C125  C     C_R   0.978535 0.564694 0.489063 0.032810
C126  C     C_R   0.021308 0.435314 0.511510 0.034503
C127  C     C_R   0.021340 0.564716 0.511300 0.031944
C128  C     C_R   0.978505 0.435292 0.489268 0.034156
C129  C     C_R   0.478535 0.064694 0.489062 0.032810
C130  C     C_R   0.521308 0.935314 0.511510 0.034506
C131  C     C_R   0.521340 0.064716 0.511300 0.031946
C132  C     C_R   0.478505 0.935292 0.489268 0.034161
C133  C     C_R   0.456384 0.999982 0.479293 -0.041339
C134  C     C_R   0.543473 0.000025 0.521240 -0.041048
C135  C     C_R   0.956384 0.499982 0.479293 -0.041341
C136  C     C_R   0.043473 0.500025 0.521240 -0.041048
C137  C     C_R   0.387675 0.934285 0.457056 0.048957
C138  C     C_R   0.612256 0.065721 0.543263 0.048817
C139  C     C_R   0.612229 0.934359 0.543432 0.048405
C140  C     C_R   0.387699 0.065645 0.456896 0.048178
C141  C     C_R   0.887675 0.434285 0.457056 0.048953
C142  C     C_R   0.112256 0.565721 0.543263 0.048813
C143  C     C_R   0.112229 0.434359 0.543432 0.048400
C144  C     C_R   0.887699 0.565645 0.456897 0.048171
C145  C     C_R   0.336135 0.934483 0.458298 -0.105384
C146  C     C_R   0.663846 0.065521 0.541827 -0.106507
C147  C     C_R   0.663832 0.934518 0.541909 -0.109457
C148  C     C_R   0.336147 0.065481 0.458222 -0.105192
C149  C     C_R   0.836135 0.434483 0.458298 -0.105388
C150  C     C_R   0.163846 0.565522 0.541827 -0.106512
C151  C     C_R   0.163832 0.434518 0.541909 -0.109445
C152  C     C_R   0.836147 0.565481 0.458223 -0.105182
C153  C     C_R   0.311999 0.999993 0.457923 -0.272348
C154  C     C_R   0.688008 0.000010 0.542109 -0.260117
C155  C     C_R   0.811999 0.499993 0.457923 -0.272348
C156  C     C_R   0.188007 0.500009 0.542109 -0.260103
Cu1   Cu    Cu3+1 0.209920 0.785290 0.495070 0.970834
Cu2   Cu    Cu3+1 0.790080 0.214710 0.504930 0.997545
Cu3   Cu    Cu3+1 0.790080 0.785290 0.504930 0.974974
Cu4   Cu    Cu3+1 0.209920 0.214710 0.495070 0.973849
Cu5   Cu    Cu3+1 0.709920 0.285290 0.495070 0.970820
Cu6   Cu    Cu3+1 0.290080 0.714710 0.504930 0.997546
Cu7   Cu    Cu3+1 0.290080 0.285290 0.504930 0.974963
Cu8   Cu    Cu3+1 0.709920 0.714710 0.495070 0.973848
Cu9   Cu    Cu3+1 0.495240 0.500000 0.924150 1.070437
Cu10  Cu    Cu3+1 0.504760 0.500000 0.075850 1.071930
Cu11  Cu    Cu3+1 0.995240 0.000000 0.924150 1.070446
Cu12  Cu    Cu3+1 0.004760 0.000000 0.075850 1.071961
H1    H     H_    0.534892 0.755058 0.524913 0.147695
H2    H     H_    0.464948 0.244949 0.475679 0.148056
H3    H     H_    0.464843 0.755007 0.476451 0.147856
H4    H     H_    0.535004 0.245000 0.524124 0.148639
H5    H     H_    0.034892 0.255058 0.524912 0.147699
H6    H     H_    0.964947 0.744949 0.475680 0.148066
H7    H     H_    0.964843 0.255007 0.476450 0.147860
H8    H     H_    0.035004 0.745000 0.524124 0.148641
H9    H     H_    0.272382 0.000010 0.461586 0.192453
H10   H     H_    0.727664 0.999992 0.538289 0.194402
H11   H     H_    0.772382 0.500010 0.461586 0.192453
H12   H     H_    0.227664 0.499991 0.538289 0.194405
H13   H     H_    0.590023 0.821403 0.574256 0.178814
H14   H     H_    0.409942 0.178600 0.426099 0.180858
H15   H     H_    0.409899 0.821240 0.426624 0.178350
H16   H     H_    0.590070 0.178770 0.573716 0.179401
H17   H     H_    0.090023 0.321404 0.574256 0.178814
H18   H     H_    0.909942 0.678600 0.426099 0.180866
H19   H     H_    0.909899 0.321240 0.426624 0.178353
H20   H     H_    0.090070 0.678770 0.573716 0.179403
H21   H     H_    0.289752 0.824652 0.861251 0.192742
H22   H     H_    0.711678 0.181887 0.139946 0.160758
H23   H     H_    0.713268 0.826114 0.133247 0.181350
H24   H     H_    0.288544 0.166570 0.869025 0.146336
H25   H     H_    0.789772 0.324575 0.861191 0.192760
H26   H     H_    0.211696 0.681811 0.139890 0.160723
H27   H     H_    0.213135 0.325793 0.133589 0.181475
H28   H     H_    0.788442 0.666199 0.869341 0.146457
H29   H     H_    0.118481 0.849865 0.768376 0.222283
H30   H     H_    0.882110 0.150938 0.231612 0.219101
H31   H     H_    0.882216 0.848911 0.231609 0.220411
H32   H     H_    0.117755 0.151571 0.769034 0.219435
H33   H     H_    0.618480 0.349865 0.768376 0.222283
H34   H     H_    0.382111 0.650939 0.231612 0.219100
H35   H     H_    0.382217 0.348910 0.231609 0.220413
H36   H     H_    0.617749 0.651588 0.769042 0.219433
O1    O     O_R   0.255040 0.869590 0.478480 -0.586123
O2    O     O_R   0.744960 0.130410 0.521520 -0.576538
O3    O     O_R   0.744960 0.869590 0.521520 -0.574070
O4    O     O_R   0.255040 0.130410 0.478480 -0.584710
O5    O     O_R   0.755040 0.369590 0.478480 -0.586123
O6    O     O_R   0.244960 0.630410 0.521520 -0.576540
O7    O     O_R   0.244960 0.369590 0.521520 -0.574065
O8    O     O_R   0.755040 0.630410 0.478480 -0.584720
O9    O     O_R   0.182050 0.796550 0.624440 -0.607567
O10   O     O_R   0.817950 0.203450 0.375560 -0.592299
O11   O     O_R   0.817950 0.796550 0.375560 -0.590634
O12   O     O_R   0.182050 0.203450 0.624440 -0.595482
O13   O     O_R   0.682050 0.296550 0.624440 -0.607569
O14   O     O_R   0.317950 0.703450 0.375560 -0.592301
O15   O     O_R   0.317950 0.296550 0.375560 -0.590643
O16   O     O_R   0.682050 0.703450 0.624440 -0.595437
O17   O     O_R   0.250530 0.763330 0.367210 -0.561188
O18   O     O_R   0.749470 0.236670 0.632790 -0.511745
O19   O     O_R   0.749470 0.763330 0.632790 -0.555354
O20   O     O_R   0.250530 0.236670 0.367210 -0.560170
O21   O     O_R   0.750530 0.263330 0.367210 -0.561191
O22   O     O_R   0.249470 0.736670 0.632790 -0.511741
O23   O     O_R   0.249470 0.263330 0.632790 -0.555285
O24   O     O_R   0.750530 0.736670 0.367210 -0.560172
O25   O     O_R   0.177260 0.690030 0.513710 -0.599287
O26   O     O_R   0.822740 0.309970 0.486290 -0.601069
O27   O     O_R   0.822740 0.690030 0.486290 -0.607238
O28   O     O_R   0.177260 0.309970 0.513710 -0.597042
O29   O     O_R   0.677260 0.190030 0.513710 -0.599290
O30   O     O_R   0.322740 0.809970 0.486290 -0.601068
O31   O     O_R   0.322740 0.190030 0.486290 -0.607221
O32   O     O_R   0.677260 0.809970 0.513710 -0.597024
O33   O     O_R   0.051640 0.926880 0.885090 -0.601996
O34   O     O_R   0.948360 0.073120 0.114910 -0.605097
O35   O     O_R   0.948360 0.926880 0.114910 -0.603900
O36   O     O_R   0.051640 0.073120 0.885090 -0.605583
O37   O     O_R   0.551640 0.426880 0.885090 -0.601990
O38   O     O_R   0.448360 0.573120 0.114910 -0.605092
O39   O     O_R   0.448360 0.426880 0.114910 -0.603900
O40   O     O_R   0.551640 0.573120 0.885090 -0.605585
O41   O     O_R   0.940620 0.926560 0.986760 -0.510527
O42   O     O_R   0.059380 0.073440 0.013240 -0.510257
O43   O     O_R   0.059380 0.926560 0.013240 -0.512769
O44   O     O_R   0.940620 0.073440 0.986760 -0.510724
O45   O     O_R   0.440620 0.426560 0.986760 -0.510524
O46   O     O_R   0.559380 0.573440 0.013240 -0.510271
O47   O     O_R   0.559380 0.426560 0.013240 -0.512779
O48   O     O_R   0.440620 0.573440 0.986760 -0.510730
O49   O     O_3   0.145838 0.701203 0.066710 -0.684303
H37   H     H_    0.136252 0.674294 0.122645 0.327632
O50   O     O_3   0.854740 0.308886 0.929302 -0.692831
H38   H     H_    0.870307 0.302542 0.970884 0.331133
O51   O     O_3   0.853656 0.688877 0.943102 -0.693584
H39   H     H_    0.862895 0.658769 0.889605 0.327045
O52   O     O_3   0.149738 0.309875 0.062606 -0.689189
H40   H     H_    0.135294 0.303476 0.019505 0.335159
O53   O     O_3   0.645816 0.201278 0.066774 -0.684287
H41   H     H_    0.636221 0.174417 0.122738 0.327658
O54   O     O_3   0.354717 0.808960 0.929367 -0.692846
H42   H     H_    0.370292 0.802576 0.970933 0.331132
O55   O     O_3   0.353783 0.189271 0.942723 -0.693444
H43   H     H_    0.363056 0.159271 0.889133 0.327031
O56   O     O_3   0.649892 0.810178 0.062228 -0.689305
H44   H     H_    0.635417 0.803627 0.019193 0.335174
F1    F     F_    0.128535 0.851766 0.029855 -0.612838
F2    F     F_    0.869262 0.146308 0.972404 -0.627251
F3    F     F_    0.870061 0.852678 0.971723 -0.620579
F4    F     F_    0.126619 0.150854 0.031937 -0.622012
F5    F     F_    0.628545 0.351782 0.029844 -0.612847
F6    F     F_    0.369266 0.646314 0.972399 -0.627276
F7    F     F_    0.370046 0.352708 0.971740 -0.620495
F8    F     F_    0.626568 0.650938 0.031984 -0.622100
O57   O     O_3   0.248783 0.710080 0.779109 -0.690004
H45   H     H_    0.254170 0.684801 0.825907 0.341762
O58   O     O_3   0.758004 0.299753 0.210591 -0.689349
H46   H     H_    0.769513 0.335562 0.241633 0.336817
O59   O     O_3   0.757020 0.701924 0.211143 -0.687870
H47   H     H_    0.768505 0.665357 0.241376 0.341047
O60   O     O_3   0.258149 0.271277 0.777312 -0.681363
H48   H     H_    0.285953 0.238906 0.733980 0.330294
O61   O     O_3   0.748768 0.210057 0.779118 -0.690009
H49   H     H_    0.754147 0.184771 0.825920 0.341769
O62   O     O_3   0.257996 0.799741 0.210594 -0.689324
H50   H     H_    0.269505 0.835556 0.241631 0.336816
O63   O     O_3   0.257031 0.201910 0.211138 -0.687907
H51   H     H_    0.268519 0.165350 0.241375 0.341045
O64   O     O_3   0.758301 0.770965 0.777224 -0.681411
H52   H     H_    0.786005 0.738576 0.733723 0.330343

loop_
_geom_bond_atom_site_label_1
_geom_bond_atom_site_label_2
_ccdc_geom_bond_type
Cu5   O13   S    
C87   O8    A    
O64   H52   S    
C102  O42   A    
C16   C113  A    
C110  C118  A    
C91   O4    A    
C104  O34   A    
C27   C99   S    
C13   C139  A    
C117  C119  A    
C39   O56   S    
C101  O35   A    
C11   C144  A    
C30   C38   A    
C1    O17   A    
C109  C127  A    
C34   C42   A    
C111  C125  A    
C40   O55   S    
C34   H26   S    
C143  C151  A    
C49   F5    S    
C19   C141  A    
C92   C147  S    
Cu10  O39   S    
C82   C98   A    
C130  C134  A    
Cu7   O23   S    
C73   C81   A    
C14   H14   S    
Cu12  O35   S    
C115  C123  A    
C84   C100  A    
Cu4   Cu7   S    
Cu1   O1    S    
C127  C136  A    
C128  C135  A    
C61   H29   S    
C112  C120  A    
Cu6   O6    S    
C27   C35   A    
C21   C29   A    
C92   O32   A    
C103  O43   A    
Cu3   O27   S    
C24   C32   A    
C5    C70   S    
C90   O1    A    
C146  C154  A    
C4    O15   A    
C50   F6    S    
C86   O26   A    
C82   O62   S    
C129  C133  A    
Cu4   O20   S    
C63   C71   A    
C64   H32   S    
C29   H21   S    
C36   C44   A    
Cu9   O37   S    
C148  C153  A    
C137  C145  A    
C8    C71   S    
C48   C96   A    
C16   C138  A    
C16   H16   S    
Cu3   O3    S    
C79   O59   S    
C106  O46   A    
C24   C96   S    
C149  C155  A    
Cu11  O41   S    
C156  H12   S    
C6    O9    A    
C21   C93   S    
Cu8   O8    S    
C5    O21   A    
C118  C120  A    
C121  C123  A    
C67   H35   S    
C49   C97   A    
C21   C42   A    
C116  C130  A    
C80   O60   S    
C81   O61   S    
C125  C127  A    
C24   C43   A    
C107  O37   A    
C10   C138  A    
Cu1   Cu6   S    
C105  O39   A    
C110  C128  A    
C15   C137  A    
Cu7   O15   S    
C6    C69   S    
C68   H36   S    
C69   C77   A    
C86   O5    A    
C45   C93   A    
C71   C79   A    
C8    O24   A    
Cu1   O25   S    
C62   C70   A    
Cu10  O46   S    
C7    O23   A    
C108  O48   A    
C1    C74   S    
C78   C94   A    
C119  H6    S    
O53   H41   S    
C9    C140  A    
Cu4   O4    S    
Cu11  O44   S    
C66   C74   A    
C91   O31   A    
C49   C57   A    
C111  C119  A    
O51   H39   S    
C89   O29   A    
C52   C60   A    
C59   C67   A    
C53   C61   A    
C23   C95   S    
C3    O16   A    
C55   C63   A    
C56   C64   A    
C1    O14   A    
C35   C43   A    
C7    O12   A    
C45   C53   A    
C46   F2    S    
O57   H45   S    
Cu1   O17   S    
C22   C94   S    
Cu6   O22   S    
C153  H9    S    
C50   C98   A    
Cu3   O11   S    
C7    C72   S    
Cu12  O34   S    
C52   C100  A    
C36   H28   S    
C25   C38   A    
C20   H20   S    
C46   C94   A    
C27   C40   A    
O63   H51   S    
Cu5   O29   S    
C11   C141  A    
C60   C68   A    
C2    C73   S    
C25   C97   S    
C14   C140  A    
C13   H13   S    
C87   C152  S    
C88   C151  S    
C67   C75   A    
C122  C124  A    
C60   C106  S    
C3    O19   A    
C22   C30   A    
C106  O40   A    
O56   H44   S    
C68   C76   A    
C41   O50   S    
C12   C143  A    
C51   F7    S    
C56   C102  S    
C144  C152  A    
C92   O3    A    
C125  C135  A    
C138  C146  A    
C30   H22   S    
C123  H2    S    
Cu7   O31   S    
C126  C136  A    
C66   H34   S    
C47   F3    S    
Cu11  O33   S    
Cu12  O43   S    
C113  C121  A    
C48   F4    S    
C122  H3    S    
C12   C136  A    
O60   H48   S    
Cu3   Cu8   S    
O50   H38   S    
C25   C33   A    
Cu6   O14   S    
Cu8   O32   S    
Cu9   O48   S    
C131  C134  A    
C101  O41   A    
C76   C84   A    
C109  C117  A    
O54   H42   S    
C52   F8    S    
C59   C105  S    
C54   C104  S    
C78   O58   S    
C90   C145  S    
C22   C41   A    
C14   C115  A    
Cu4   O12   S    
C31   H23   S    
C2    O18   A    
C32   H24   S    
C85   C150  S    
C4    C75   S    
Cu2   Cu5   S    
C19   H19   S    
C9    C137  A    
C124  H1    S    
C17   H17   S    
C104  O44   A    
C15   H15   S    
C126  C128  A    
O58   H46   S    
C112  C126  A    
C35   H27   S    
C33   H25   S    
C83   C99   A    
C140  C148  A    
C74   C82   A    
C155  H11   S    
C83   O63   S    
Cu2   O2    S    
C38   O53   S    
Cu11  Cu12  S    
C54   C62   A    
C42   O49   S    
Cu5   O5    S    
C23   C44   A    
C50   C58   A    
C130  C132  A    
C79   C95   A    
O61   H49   S    
C11   C135  A    
C89   O2    A    
C152  C155  A    
C46   C54   A    
C85   O25   A    
C151  C156  A    
C18   C111  A    
C154  H10   S    
Cu10  O38   S    
Cu2   O10   S    
C10   C139  A    
C116  C124  A    
C9    C133  A    
C57   C65   A    
C26   C37   A    
C102  O36   A    
Cu10  O47   S    
C28   C39   A    
C107  O47   A    
C17   C143  A    
C33   C41   A    
C142  C150  A    
C18   C144  A    
C105  O45   A    
C75   C83   A    
O49   H37   S    
C53   C103  S    
C5    O10   A    
C6    O22   A    
C77   C93   A    
C12   C142  A    
C58   C108  S    
C13   C116  A    
Cu6   O30   S    
C28   C36   A    
C72   C80   A    
C29   C37   A    
C23   C31   A    
Cu12  O42   S    
Cu9   Cu10  S    
C70   C78   A    
C8    O11   A    
C85   O6    A    
Cu2   O26   S    
C43   O52   S    
C141  C149  A    
C45   F1    S    
C139  C147  A    
Cu9   O45   S    
C87   O27   A    
C65   C73   A    
C90   O30   A    
C77   O57   S    
C147  C154  A    
C44   O51   S    
C58   C66   A    
O62   H50   S    
C63   H31   S    
C132  C133  A    
C88   O7    A    
C2    O13   A    
C80   C96   A    
O55   H43   S    
C145  C153  A    
Cu8   O16   S    
C32   C40   A    
Cu2   O18   S    
C150  C156  A    
C91   C148  S    
C26   C34   A    
Cu5   O21   S    
C51   C99   A    
C89   C146  S    
C20   C142  A    
C62   H30   S    
C86   C149  S    
Cu7   O7    S    
O59   H47   S    
C4    O20   A    
C18   H18   S    
C37   O54   S    
C103  O33   A    
C121  H4    S    
Cu4   O28   S    
C15   C114  A    
Cu8   O24   S    
Cu9   O40   S    
C3    C76   S    
C26   C98   S    
C117  H8    S    
Cu11  O36   S    
C57   C107  S    
C118  H7    S    
C51   C59   A    
O52   H40   S    
C17   C112  A    
C47   C55   A    
C115  C129  A    
C19   C110  A    
C61   C69   A    
C48   C56   A    
C113  C131  A    
C88   O28   A    
C114  C132  A    
C10   C134  A    
C108  O38   A    
C55   C101  S    
Cu1   O9    S    
C28   C100  S    
C84   O64   S    
C81   C97   A    
Cu3   O19   S    
C31   C39   A    
C64   C72   A    
C20   C109  A    
C114  C122  A    
C120  H5    S    
C65   H33   S    
C47   C95   A    
C129  C131  A    
