data_mof_unit_23916.cif
_audit_creation_date              2012-10-26T18:32:18-0400
_audit_creation_method            fapswitch 2.2
_symmetry_space_group_name_H-M    P1
_symmetry_Int_Tables_number       1
_space_group_crystal_system       triclinic
_cell_length_a                    12.347206
_cell_length_b                    13.18305
_cell_length_c                    15.871968
_cell_angle_alpha                 77.628308
_cell_angle_beta                  101.427774
_cell_angle_gamma                 116.602075
_cell_volume                      2240.8997853

loop_
_atom_site_label
_atom_site_type_symbol
_atom_type_description
_atom_site_fract_x
_atom_site_fract_y
_atom_site_fract_z
_atom_type_partial_charge
C1    C     C_R   0.854833 0.286591 0.506857 0.540477
C2    C     C_R   0.227826 0.834721 0.469766 0.004520
C3    C     C_R   0.815788 0.084071 0.558867 -0.103959
C4    C     C_R   0.999780 0.499653 0.659593 0.565405
C5    C     C_R   0.737295 0.968958 0.574611 -0.116999
C6    C     C_R   0.613640 0.931876 0.545782 -0.110946
C7    C     C_R   0.566179 0.009540 0.496947 0.035797
C8    C     C_R   0.649126 0.124470 0.472241 0.023795
C9    C     C_R   0.439329 0.976528 0.470755 0.032800
C10   C     C_R   0.398695 0.054555 0.413540 0.047288
C11   C     C_R   0.483202 0.162310 0.381686 -0.125531
C12   C     C_3   0.105004 0.459215 0.070547 0.414606
C13   C     C_R   0.606558 0.196191 0.409444 -0.112787
C14   C     C_R   0.351239 0.868387 0.500361 -0.123684
C15   C     C_R   0.188698 0.912972 0.414503 -0.119179
C16   C     C_R   0.145045 0.713441 0.487424 0.543203
C17   C     C_R   0.772735 0.163555 0.510078 -0.000198
C18   C     C_R   0.348999 0.329131 0.637146 -0.087967
C19   C     C_R   0.759661 0.645585 0.383451 0.059636
C20   C     C_R   0.663189 0.677221 0.357396 -0.131726
C21   C     C_R   0.559582 0.622293 0.400850 -0.111710
C22   C     C_R   0.551431 0.534680 0.471452 0.004657
C23   C     C_3   0.005052 0.497642 0.084349 -0.036267
C24   C     C_R   0.653022 0.505300 0.495816 0.181328
C25   C     C_R   0.447148 0.475374 0.518970 -0.021214
C26   C     C_R   0.447759 0.388634 0.589077 -0.003555
C27   C     C_R   0.547149 0.361482 0.611632 -0.134788
C28   C     C_R   0.000149 0.500146 0.340459 0.548316
C29   C     C_R   0.647507 0.418722 0.566280 -0.067321
C30   C     C_R   0.341789 0.497844 0.500736 0.013654
C31   C     C_R   0.248916 0.354885 0.616713 0.384826
C32   C     C_3   0.099859 0.461017 0.970603 -0.243700
C33   C     C_3   0.875938 0.410365 0.949548 0.135948
C34   C     C_3   0.029083 0.618988 0.033402 -0.208516
C35   C     C_3   0.875789 0.417352 0.045741 -0.212153
C36   C     C_1   0.000460 0.499632 0.251038 0.055164
C37   C     C_3   0.000672 0.498767 0.917418 -0.012218
C38   C     C_3   0.034867 0.621787 0.936190 0.138851
C39   C     C_1   0.002274 0.498685 0.175970 0.036730
C40   C     C_1   0.000010 0.498925 0.824933 0.046230
C41   C     C_1   0.999656 0.499248 0.749273 0.059696
C42   C     C_R   0.273814 0.022811 0.387019 -0.111228
Cl1   Cl    Cl    0.128217 0.276807 0.680427 -0.562173
Cl2   Cl    Cl    0.746033 0.424535 0.883534 -0.510648
Cl3   Cl    Cl    0.944028 0.689247 0.867911 -0.495915
Cu1   Cu    Cu3+1 0.098280 0.475420 0.519630 1.038809
Cu2   Cu    Cu3+1 0.901720 0.524580 0.480370 0.948326
H1    H     H_    0.189605 0.519503 0.946995 0.176791
H2    H     H_    0.081083 0.375349 0.956058 0.171227
H3    H     H_    0.667794 0.278120 0.378693 0.160056
H4    H     H_    0.547765 0.295249 0.665500 0.147291
H5    H     H_    0.349613 0.262731 0.690852 0.155453
H6    H     H_    0.333846 0.562316 0.448491 0.136185
H7    H     H_    0.839629 0.688750 0.349274 0.135329
H8    H     H_    0.487576 0.650048 0.378003 0.131982
H9    H     H_    0.668736 0.744537 0.303293 0.137161
H10   H     H_    0.719080 0.392148 0.589323 0.188274
H11   H     H_    0.863867 0.322718 0.945201 0.170640
H12   H     H_    0.955093 0.642113 0.040044 0.177690
H13   H     H_    0.842255 0.330557 0.084118 0.181879
H14   H     H_    0.809153 0.450715 0.050601 0.182826
H15   H     H_    0.129984 0.677941 0.921535 0.179256
H16   H     H_    0.113809 0.685742 0.061671 0.189303
H17   H     H_    0.156599 0.336734 0.259756 0.375319
H18   H     H_    0.387380 0.730928 0.077931 0.385178
H19   H     H_    0.093297 0.887974 0.389983 0.138168
H20   H     H_    0.453873 0.220843 0.334941 0.141210
H21   H     H_    0.242366 0.081945 0.343127 0.148324
H22   H     H_    0.376067 0.807630 0.546977 0.126588
H23   H     H_    0.910149 0.111077 0.586629 0.192239
H24   H     H_    0.558456 0.841339 0.560933 0.115895
H25   H     H_    0.771933 0.908360 0.611727 0.160525
N1    N     N_R   0.246300 0.438200 0.549400 -0.231309
N2    N     N_R   0.754300 0.561180 0.451130 -0.241288
O1    O     O_R   0.972520 0.318130 0.524690 -0.451082
O2    O     O_2   0.179524 0.286286 0.117133 -0.217774
O3    O     O_3   0.070717 0.304976 0.232926 -0.504236
O4    O     O_2   0.263877 0.570059 0.203335 -0.313001
O5    O     O_2   0.347011 0.506280 0.108366 -0.212655
O6    O     O_3   0.305656 0.684648 0.049435 -0.576428
O7    O     O_R   0.806530 0.359650 0.491530 -0.543910
O8    O     O_R   0.083030 0.479240 0.637150 -0.441980
O9    O     O_R   0.917040 0.520750 0.603990 -0.505836
O10   O     O_R   0.193470 0.640350 0.508470 -0.517489
O11   O     O_R   0.027480 0.681870 0.475310 -0.505405
O12   O     O_R   0.082960 0.479250 0.396010 -0.482235
O13   O     O_R   0.916970 0.520760 0.362850 -0.521553
O14   O     O_2   0.961165 0.226717 0.088305 -0.291908
S1    S     S_3+6 0.078002 0.315034 0.126532 0.050020
S2    S     S_3+6 0.259006 0.555260 0.111153 0.007603

loop_
_geom_bond_atom_site_label_1
_geom_bond_atom_site_label_2
_ccdc_geom_bond_type
C33   H11   S    
C10   C42   A    
H17   O3    S    
C19   C20   A    
C18   C26   A    
C20   H9    S    
C18   H5    S    
C7    C8    A    
O4    S2    D    
C12   C23   S    
O3    S1    S    
C26   C27   A    
C8    C13   A    
C31   Cl1   S    
Cu2   O11   S    
C12   S2    S    
C5    H25   S    
C5    C6    A    
C31   N1    A    
C27   C29   A    
C4    C41   S    
C1    O7    A    
C16   O10   A    
C24   C29   A    
C38   Cl3   S    
Cu1   O8    S    
C27   H4    S    
O5    S2    D    
C22   C25   A    
Cu2   O9    S    
C2    C16   S    
C9    C10   A    
O2    S1    D    
H18   O6    S    
C21   C22   A    
C12   C32   S    
C42   H21   S    
C32   H1    S    
Cu1   O1    S    
C11   H20   S    
C19   N2    A    
C6    H24   S    
C30   H6    S    
C1    O1    A    
C12   S1    S    
C3    H23   S    
Cu2   N2    S    
C21   H8    S    
C30   N1    A    
C25   C26   A    
C15   H19   S    
C33   C37   S    
C35   H13   S    
Cu2   O13   S    
C9    C14   A    
C37   C38   S    
C23   C34   S    
C28   O13   A    
C35   H14   S    
C32   C37   S    
O14   S1    D    
C2    C15   A    
Cu1   O10   S    
C19   H7    S    
C40   C41   T    
C29   H10   S    
C23   C35   S    
C28   O12   A    
C34   H12   S    
C14   H22   S    
C22   C24   A    
C25   C30   A    
C7    C9    A    
Cu1   Cu2   S    
C34   C38   S    
C33   Cl2   S    
C36   C39   T    
C15   C42   A    
C3    C5    A    
C6    C7    A    
C37   C40   S    
C1    C17   S    
C8    C17   A    
C11   C13   A    
C24   N2    A    
C16   O11   A    
C4    O9    A    
C23   C39   S    
C34   H16   S    
C33   C35   S    
C3    C17   A    
Cu2   O7    S    
O6    S2    S    
C2    C14   A    
C32   H2    S    
C10   C11   A    
C13   H3    S    
C4    O8    A    
C20   C21   A    
C28   C36   S    
C18   C31   A    
Cu1   O12   S    
Cu1   N1    S    
C38   H15   S    
