data_mof_unit_42507.cif
_audit_creation_date              2012-12-11T15:23:34-0500
_audit_creation_method            fapswitch 2.2
_symmetry_space_group_name_H-M    P1
_symmetry_Int_Tables_number       1
_space_group_crystal_system       triclinic
_cell_length_a                    6.932634
_cell_length_b                    17.478147
_cell_length_c                    19.297772
_cell_angle_alpha                 109.472446
_cell_angle_beta                  90.168725
_cell_angle_gamma                 90.532882
_cell_volume                      2204.41610047

loop_
_atom_site_label
_atom_site_type_symbol
_atom_type_description
_atom_site_fract_x
_atom_site_fract_y
_atom_site_fract_z
_atom_type_partial_charge
O1    O     O_R   0.505810 0.439670 0.562310 -0.538762
O2    O     O_R   0.169070 0.404920 0.411210 -0.539847
O3    O     O_R   0.005550 0.560330 0.437690 -0.540131
C1    C     C_R   0.338666 0.381326 0.383189 0.691091
O4    O     O_R   0.175650 0.430000 0.560110 -0.542776
O5    O     O_R   0.012170 0.585580 0.587650 -0.537686
C2    C     C_R   0.344543 0.414662 0.581607 0.709779
O6    O     O_R   0.499180 0.414420 0.412350 -0.541920
O7    O     O_3   0.341430 0.551020 0.508860 -0.368163
V1    V     V_3+5 0.063930 0.490540 0.498360 1.393244
O8    O     O_R   0.682850 0.595080 0.588790 -0.541914
C3    C     C_R   0.852662 0.618416 0.616915 0.680794
O9    O     O_R   0.676280 0.570000 0.439890 -0.541397
C4    C     C_R   0.845213 0.585126 0.418231 0.705065
V2    V     V_3+5 0.564760 0.509460 0.501640 1.395538
O10   O     O_3   0.837130 0.448980 0.491140 -0.369627
C5    C     C_R   0.067372 0.867705 0.180007 -0.210025
C6    C     C_R   0.914859 0.865503 0.131141 -0.107322
C7    C     C_R   0.751000 0.817339 0.130578 -0.193090
C8    C     C_R   0.740047 0.770718 0.177253 0.115105
C9    C     C_R   0.892283 0.774229 0.227146 -0.014592
C10   C     C_R   0.056014 0.824126 0.229643 0.058963
C11   C     C_R   0.578617 0.720847 0.175089 -0.174339
C12   C     C_R   0.566354 0.675390 0.222427 -0.203012
C13   C     C_R   0.715685 0.678639 0.272572 0.105173
C14   C     C_R   0.880043 0.727815 0.274643 0.044199
C15   C     C_R   0.032083 0.730405 0.324059 0.054214
C16   C     C_R   0.192618 0.780813 0.327110 -0.264627
C17   C     C_R   0.204509 0.828886 0.281547 0.292879
C18   C     C_R   0.703740 0.633338 0.320464 -0.224769
C19   C     C_R   0.856161 0.634786 0.369206 -0.086067
C20   C     C_R   0.020398 0.683124 0.370258 -0.202713
H1    H     H_    0.193512 0.904689 0.179892 0.163638
H2    H     H_    0.633086 0.815135 0.092890 0.123600
H3    H     H_    0.460579 0.717656 0.137253 0.129142
H4    H     H_    0.439411 0.637916 0.220019 0.131086
H5    H     H_    0.577436 0.595669 0.318789 0.120776
H6    H     H_    0.138009 0.684952 0.407968 0.126105
H7    H     H_    0.308472 0.783846 0.365836 0.133670
C21   C     C_3   0.812314 0.817080 0.741522 -0.140944
C22   C     C_3   0.981682 0.767459 0.696819 -0.139400
H8    H     H_    0.060550 0.781453 0.652434 0.101519
H9    H     H_    0.752282 0.872983 0.735024 0.099353
C23   C     C_3   0.867481 0.688675 0.687616 -0.007653
C24   C     C_3   0.697964 0.737470 0.731500 -0.116084
C25   C     C_3   0.789371 0.732476 0.803223 -0.139525
C26   C     C_3   0.958740 0.682854 0.758520 -0.140775
C27   C     C_3   0.073090 0.762464 0.768541 -0.115997
C28   C     C_3   0.903572 0.811259 0.812426 -0.006780
H10   H     H_    0.543431 0.726799 0.715715 0.106116
H11   H     H_    0.710501 0.718482 0.847607 0.101249
H12   H     H_    0.018772 0.626951 0.765017 0.099696
H13   H     H_    0.227622 0.773135 0.784327 0.105898
C29   C     C_3   0.557994 0.278751 0.280422 -0.111083
C30   C     C_3   0.483411 0.190412 0.264298 -0.192040
H14   H     H_    0.564485 0.141401 0.275717 0.113030
H15   H     H_    0.701192 0.302326 0.304509 0.115615
C31   C     C_3   0.413441 0.188725 0.187839 -0.068004
C32   C     C_3   0.483876 0.276005 0.204533 0.337902
C33   C     C_3   0.286716 0.309706 0.236206 -0.192532
C34   C     C_3   0.213799 0.221160 0.220371 -0.144134
C35   C     C_3   0.284344 0.223395 0.297446 -0.136830
C36   C     C_3   0.357675 0.310978 0.312492 -0.052076
H16   H     H_    0.206453 0.358644 0.224335 0.111070
H17   H     H_    0.070986 0.197383 0.195997 0.138274
H18   H     H_    0.199788 0.201797 0.336199 0.107500
C37   C     C_R   0.569049 0.135083 0.821329 -0.224577
C38   C     C_R   0.416869 0.135438 0.869582 -0.083890
C39   C     C_R   0.252746 0.182464 0.869900 -0.222497
C40   C     C_R   0.240466 0.229069 0.823186 0.088889
C41   C     C_R   0.392252 0.227323 0.774139 0.052410
C42   C     C_R   0.556650 0.179825 0.772972 0.091361
C43   C     C_R   0.078908 0.277373 0.824561 -0.191288
C44   C     C_R   0.066484 0.322783 0.777126 -0.184787
C45   C     C_R   0.215030 0.320523 0.727237 0.091287
C46   C     C_R   0.379450 0.273041 0.726084 0.052410
C47   C     C_R   0.531233 0.271293 0.677035 0.089083
C48   C     C_R   0.692808 0.223000 0.675670 -0.192995
C49   C     C_R   0.705216 0.177580 0.723096 -0.185285
C50   C     C_R   0.202561 0.365210 0.678834 -0.226256
C51   C     C_R   0.354694 0.364818 0.630549 -0.084453
C52   C     C_R   0.518903 0.317858 0.630288 -0.222467
H19   H     H_    0.695338 0.098587 0.820300 0.121303
H20   H     H_    0.135190 0.183446 0.907118 0.129266
H21   H     H_    0.961282 0.279631 0.862030 0.134436
H22   H     H_    0.939761 0.359272 0.779121 0.134325
H23   H     H_    0.076227 0.401672 0.679836 0.121705
H24   H     H_    0.636455 0.316868 0.593067 0.127174
H25   H     H_    0.810436 0.220742 0.638204 0.132645
H26   H     H_    0.831929 0.141082 0.721095 0.133801
O11   O     O_R   0.271890 0.085690 0.087580 -0.541805
O12   O     O_R   0.595690 0.070020 0.939870 -0.541963
O13   O     O_R   0.758900 0.914390 0.912370 -0.538997
C53   C     C_R   0.426858 0.085476 0.918416 0.706816
O14   O     O_R   0.602020 0.095100 0.088770 -0.533138
O15   O     O_R   0.765280 0.939660 0.062330 -0.538429
C54   C     C_R   0.432438 0.118633 0.116863 0.692579
O16   O     O_R   0.265520 0.060430 0.937620 -0.539811
O17   O     O_3   0.429560 0.949050 0.991100 -0.369740
V3    V     V_3+5 0.707160 0.009450 0.001650 1.412255
O18   O     O_R   0.094540 0.929890 0.060190 -0.543287
C55   C     C_R   0.925540 0.914701 0.081712 0.708006
O19   O     O_R   0.088200 0.904800 0.911290 -0.542860
C56   C     C_R   0.918397 0.881517 0.883129 0.676727
V4    V     V_3+5 0.206300 0.990390 0.998440 1.401913
O20   O     O_3   0.934030 0.050940 0.008900 -0.367008
N1    N     N_2   0.593259 0.303405 0.153353 -0.523931
H27   H     H_    0.527345 0.288943 0.102579 0.243854
C57   C     C_3   0.659533 0.386825 0.181879 -0.558468
H28   H     H_    0.748091 0.400963 0.139762 0.201314
H29   H     H_    0.750660 0.396752 0.231616 0.196701
H30   H     H_    0.534708 0.428547 0.195716 0.184736
N2    N     N_2   0.366650 0.881641 0.288341 -0.517559
H31   H     H_    0.491473 0.860714 0.304756 0.269049
C58   C     C_3   0.331383 0.965325 0.331892 -0.579675
H32   H     H_    0.302289 0.970436 0.389872 0.197203
H33   H     H_    0.206729 0.989494 0.309721 0.201655
H34   H     H_    0.460490 0.002872 0.330523 0.197614

loop_
_geom_bond_atom_site_label_1
_geom_bond_atom_site_label_2
_ccdc_geom_bond_type
C9    C14   A    
C37   H19   S    
O18   C55   A    
C10   C17   A    
O15   C55   A    
C22   H8    S    
O11   V4    S    
C7    C8    A    
C4    C19   S    
C1    O6    A    
C28   C56   S    
C51   C52   A    
C47   C48   A    
C1    C36   S    
C14   C15   A    
C12   H4    S    
O16   V4    S    
C33   C36   S    
C6    C55   S    
C47   C52   A    
C16   C17   A    
C6    C7    A    
C42   C49   A    
C57   H29   S    
O5    C3    A    
C41   C46   A    
C29   C36   S    
C53   O16   A    
C21   C28   S    
C30   C35   S    
C37   C42   A    
C43   C44   A    
C49   H26   S    
C29   C30   S    
O8    V2    S    
C21   H9    S    
C26   C27   S    
C38   C39   A    
C58   H33   S    
N1    H27   S    
C40   C41   A    
O1    V2    S    
C20   H6    S    
O7    V1    S    
C34   C35   S    
C23   C26   S    
C31   C34   S    
C32   C33   S    
O1    C2    A    
O9    C4    A    
N1    C57   S    
C21   C24   S    
C31   C54   S    
C5    H1    S    
C40   C43   A    
O13   C56   A    
C29   C32   S    
C48   H25   S    
O18   V4    S    
C27   H13   S    
O17   V4    S    
C44   C45   A    
C35   H18   S    
C37   C38   A    
C12   C13   A    
C57   H30   S    
O4    C2    A    
C48   C49   A    
C16   H7    S    
C31   C32   S    
C24   C25   S    
C25   H11   S    
C38   C53   S    
C18   H5    S    
C33   C34   S    
O2    C1    A    
C45   C46   A    
C35   C36   S    
O17   V3    S    
C25   C28   S    
C8    C11   A    
C11   C12   A    
C58   H34   S    
C30   H14   S    
O12   C53   A    
C5    C6    A    
O19   V4    S    
O11   C54   A    
O13   V3    S    
C43   H21   S    
O3    C4    A    
C50   H23   S    
C21   C22   S    
C2    C51   S    
O6    V2    S    
C11   H3    S    
O9    V2    S    
C22   C23   S    
O2    V1    S    
O19   C56   A    
C23   C24   S    
O12   V3    S    
N2    H31   S    
C45   C50   A    
C13   C18   A    
C17   N2    S    
C25   C26   S    
C27   C28   S    
C15   C20   A    
O14   V3    S    
C19   C20   A    
C50   C51   A    
C7    H2    S    
O5    V1    S    
O8    C3    A    
O14   C54   A    
C26   H12   S    
C44   H22   S    
V4    O20   S    
V3    O20   S    
C5    C10   A    
C33   H16   S    
C13   C14   A    
C41   C42   A    
C3    C23   S    
O3    V1    S    
V1    O10   S    
C57   H28   S    
C46   C47   A    
C18   C19   A    
C24   H10   S    
C52   H24   S    
V2    O10   S    
O15   V3    S    
C22   C27   S    
O7    V2    S    
C39   C40   A    
C32   N1    S    
C34   H17   S    
O4    V1    S    
C8    C9    A    
C30   C31   S    
C15   C16   A    
C39   H20   S    
C9    C10   A    
C58   H32   S    
N2    C58   S    
C29   H15   S    
