data_mof_unit_38290.cif
_audit_creation_date              2012-10-26T20:16:52-0400
_audit_creation_method            fapswitch 2.2
_symmetry_space_group_name_H-M    P1
_symmetry_Int_Tables_number       1
_space_group_crystal_system       triclinic
_cell_length_a                    10.894583
_cell_length_b                    10.890034
_cell_length_c                    10.414206
_cell_angle_alpha                 91.941294
_cell_angle_beta                  91.691132
_cell_angle_gamma                 90.244762
_cell_volume                      1234.30199828

loop_
_atom_site_label
_atom_site_type_symbol
_atom_type_description
_atom_site_fract_x
_atom_site_fract_y
_atom_site_fract_z
_atom_type_partial_charge
Br1   Br    Br    0.066044 0.194149 0.950581 -0.474050
Br2   Br    Br    0.933921 0.805824 0.049444 -0.474049
Br3   Br    Br    0.272310 0.090106 0.217113 -0.482003
Br4   Br    Br    0.727665 0.910010 0.783014 -0.481996
C1    C     C_R   0.500516 0.261355 0.497876 0.561143
C2    C     C_R   0.562900 0.876651 0.831826 0.205313
C3    C     C_R   0.537378 0.106988 0.254314 0.049421
C4    C     C_R   0.462606 0.893010 0.745680 0.049442
C5    C     C_R   0.657235 0.125627 0.213011 -0.106932
C6    C     C_R   0.342731 0.874311 0.786920 -0.106877
C7    C     C_R   0.676967 0.160626 0.087466 -0.100793
C8    C     C_R   0.322959 0.839320 0.912461 -0.100780
C9    C     C_R   0.577253 0.178907 0.002861 -0.136934
C10   C     C_R   0.422649 0.821107 0.997124 -0.136897
C11   C     C_R   0.518879 0.929357 0.388659 -0.110710
C12   C     C_R   0.499487 0.738645 0.502124 0.561119
C13   C     C_R   0.481139 0.070641 0.611343 -0.110686
C14   C     C_R   0.499834 0.872157 0.504876 0.019598
C15   C     C_R   0.500179 0.127842 0.495125 0.019617
C16   C     C_R   0.261335 0.500423 0.497658 0.556367
C17   C     C_R   0.738665 0.499578 0.502341 0.556359
C18   C     C_R   0.481091 0.943945 0.617948 -0.000281
C19   C     C_R   0.518924 0.056054 0.382053 -0.000290
C20   C     C_1   0.500079 0.499986 0.071910 0.087227
C21   C     C_1   0.499921 0.500015 0.928090 0.087225
C22   C     C_R   0.194537 0.545783 0.059536 -0.131995
C23   C     C_R   0.872193 0.497792 0.506115 0.009562
C24   C     C_R   0.805463 0.454187 0.940454 -0.131988
C25   C     C_R   0.160956 0.559950 0.187682 -0.042791
C26   C     C_R   0.839050 0.440033 0.812309 -0.042793
C27   C     C_R   0.104468 0.462562 0.248905 0.018389
C28   C     C_R   0.895528 0.537433 0.751094 0.018371
C29   C     C_R   0.077309 0.353108 0.177752 -0.047954
C30   C     C_R   0.922671 0.646887 0.822255 -0.047977
C31   C     C_R   0.109047 0.340313 0.048726 0.191808
C32   C     C_R   0.890930 0.659668 0.951281 0.191825
C33   C     C_R   0.168991 0.436232 0.990247 -0.090395
C34   C     C_R   0.127806 0.502215 0.493885 0.009564
C35   C     C_R   0.830994 0.563737 0.009751 -0.090380
C36   C     C_R   0.929091 0.478364 0.388486 -0.137161
C37   C     C_R   0.070908 0.521646 0.611514 -0.137170
C38   C     C_R   0.944316 0.518804 0.620255 -0.020677
C39   C     C_R   0.055683 0.481203 0.379745 -0.020668
C40   C     C_R   0.457520 0.160705 0.043233 -0.077037
C41   C     C_R   0.542398 0.839361 0.956812 -0.077045
C42   C     C_R   0.437059 0.123406 0.168222 0.205349
Cu1   Cu    Cu3+1 0.500000 0.500000 0.625300 1.001917
Cu2   Cu    Cu3+1 0.500000 0.500000 0.374700 1.001923
H1    H     H_    0.194386 0.426514 0.890783 0.138287
H2    H     H_    0.760645 0.379887 0.986704 0.115138
H3    H     H_    0.177915 0.646941 0.238800 0.151119
H4    H     H_    0.822102 0.353043 0.761184 0.151132
H5    H     H_    0.028993 0.279033 0.221776 0.160817
H6    H     H_    0.970978 0.720970 0.778237 0.160801
H7    H     H_    0.874357 0.461587 0.300942 0.129359
H8    H     H_    0.125642 0.538422 0.699059 0.129356
H9    H     H_    0.592839 0.206060 0.905619 0.136137
H10   H     H_    0.407030 0.793960 0.094364 0.136134
H11   H     H_    0.380839 0.173398 0.976597 0.164184
H12   H     H_    0.805597 0.573445 0.109215 0.138288
H13   H     H_    0.619058 0.826714 0.023492 0.164168
H14   H     H_    0.735333 0.110194 0.277145 0.139775
H15   H     H_    0.264650 0.889691 0.722741 0.139730
H16   H     H_    0.769786 0.172297 0.055497 0.176282
H17   H     H_    0.230124 0.827604 0.944381 0.176208
H18   H     H_    0.533998 0.875302 0.301174 0.139312
H19   H     H_    0.466016 0.124696 0.698828 0.139318
H20   H     H_    0.239363 0.620074 0.013279 0.115119
N1    N     N_1   0.500010 0.499990 0.186410 -0.195811
N2    N     N_1   0.499990 0.500010 0.813590 -0.195812
O1    O     O_R   0.499990 0.319650 0.605810 -0.514996
O2    O     O_R   0.500010 0.680350 0.394190 -0.514995
O3    O     O_R   0.499990 0.319640 0.394190 -0.479822
O4    O     O_R   0.500010 0.680360 0.605810 -0.479833
O5    O     O_R   0.319640 0.500010 0.605810 -0.510837
O6    O     O_R   0.680360 0.499990 0.394190 -0.510835
O7    O     O_R   0.319650 0.500010 0.394190 -0.489973
O8    O     O_R   0.680350 0.499990 0.605810 -0.489978

loop_
_geom_bond_atom_site_label_1
_geom_bond_atom_site_label_2
_ccdc_geom_bond_type
C11   C14   A    
C2    C41   A    
C37   C38   A    
Cu2   O6    S    
C6    H15   S    
C12   O2    A    
Cu2   N1    S    
C37   H8    S    
C17   O6    A    
C27   C39   S    
C16   O7    A    
C12   O4    A    
C31   C33   A    
C4    C6    A    
C9    H9    S    
C40   H11   S    
C33   H1    S    
C13   C15   A    
C24   H2    S    
C36   C39   A    
C17   O8    A    
C4    C18   S    
C27   C29   A    
C11   C19   A    
C17   C23   S    
Cu2   O2    S    
C40   C42   A    
C20   N1    T    
C10   C41   A    
C29   H5    S    
C10   H10   S    
C13   H19   S    
C5    H14   S    
C3    C42   A    
C20   C21   S    
C34   C37   A    
Br4   C2    S    
C7    H16   S    
C2    C4    A    
C24   C35   A    
C11   H18   S    
C16   O5    A    
C28   C30   A    
Cu2   O7    S    
C15   C19   A    
Cu1   N2    S    
C16   C34   S    
Cu1   Cu2   S    
C23   C36   A    
C36   H7    S    
C5    C7    A    
Cu1   O1    S    
C6    C8    A    
C12   C14   S    
C8    C10   A    
C30   H6    S    
Br1   C31   S    
C25   H3    S    
Br2   C32   S    
C3    C5    A    
C26   H4    S    
C14   C18   A    
Cu2   O3    S    
C32   C35   A    
Cu1   O4    S    
C22   C33   A    
C1    C15   S    
C8    H17   S    
Br3   C42   S    
C13   C18   A    
C22   H20   S    
C24   C26   A    
Cu1   O5    S    
C34   C39   A    
C25   C27   A    
C26   C28   A    
C7    C9    A    
C23   C38   A    
C3    C19   S    
C35   H12   S    
C41   H13   S    
C29   C31   A    
C30   C32   A    
C1    O3    A    
C22   C25   A    
C1    O1    A    
C28   C38   S    
C21   N2    T    
Cu1   O8    S    
C9    C40   A    
