data_mof_unit_26337.cif
_audit_creation_date              2012-12-10T17:22:44-0500
_audit_creation_method            fapswitch 2.2
_symmetry_space_group_name_H-M    P1
_symmetry_Int_Tables_number       1
_space_group_crystal_system       triclinic
_cell_length_a                    10.639067
_cell_length_b                    10.801828
_cell_length_c                    9.616326
_cell_angle_alpha                 90.31141
_cell_angle_beta                  89.90828
_cell_angle_gamma                 91.816807
_cell_volume                      1104.54839209

loop_
_atom_site_label
_atom_site_type_symbol
_atom_type_description
_atom_site_fract_x
_atom_site_fract_y
_atom_site_fract_z
_atom_type_partial_charge
C1    C     C_R   0.496647 0.262746 0.499626 0.846520
C2    C     C_3   0.960081 0.596987 0.428362 -0.202579
C3    C     C_3   0.040540 0.492847 0.367761 -0.139754
C4    C     C_3   0.121936 0.499857 0.499484 0.031134
C5    C     C_R   0.297187 0.129243 0.647752 -0.159663
C6    C     C_R   0.206160 0.066135 0.725959 -0.241016
C7    C     C_R   0.206717 0.938118 0.734320 -0.196602
C8    C     C_R   0.297170 0.871733 0.663191 0.587967
C9    C     C_R   0.391811 0.933665 0.582315 -0.008830
C10   C     C_R   0.392488 0.064949 0.577420 -0.036630
C11   C     C_R   0.486326 0.128776 0.498853 -0.199335
C12   C     C_R   0.259297 0.499893 0.499926 0.818212
C13   C     C_R   0.572621 0.064373 0.419012 0.603619
C14   C     C_R   0.570355 0.936713 0.420316 -0.296340
C15   C     C_R   0.483458 0.870750 0.502584 -0.179736
C16   C     C_R   0.667326 0.662689 0.144263 -0.137880
C17   C     C_R   0.749289 0.741862 0.072515 -0.198235
C18   C     C_R   0.748981 0.742153 0.929277 -0.203471
C19   C     C_R   0.666704 0.663259 0.856904 -0.138608
C20   C     C_R   0.581967 0.580149 0.925562 0.217050
C21   C     C_R   0.582113 0.579971 0.075014 0.213870
C22   C     C_R   0.421881 0.423988 0.073496 -0.042177
C23   C     C_R   0.492746 0.736972 0.500740 0.881230
C24   C     C_R   0.421933 0.423992 0.925734 -0.031140
C25   C     C_R   0.740340 0.499047 0.499977 0.776297
C26   C     C_3   0.038523 0.400763 0.570867 -0.189449
C27   C     C_3   0.954949 0.393874 0.439374 -0.138591
C28   C     C_3   0.877037 0.498189 0.499970 0.025854
C29   C     C_3   0.958130 0.504980 0.631458 -0.146333
C30   C     C_3   0.043317 0.603985 0.559826 -0.123315
Cu1   Cu    Cu3+1 0.499990 0.499990 0.640660 0.976079
Cu2   Cu    Cu3+1 0.500010 0.500010 0.359340 0.964771
H1    H     H_    0.915539 0.307934 0.390177 0.173663
H2    H     H_    0.135143 0.889457 0.794962 0.151306
H3    H     H_    0.639766 0.888814 0.359421 0.160105
H4    H     H_    0.357761 0.361586 0.128224 0.134239
H5    H     H_    0.675188 0.670891 0.253757 0.185712
H6    H     H_    0.813346 0.803754 0.128852 0.154043
H7    H     H_    0.812846 0.804234 0.873460 0.149531
H8    H     H_    0.673959 0.671902 0.747435 0.189241
H9    H     H_    0.357844 0.361584 0.870443 0.129546
H10   H     H_    0.072799 0.320431 0.629595 0.127366
H11   H     H_    0.922145 0.510089 0.739730 0.151039
H12   H     H_    0.076412 0.691773 0.609136 0.183671
H13   H     H_    0.925010 0.677243 0.369926 0.127799
H14   H     H_    0.076457 0.487997 0.259463 0.146659
H15   H     H_    0.290067 0.228548 0.641182 0.138715
H16   H     H_    0.134222 0.116779 0.779478 0.155125
N1    N     N_R   0.501210 0.501210 0.147910 -0.199496
N2    N     N_R   0.501250 0.501290 0.852040 -0.192019
O1    O     O_R   0.499990 0.319640 0.618810 -0.594832
O2    O     O_R   0.500000 0.319660 0.381240 -0.539526
O3    O     O_R   0.316850 0.499960 0.618770 -0.538931
O4    O     O_R   0.316860 0.499980 0.381190 -0.603289
O5    O     O_R   0.500000 0.680340 0.618760 -0.542555
O6    O     O_R   0.500010 0.680360 0.381190 -0.611433
O7    O     O_R   0.683140 0.500020 0.618810 -0.613437
O8    O     O_R   0.683150 0.500040 0.381230 -0.588765
F1    F     F_    0.288079 0.747337 0.674135 -0.693494
F2    F     F_    0.662177 0.125589 0.342709 -0.672902

loop_
_geom_bond_atom_site_label_1
_geom_bond_atom_site_label_2
_ccdc_geom_bond_type
C4    C26   S    
C18   H7    S    
C23   O5    A    
C16   C21   A    
C4    C12   S    
C5    H15   S    
C9    C10   A    
C3    H14   S    
C19   C20   A    
C1    C11   S    
Cu2   O8    S    
C16   H5    S    
C2    C30   S    
Cu1   O7    S    
C15   C23   S    
C17   C18   A    
C9    C15   A    
C4    C30   S    
C5    C10   A    
C2    H13   S    
C13   F2    S    
C12   O4    A    
C13   C14   A    
Cu1   O3    S    
C25   C28   S    
C24   H9    S    
C11   C13   A    
C30   H12   S    
C26   C27   S    
C29   C30   S    
C12   O3    A    
C6    H16   S    
C22   N1    A    
C19   H8    S    
C21   N1    A    
C3    C27   S    
C28   C29   S    
C7    H2    S    
Cu2   O6    S    
C2    C3    S    
C6    C7    A    
C17   H6    S    
C8    F1    S    
C24   N2    A    
C5    C6    A    
C1    O2    A    
C22   C24   A    
Cu2   N1    S    
C7    C8    A    
C25   O8    A    
Cu1   N2    S    
C3    C4    S    
C25   O7    A    
C23   O6    A    
C22   H4    S    
C20   C21   A    
C26   H10   S    
C26   C29   S    
C20   N2    A    
C18   C19   A    
C10   C11   A    
Cu2   O4    S    
C27   H1    S    
C14   C15   A    
Cu2   O2    S    
C2    C28   S    
C1    O1    A    
Cu1   O5    S    
C14   H3    S    
C29   H11   S    
Cu1   Cu2   S    
C16   C17   A    
Cu1   O1    S    
C8    C9    A    
C27   C28   S    
