data_mof_unit_15528.cif
_audit_creation_date              2012-12-11T15:17:40-0500
_audit_creation_method            fapswitch 2.2
_symmetry_space_group_name_H-M    P1
_symmetry_Int_Tables_number       1
_space_group_crystal_system       triclinic
_cell_length_a                    6.919017
_cell_length_b                    19.843066
_cell_length_c                    22.720225
_cell_angle_alpha                 90.043465
_cell_angle_beta                  90.08113
_cell_angle_gamma                 90.11476
_cell_volume                      3119.35189232

loop_
_atom_site_label
_atom_site_type_symbol
_atom_type_description
_atom_site_fract_x
_atom_site_fract_y
_atom_site_fract_z
_atom_type_partial_charge
O1    O     O_R   0.620180 0.810610 0.187990 -0.529550
O2    O     O_R   0.379820 0.189390 0.812010 -0.529327
O3    O     O_R   0.379820 0.189390 0.687990 -0.539941
O4    O     O_R   0.620180 0.810610 0.312010 -0.526319
O5    O     O_R   0.120180 0.689390 0.312010 -0.529405
O6    O     O_R   0.879820 0.310610 0.687990 -0.530714
O7    O     O_R   0.879820 0.310610 0.812010 -0.535518
O8    O     O_R   0.120180 0.689390 0.187990 -0.526570
O9    O     O_R   0.290420 0.818570 0.311590 -0.553652
O10   O     O_R   0.709580 0.181430 0.688410 -0.526389
O11   O     O_R   0.709580 0.181430 0.811590 -0.553792
O12   O     O_R   0.290420 0.818570 0.188410 -0.552663
O13   O     O_R   0.790420 0.681430 0.188410 -0.553934
O14   O     O_R   0.209580 0.318570 0.811590 -0.551742
O15   O     O_R   0.209580 0.318570 0.688410 -0.556378
O16   O     O_R   0.790420 0.681430 0.311590 -0.552086
C1    C     C_R   0.459321 0.836503 0.331051 0.685238
C2    C     C_R   0.540423 0.164829 0.668382 0.792344
C3    C     C_R   0.541347 0.163802 0.831222 0.732221
C4    C     C_R   0.458910 0.835663 0.168709 0.687759
C5    C     C_R   0.958782 0.663642 0.168922 0.685367
C6    C     C_R   0.041267 0.335645 0.831272 0.684914
C7    C     C_R   0.041088 0.336340 0.668898 0.680568
C8    C     C_R   0.958907 0.664227 0.331192 0.687057
H1    H     H_    0.780885 0.342079 0.585345 0.143810
H2    H     H_    0.179308 0.673067 0.424688 0.126065
H3    H     H_    0.217692 0.658361 0.085333 0.144510
H4    H     H_    0.826107 0.325545 0.925495 0.130301
H5    H     H_    0.281906 0.158131 0.914732 0.142993
H6    H     H_    0.677301 0.826711 0.074864 0.124907
H7    H     H_    0.719187 0.842805 0.415170 0.143625
H8    H     H_    0.338231 0.178252 0.571563 0.130329
O17   O     O_3   0.453640 0.707610 0.250000 -0.367222
O18   O     O_3   0.546360 0.292390 0.750000 -0.377116
O19   O     O_3   0.953640 0.792390 0.250000 -0.367615
O20   O     O_3   0.046360 0.207610 0.750000 -0.363786
V1    V     V_3+5 0.178800 0.757860 0.250000 1.477879
V2    V     V_3+5 0.821200 0.242140 0.750000 1.507060
V3    V     V_3+5 0.678800 0.742140 0.250000 1.478616
V4    V     V_3+5 0.321200 0.257860 0.750000 1.479651
C9    C     C_R   0.882883 0.382941 0.579921 -0.095543
C10   C     C_R   0.092590 0.627687 0.426903 -0.099170
C11   C     C_R   0.116281 0.617298 0.079916 -0.094759
C12   C     C_R   0.910552 0.371471 0.927398 -0.119546
C13   C     C_R   0.383915 0.117419 0.920300 -0.104078
C14   C     C_R   0.591075 0.872093 0.072735 -0.098752
C15   C     C_R   0.618359 0.883989 0.420002 -0.099467
C16   C     C_R   0.415290 0.130834 0.570901 -0.156761
C17   C     C_R   0.031516 0.388363 0.621200 -0.154977
C18   C     C_R   0.965779 0.615123 0.380552 -0.137710
C19   C     C_R   0.968247 0.611639 0.121215 -0.155677
C20   C     C_R   0.034722 0.384659 0.880677 -0.149473
C21   C     C_R   0.532664 0.112066 0.879133 -0.154364
C22   C     C_R   0.465550 0.884726 0.119278 -0.135594
C23   C     C_R   0.470200 0.889149 0.378419 -0.155280
C24   C     C_R   0.530048 0.115256 0.619479 -0.094041
C25   C     C_R   0.168150 0.441373 0.615345 -0.026638
C26   C     C_R   0.848806 0.556763 0.381920 -0.006380
C27   C     C_R   0.832326 0.558408 0.115401 -0.029228
C28   C     C_R   0.148636 0.443717 0.881544 -0.018275
C29   C     C_R   0.670364 0.059555 0.885679 -0.001389
C30   C     C_R   0.348729 0.942981 0.117940 -0.007008
C31   C     C_R   0.335708 0.942813 0.383459 -0.028494
C32   C     C_R   0.630440 0.053245 0.620491 -0.016946
C33   C     C_R   0.141190 0.492431 0.571375 0.065790
C34   C     C_R   0.842096 0.516019 0.433879 0.047284
C35   C     C_R   0.859686 0.507320 0.071448 0.063121
C36   C     C_R   0.155812 0.484659 0.933430 0.048109
C37   C     C_R   0.639767 0.007866 0.928786 0.065781
C38   C     C_R   0.342107 0.983964 0.066129 0.045757
C39   C     C_R   0.363842 0.994423 0.426993 0.062177
C40   C     C_R   0.649865 0.015937 0.566986 -0.015839
C41   C     C_R   0.997134 0.482266 0.527262 0.065320
C42   C     C_R   0.982481 0.527192 0.478802 0.044693
C43   C     C_R   0.002757 0.517798 0.027214 0.069372
C44   C     C_R   0.017624 0.472841 0.978758 0.039488
C45   C     C_R   0.496500 0.017959 0.972866 0.058912
C46   C     C_R   0.481423 0.972761 0.021093 0.046779
C47   C     C_R   0.505065 0.983979 0.471782 0.071814
C48   C     C_R   0.517486 0.028716 0.520412 0.060916
C49   C     C_R   0.867562 0.427062 0.531632 0.053842
C50   C     C_R   0.109144 0.583234 0.474929 0.077720
C51   C     C_R   0.131304 0.573299 0.031518 0.056020
C52   C     C_R   0.893046 0.416183 0.975230 0.065305
C53   C     C_R   0.368546 0.073415 0.968708 0.062285
C54   C     C_R   0.606707 0.916451 0.024588 0.077963
C55   C     C_R   0.633438 0.928539 0.468156 0.050330
C56   C     C_R   0.396125 0.085975 0.523110 0.065236
C57   C     C_R   0.253093 0.553120 0.569883 -0.101694
C58   C     C_R   0.699710 0.464785 0.442389 -0.070888
C59   C     C_R   0.749204 0.446314 0.070097 -0.100449
C60   C     C_R   0.296200 0.536694 0.941454 -0.078106
C61   C     C_R   0.747704 0.946542 0.929262 -0.097940
C62   C     C_R   0.200994 0.035538 0.057879 -0.073252
C63   C     C_R   0.255678 0.055865 0.427546 -0.101056
C64   C     C_R   0.794663 0.965949 0.559004 -0.108886
C65   C     C_R   0.243876 0.596123 0.520370 -0.081560
C66   C     C_R   0.718214 0.418663 0.489459 -0.082266
C67   C     C_R   0.759232 0.403055 0.020729 -0.075000
C68   C     C_R   0.279142 0.582239 0.989096 -0.082271
C69   C     C_R   0.738684 0.903204 0.978578 -0.084388
C70   C     C_R   0.220118 0.081920 0.011004 -0.075116
C71   C     C_R   0.266480 0.099762 0.476602 -0.076730
C72   C     C_R   0.781194 0.920478 0.511012 -0.060591
C73   C     C_2   0.363967 0.576644 0.622194 0.877135
O21   O     O_2   0.536129 0.589956 0.617941 -0.507953
O22   O     O_R   0.270026 0.583421 0.676305 -0.626504
H9    H     H_    0.360040 0.599523 0.708656 0.351555
C74   C     C_2   0.520996 0.462320 0.405809 0.840399
O23   O     O_2   0.422549 0.512974 0.400020 -0.563446
O24   O     O_R   0.466062 0.402359 0.378001 -0.610233
H10   H     H_    0.341880 0.407274 0.354667 0.334774
C75   C     C_2   0.638971 0.422793 0.122401 0.874950
O25   O     O_2   0.466922 0.409247 0.118116 -0.508336
O26   O     O_R   0.733387 0.416246 0.176527 -0.629172
H11   H     H_    0.643807 0.400030 0.208848 0.346870
C76   C     C_2   0.471507 0.540516 0.903571 0.860493
O27   O     O_2   0.515897 0.593499 0.879592 -0.492225
O28   O     O_R   0.584327 0.483016 0.895068 -0.667585
H12   H     H_    0.698468 0.491627 0.868151 0.306399
C77   C     C_2   0.852212 0.923055 0.875785 0.886303
O29   O     O_2   0.021437 0.905648 0.878985 -0.505314
O30   O     O_R   0.755953 0.921638 0.821633 -0.638517
H13   H     H_    0.841811 0.905590 0.788349 0.323762
C78   C     C_2   0.022806 0.038127 0.094489 0.839870
O31   O     O_2   0.922079 0.987794 0.099609 -0.563561
O32   O     O_R   0.970892 0.097851 0.123043 -0.611240
H14   H     H_    0.846750 0.093065 0.146337 0.334659
C79   C     C_2   0.147006 0.079003 0.374793 0.877381
O33   O     O_2   0.975526 0.093271 0.378633 -0.507534
O34   O     O_R   0.242216 0.084472 0.320782 -0.628015
H15   H     H_    0.153706 0.100741 0.288180 0.348117
C80   C     C_2   0.971516 0.966420 0.596727 0.776471
O35   O     O_2   0.037675 0.913790 0.616113 -0.519504
O36   O     O_R   0.059153 0.027811 0.611159 -0.649866
H16   H     H_    0.175985 0.021970 0.637633 0.305458
C81   C     C_2   0.345299 0.439288 0.651972 0.423036
H17   H     H_    0.334603 0.435495 0.699310 0.054923
O37   O     O_2   0.504662 0.440090 0.629081 -0.528594
C82   C     C_2   0.760666 0.533768 0.325855 0.382078
H18   H     H_    0.666924 0.566754 0.300981 0.062269
O38   O     O_2   0.794465 0.477405 0.306954 -0.500282
C83   C     C_2   0.655630 0.560257 0.152099 0.425722
H19   H     H_    0.666949 0.564162 0.199446 0.054989
O39   O     O_2   0.495965 0.559168 0.129258 -0.527533
C84   C     C_2   0.232548 0.466933 0.825086 0.374278
H20   H     H_    0.327564 0.434479 0.800171 0.060120
O40   O     O_2   0.193551 0.522735 0.805897 -0.492826
C85   C     C_2   0.854770 0.063179 0.852375 0.395381
H21   H     H_    0.856055 0.071748 0.805407 0.124002
O41   O     O_2   0.009003 0.057414 0.877898 -0.533470
C86   C     C_2   0.260364 0.965603 0.173932 0.378817
H22   H     H_    0.163053 0.932897 0.197875 0.064081
O42   O     O_2   0.297521 0.021374 0.193696 -0.500927
C87   C     C_2   0.159095 0.940817 0.346573 0.426769
H23   H     H_    0.170451 0.935880 0.299320 0.055255
O43   O     O_2   0.999360 0.942878 0.369188 -0.526114
C88   C     C_2   0.673480 0.020195 0.678202 0.370424
H24   H     H_    0.734531 0.970106 0.680103 0.093795
O44   O     O_2   0.625608 0.045762 0.724754 -0.553831
C89   C     C_2   0.374869 0.655522 0.516507 0.823025
O45   O     O_2   0.357061 0.702403 0.551028 -0.512119
O46   O     O_R   0.517124 0.657530 0.472885 -0.654402
H25   H     H_    0.596639 0.700469 0.474258 0.314879
C90   C     C_2   0.576805 0.362347 0.494980 0.840147
O47   O     O_2   0.631726 0.304007 0.490747 -0.547022
O48   O     O_R   0.381203 0.376332 0.503991 -0.651584
H26   H     H_    0.299518 0.334010 0.507087 0.312534
C91   C     C_2   0.629395 0.343322 0.016920 0.822563
O49   O     O_2   0.647095 0.296890 0.051861 -0.514666
O50   O     O_R   0.488381 0.340484 0.972832 -0.653188
H27   H     H_    0.409949 0.297316 0.974172 0.317132
C92   C     C_2   0.420788 0.638460 0.994985 0.844063
O51   O     O_2   0.366169 0.696855 0.991008 -0.545207
O52   O     O_R   0.616349 0.624265 0.003997 -0.649490
H28   H     H_    0.698308 0.666505 0.007384 0.316002
C93   C     C_2   0.866203 0.843068 0.981589 0.827357
O53   O     O_2   0.842733 0.796307 0.947211 -0.508766
O54   O     O_R   0.011589 0.840182 0.024316 -0.654599
H29   H     H_    0.087897 0.796678 0.022568 0.318261
C94   C     C_2   0.080439 0.138633 0.005839 0.841340
O55   O     O_2   0.137659 0.196822 0.009669 -0.546419
O56   O     O_R   0.883893 0.125207 0.997563 -0.651498
H30   H     H_    0.803626 0.167760 0.994577 0.313473
C95   C     C_2   0.141550 0.160655 0.479166 0.830572
O57   O     O_2   0.162141 0.205841 0.443132 -0.513579
O58   O     O_R   0.001804 0.166052 0.523315 -0.647641
H31   H     H_    0.927143 0.209877 0.521088 0.317220
C96   C     C_2   0.925106 0.865311 0.505234 0.852801
O59   O     O_2   0.873425 0.806593 0.509952 -0.548157
O60   O     O_R   0.119399 0.880789 0.495273 -0.645129
H32   H     H_    0.203249 0.839102 0.492112 0.314221

loop_
_geom_bond_atom_site_label_1
_geom_bond_atom_site_label_2
_ccdc_geom_bond_type
O50   H27   S    
C90   O47   D    
O5    V1    S    
C87   O43   D    
C11   C51   A    
C91   O49   D    
C73   O21   D    
C37   C45   A    
O24   H10   S    
C10   C50   A    
C43   C44   A    
C43   C51   A    
C46   C54   A    
C44   C52   A    
C95   O58   S    
C47   C55   A    
C89   O45   D    
C14   C54   A    
C33   C41   A    
O30   H13   S    
C34   C58   A    
C86   O42   D    
C45   C46   A    
C33   C57   A    
C73   O22   S    
O11   C3    A    
O17   V3    S    
C30   C86   S    
O18   V4    S    
C6    C20   S    
C38   C46   A    
C38   C62   A    
C82   O38   D    
C84   H20   S    
C37   C61   A    
C76   O28   S    
C7    C17   S    
C85   H21   S    
C39   C63   A    
C49   C66   A    
O6    C7    A    
C29   C37   A    
C83   H19   S    
C34   C42   A    
C17   C25   A    
C30   C38   A    
O3    C2    A    
C83   O39   D    
C41   C42   A    
C9    C17   A    
O12   V1    S    
C96   O60   S    
C20   C28   A    
C74   O24   S    
C27   C35   A    
C21   C29   A    
C26   C34   A    
O46   H25   S    
C93   O54   S    
O9    V1    S    
C23   C31   A    
O22   H9    S    
C16   C56   A    
C1    C23   S    
C2    C24   S    
C12   C20   A    
O15   C7    A    
C45   C53   A    
O16   C8    A    
H7    C15   S    
C48   C56   A    
C88   O44   D    
H8    C16   S    
O12   C4    A    
C28   C84   S    
C42   C50   A    
C41   C49   A    
C89   O46   S    
C63   C71   A    
C84   O40   D    
C92   O52   S    
C8    C18   S    
O10   C2    A    
C87   H23   S    
O13   V3    S    
C35   C59   A    
O13   C5    A    
O60   H32   S    
C18   C26   A    
O36   H16   S    
C82   H18   S    
C4    C22   S    
C94   O56   S    
H1    C9    S    
O48   H26   S    
C60   C68   A    
C22   C30   A    
C94   O55   D    
O14   V4    S    
C13   C21   A    
O17   V1    S    
C39   C47   A    
C47   C48   A    
C57   C65   A    
C15   C55   A    
O11   V2    S    
O19   V3    S    
C60   C76   S    
O56   H30   S    
O2    V4    S    
C71   C95   S    
C80   O35   D    
C81   O37   D    
O52   H28   S    
O4    V3    S    
O20   V4    S    
C9    C49   A    
C14   C22   A    
C24   C32   A    
O8    C5    A    
C25   C81   S    
C62   C70   A    
C77   O29   D    
C10   C18   A    
O4    C1    A    
O9    C1    A    
C31   C39   A    
O3    V4    S    
C65   C89   S    
C51   C68   A    
C64   C72   A    
C88   H24   S    
C50   C65   A    
C19   C27   A    
O8    V1    S    
C61   C69   A    
O32   H14   S    
C5    C19   S    
C56   C71   A    
H2    C10   S    
C15   C23   A    
C75   O25   D    
C91   O50   S    
C62   C78   S    
C26   C82   S    
C16   C24   A    
C61   C77   S    
O1    C4    A    
C59   C75   S    
O19   V1    S    
O2    C3    A    
O18   V2    S    
C70   C94   S    
H6    C14   S    
C25   C33   A    
C12   C52   A    
O34   H15   S    
O28   H12   S    
C63   C79   S    
C64   C80   S    
C67   C91   S    
O54   H29   S    
C36   C44   A    
O7    C6    A    
C81   H17   S    
C52   C67   A    
C13   C53   A    
O10   V2    S    
C59   C67   A    
C57   C73   S    
O14   C6    A    
C85   O41   D    
C79   O33   D    
C31   C87   S    
O58   H31   S    
C40   C48   A    
C74   O23   D    
C54   C69   A    
C3    C21   S    
C95   O57   D    
C78   O31   D    
O5    C8    A    
C11   C19   A    
C72   C96   S    
O20   V2    S    
C36   C60   A    
O7    V2    S    
H4    C12   S    
C32   C40   A    
C96   O59   D    
C32   C88   S    
O15   V4    S    
C77   O30   S    
C66   C90   S    
C69   C93   S    
O1    V3    S    
O16   V3    S    
C27   C83   S    
C55   C72   A    
C40   C64   A    
H3    C11   S    
C35   C43   A    
C86   H22   S    
C28   C36   A    
C90   O48   S    
C93   O53   D    
H5    C13   S    
C68   C92   S    
C78   O32   S    
C80   O36   S    
C58   C74   S    
C75   O26   S    
O6    V2    S    
C76   O27   D    
C92   O51   D    
C29   C85   S    
C58   C66   A    
C53   C70   A    
O26   H11   S    
C79   O34   S    
