data_mof_unit_29298.cif
_audit_creation_date              2012-12-10T17:22:41-0500
_audit_creation_method            fapswitch 2.2
_symmetry_space_group_name_H-M    P1
_symmetry_Int_Tables_number       1
_space_group_crystal_system       triclinic
_cell_length_a                    10.638758
_cell_length_b                    10.854943
_cell_length_c                    9.62742
_cell_angle_alpha                 91.344271
_cell_angle_beta                  89.929551
_cell_angle_gamma                 94.650398
_cell_volume                      1107.83906752

loop_
_atom_site_label
_atom_site_type_symbol
_atom_type_description
_atom_site_fract_x
_atom_site_fract_y
_atom_site_fract_z
_atom_type_partial_charge
C1    C     C_R   0.509834 0.263760 0.498976 0.781011
C2    C     C_3   0.958827 0.498165 0.366805 -0.135775
C3    C     C_3   0.032046 0.399866 0.435106 0.197086
C4    C     C_3   0.122790 0.499743 0.500794 0.011883
C5    C     C_R   0.620431 0.136314 0.733272 -0.320903
C6    C     C_R   0.626480 0.083850 0.864738 0.346574
C7    C     C_R   0.566863 0.965110 0.884396 0.418744
C8    C     C_R   0.514920 0.897446 0.770078 -0.227772
C9    C     C_R   0.521419 0.944886 0.634023 0.013130
C10   C     C_R   0.556207 0.071861 0.621616 0.048813
C11   C     C_R   0.523485 0.130941 0.498659 -0.073736
C12   C     C_R   0.259574 0.499162 0.500139 0.788141
C13   C     C_R   0.486258 0.060458 0.380347 -0.197252
C14   C     C_R   0.476635 0.932938 0.384509 -0.216093
C15   C     C_R   0.493439 0.873024 0.509771 -0.092422
C16   C     C_R   0.679007 0.653500 0.154945 -0.107057
C17   C     C_R   0.779816 0.717579 0.093718 -0.260223
C18   C     C_R   0.787352 0.719173 0.952554 -0.244663
C19   C     C_R   0.691156 0.660225 0.869177 0.462601
C20   C     C_R   0.592035 0.577164 0.928818 0.143122
C21   C     C_R   0.589446 0.575956 0.078678 0.162973
C22   C     C_R   0.415506 0.427205 0.071680 -0.035974
C23   C     C_R   0.495537 0.737781 0.502672 0.806671
C24   C     C_R   0.415349 0.427367 0.924183 -0.062990
C25   C     C_R   0.740441 0.500259 0.499776 0.805682
C26   C     C_3   0.040516 0.501369 0.632293 -0.163744
C27   C     C_3   0.948698 0.398564 0.565192 -0.227352
C28   C     C_3   0.877223 0.499888 0.498987 -0.010299
C29   C     C_3   0.966527 0.602419 0.566383 -0.147768
C30   C     C_3   0.050544 0.600455 0.434860 -0.215226
Cu1   Cu    Cu3+1 0.499990 0.499990 0.640660 0.965436
Cu2   Cu    Cu3+1 0.500010 0.500010 0.359340 0.953477
H1    H     H_    0.904858 0.315163 0.616477 0.127479
H2    H     H_    0.464660 0.810301 0.793249 0.207676
H3    H     H_    0.452396 0.881054 0.289490 0.195136
H4    H     H_    0.346027 0.367227 0.124992 0.144790
H5    H     H_    0.676795 0.669355 0.263500 0.207702
H6    H     H_    0.849822 0.771279 0.156526 0.164877
H7    H     H_    0.864892 0.775504 0.907229 0.139161
H8    H     H_    0.345790 0.367598 0.867766 0.137819
H9    H     H_    0.075954 0.503403 0.740812 0.147523
H10   H     H_    0.938366 0.687063 0.620567 0.130844
H11   H     H_    0.094706 0.683072 0.382383 0.138761
H12   H     H_    0.923651 0.495071 0.258135 0.150415
H13   H     H_    0.463178 0.103813 0.284437 0.178463
H14   H     H_    0.667290 0.227319 0.718758 0.164610
N1    N     N_R   0.501210 0.501210 0.147910 -0.193968
N2    N     N_R   0.501250 0.501290 0.852040 -0.192654
O1    O     O_R   0.499990 0.319640 0.618810 -0.587356
O2    O     O_R   0.500000 0.319660 0.381240 -0.575255
O3    O     O_R   0.316850 0.499960 0.618770 -0.596922
O4    O     O_R   0.316860 0.499980 0.381190 -0.567537
O5    O     O_R   0.500000 0.680340 0.618760 -0.531150
O6    O     O_R   0.500010 0.680360 0.381190 -0.607304
O7    O     O_R   0.683140 0.500020 0.618810 -0.530587
O8    O     O_R   0.683150 0.500040 0.381230 -0.615915
O9    O     O_3   0.558371 0.910792 0.012746 -0.751629
H15   H     H_    0.599311 0.967783 0.083970 0.364092
O10   O     O_3   0.692858 0.693622 0.733401 -0.700932
H16   H     H_    0.754733 0.765153 0.716532 0.286991
N3    N     N_3   0.071303 0.290065 0.362862 -0.596829
H17   H     H_    0.989492 0.236238 0.332972 0.222205
H18   H     H_    0.117452 0.239243 0.435136 0.203962
O11   O     O_3   0.685584 0.148143 0.975214 -0.755016
H19   H     H_    0.720058 0.230518 0.943967 0.324452

loop_
_geom_bond_atom_site_label_1
_geom_bond_atom_site_label_2
_ccdc_geom_bond_type
C2    H12   S    
C4    C26   S    
C18   H7    S    
C3    C27   S    
C29   C30   S    
C29   H10   S    
C4    C12   S    
C22   H4    S    
C9    C10   A    
C12   O4    A    
Cu1   Cu2   S    
C1    C11   S    
C25   O8    A    
C16   H5    S    
C2    C30   S    
C19   O10   S    
O11   H19   S    
C20   C21   A    
C19   C20   A    
C15   C23   S    
C22   N1    A    
O9    H15   S    
C4    C30   S    
O10   H16   S    
C8    H2    S    
C13   C14   A    
C27   H1    S    
C25   C28   S    
C13   H13   S    
C11   C13   A    
Cu2   O2    S    
C26   C27   S    
C16   C21   A    
C5    H14   S    
Cu1   O1    S    
C5    C6    A    
Cu2   O6    S    
C28   C29   S    
C24   H8    S    
C7    O9    S    
C23   O5    A    
C6    C7    A    
C2    C3    S    
Cu1   N2    S    
C3    N3    S    
C9    C15   A    
N3    H17   S    
Cu2   N1    S    
C22   C24   A    
C30   H11   S    
C16   C17   A    
C10   C11   A    
C5    C10   A    
C3    C4    S    
C24   N2    A    
C7    C8    A    
C12   O3    A    
C17   H6    S    
C23   O6    A    
C17   C18   A    
C18   C19   A    
C1    O2    A    
C6    O11   S    
C14   H3    S    
N3    H18   S    
C21   N1    A    
C26   C29   S    
Cu2   O4    S    
C2    C28   S    
C20   N2    A    
Cu1   O7    S    
C14   C15   A    
C1    O1    A    
Cu2   O8    S    
Cu1   O5    S    
C25   O7    A    
C26   H9    S    
Cu1   O3    S    
C8    C9    A    
C27   C28   S    
