data_mof_unit_65219.cif
_audit_creation_date              2012-12-10T18:24:09-0500
_audit_creation_method            fapswitch 2.2
_symmetry_space_group_name_H-M    P1
_symmetry_Int_Tables_number       1
_space_group_crystal_system       triclinic
_cell_length_a                    16.090536
_cell_length_b                    16.109183
_cell_length_c                    16.101494
_cell_angle_alpha                 95.918046
_cell_angle_beta                  84.419813
_cell_angle_gamma                 90.163316
_cell_volume                      4131.56896285

loop_
_atom_site_label
_atom_site_type_symbol
_atom_type_description
_atom_site_fract_x
_atom_site_fract_y
_atom_site_fract_z
_atom_type_partial_charge
C1    C     C_R   0.510709 0.724223 0.510750 0.503522
C2    C     C_1   0.484511 0.186628 0.485211 -0.015178
C3    C     C_1   0.514614 0.483768 0.184896 0.005866
C4    C     C_R   0.489268 0.275782 0.489245 0.505397
C5    C     C_2   0.520286 0.477281 0.019338 -0.100579
C6    C     C_2   0.474276 0.528806 0.981212 0.006307
C7    C     C_1   0.480306 0.521957 0.890683 -0.036261
C8    C     C_1   0.517447 0.480544 0.109553 -0.047964
C9    C     C_1   0.484743 0.516925 0.815164 -0.000077
C10   C     C_R   0.510790 0.488074 0.274596 0.503997
C11   C     C_R   0.489233 0.511859 0.725386 0.505695
C12   C     C_1   0.111329 0.519790 0.518302 -0.059953
C13   C     C_R   0.724273 0.488213 0.488257 0.503704
C14   C     C_R   0.275712 0.511847 0.511767 0.505324
C15   C     C_1   0.813620 0.482367 0.482631 -0.007384
C16   C     C_2   0.978780 0.468491 0.471011 0.005751
C17   C     C_2   0.021405 0.522556 0.520178 -0.117171
C18   C     C_3   0.023799 0.400901 0.410098 -0.230914
C19   C     C_3   0.965408 0.343932 0.360108 -0.300328
C20   C     C_3   0.014775 0.277649 0.300845 -0.454425
C21   C     C_3   0.414365 0.975242 0.422381 -0.243572
C22   C     C_3   0.362861 0.032209 0.375587 -0.296052
C23   C     C_1   0.888669 0.476547 0.477600 -0.041770
C24   C     C_3   0.303736 0.981501 0.321920 -0.455460
C25   C     C_3   0.585128 0.024891 0.578517 -0.240695
C26   C     C_3   0.636453 0.967998 0.625548 -0.299672
C27   C     C_3   0.695421 0.018788 0.679333 -0.452278
C28   C     C_3   0.416409 0.593724 0.030024 -0.374328
C29   C     C_1   0.186380 0.516612 0.515850 0.003749
C30   C     C_1   0.515320 0.813418 0.515254 -0.013575
C31   C     C_2   0.524428 0.978778 0.523172 0.008261
C32   C     C_2   0.475079 0.021320 0.477737 0.008037
C33   C     C_1   0.480273 0.111679 0.481805 -0.054038
C34   C     C_1   0.519409 0.888394 0.518922 -0.051245
H1    H     H_    0.988241 0.570454 0.563263 0.122999
H2    H     H_    0.339643 0.937165 0.274352 0.153741
H3    H     H_    0.259342 0.946122 0.361933 0.153896
H4    H     H_    0.267519 0.024190 0.288905 0.146192
H5    H     H_    0.325306 0.076892 0.421539 0.170953
H6    H     H_    0.405385 0.068072 0.334110 0.172244
H7    H     H_    0.450515 0.930412 0.375350 0.147403
H8    H     H_    0.370592 0.939059 0.462373 0.148212
H9    H     H_    0.739802 0.054266 0.639407 0.155797
H10   H     H_    0.659382 0.063042 0.726880 0.156569
H11   H     H_    0.731658 0.976147 0.712379 0.146075
H12   H     H_    0.561358 0.431209 0.982107 0.118739
H13   H     H_    0.593810 0.932189 0.666969 0.169736
H14   H     H_    0.674117 0.923273 0.579737 0.169754
H15   H     H_    0.629011 0.060924 0.538482 0.149580
H16   H     H_    0.548985 0.069865 0.625405 0.150811
H17   H     H_    0.384221 0.629756 0.987187 0.132619
H18   H     H_    0.368249 0.563096 0.070443 0.136467
H19   H     H_    0.452468 0.638005 0.069903 0.136186
H20   H     H_    0.058333 0.307559 0.255218 0.156257
H21   H     H_    0.050940 0.237739 0.336915 0.153808
H22   H     H_    0.971072 0.237547 0.265620 0.145782
H23   H     H_    0.921431 0.312211 0.403999 0.168423
H24   H     H_    0.928732 0.381824 0.322454 0.169285
H25   H     H_    0.067829 0.431402 0.365217 0.152230
H26   H     H_    0.060882 0.361696 0.446167 0.151859
O1    O     O_3   0.500000 0.500000 0.500000 -0.433161
O2    O     O_R   0.689040 0.536050 0.444000 -0.535821
O3    O     O_R   0.315570 0.560650 0.560630 -0.534841
O4    O     O_R   0.679800 0.444450 0.536560 -0.537166
O5    O     O_R   0.315590 0.458850 0.458810 -0.540593
O6    O     O_R   0.458170 0.444480 0.314880 -0.537969
O7    O     O_R   0.445130 0.560630 0.690220 -0.535866
O8    O     O_R   0.559450 0.679320 0.457680 -0.536613
O9    O     O_R   0.537250 0.315570 0.537220 -0.538331
O10   O     O_R   0.458120 0.689530 0.559970 -0.536652
O11   O     O_R   0.445170 0.315580 0.445130 -0.538415
O12   O     O_R   0.559480 0.536070 0.314410 -0.536289
O13   O     O_R   0.537220 0.458810 0.680490 -0.537120
Zn1   Zn    Zn3+2 0.430930 0.430930 0.430910 0.939506
Zn2   Zn    Zn3+2 0.575680 0.561790 0.430230 0.943740
Zn3   Zn    Zn3+2 0.562480 0.430910 0.562480 0.942034
Zn4   Zn    Zn3+2 0.430910 0.576380 0.576380 0.945248

loop_
_geom_bond_atom_site_label_1
_geom_bond_atom_site_label_2
_ccdc_geom_bond_type
C12   C17   S    
C25   C31   S    
O11   Zn1   S    
C2    C4    S    
C28   H19   S    
O1    Zn2   S    
C6    C7    S    
O1    Zn1   S    
C5    C8    S    
C9    C11   S    
C5    H12   S    
C24   H4    S    
C31   C32   D    
O7    Zn4   S    
C26   H14   S    
C20   H22   S    
C22   H6    S    
C32   C33   S    
C27   H11   S    
C28   H17   S    
C15   C23   T    
C24   H3    S    
O4    Zn3   S    
C31   C34   S    
C10   O6    A    
O1    Zn3   S    
C3    C10   S    
C21   C22   S    
C19   H23   S    
O10   Zn4   S    
C28   H18   S    
C20   H20   S    
C26   C27   S    
C24   H2    S    
C13   O4    A    
C1    O10   A    
C26   H13   S    
O12   Zn2   S    
C21   H7    S    
C14   O3    A    
C13   O2    A    
C2    C33   T    
C18   H26   S    
C4    O9    A    
O13   Zn3   S    
C14   O5    A    
C11   O7    A    
C3    C8    T    
C16   C23   S    
C22   C24   S    
C13   C15   S    
C19   H24   S    
C11   O13   A    
C5    C6    D    
C12   C29   T    
C21   C32   S    
C25   H15   S    
O2    Zn2   S    
C20   H21   S    
C22   H5    S    
C14   C29   S    
C21   H8    S    
O6    Zn1   S    
C27   H9    S    
C18   H25   S    
C1    O8    A    
O9    Zn3   S    
C16   C18   S    
C18   C19   S    
O3    Zn4   S    
C7    C9    T    
C30   C34   T    
C25   H16   S    
C1    C30   S    
C17   H1    S    
C25   C26   S    
C27   H10   S    
C4    O11   A    
C6    C28   S    
O5    Zn1   S    
C19   C20   S    
O1    Zn4   S    
C16   C17   D    
O8    Zn2   S    
C10   O12   A    
