data_mof_unit_39573.cif
_audit_creation_date              2012-12-10T20:43:19-0500
_audit_creation_method            fapswitch 2.2
_symmetry_space_group_name_H-M    P1
_symmetry_Int_Tables_number       1
_space_group_crystal_system       triclinic
_cell_length_a                    15.779871
_cell_length_b                    10.695324
_cell_length_c                    9.939663
_cell_angle_alpha                 89.898691
_cell_angle_beta                  91.83182
_cell_angle_gamma                 90.459723
_cell_volume                      1676.61203609

loop_
_atom_site_label
_atom_site_type_symbol
_atom_type_description
_atom_site_fract_x
_atom_site_fract_y
_atom_site_fract_z
_atom_type_partial_charge
C1    C     C_R   0.507729 0.260494 0.499836 0.876265
C2    C     C_R   0.049397 0.494989 0.623660 -0.223244
C3    C     C_1   0.824041 0.513768 0.510094 -0.091829
C4    C     C_1   0.176384 0.519580 0.497225 -0.055083
C5    C     C_1   0.251101 0.510498 0.494868 -0.215642
C6    C     C_1   0.749055 0.506734 0.506835 -0.191537
C7    C     C_R   0.541026 0.064439 0.618537 0.024768
C8    C     C_R   0.530156 0.129957 0.497960 -0.161029
C9    C     C_R   0.538153 0.063761 0.375460 0.216763
C10   C     C_R   0.530855 0.933962 0.377778 -0.272500
C11   C     C_R   0.518485 0.871726 0.499966 -0.147608
C12   C     C_R   0.339484 0.501095 0.498113 0.898615
C13   C     C_R   0.532342 0.936914 0.619934 -0.013676
C14   C     C_3   0.489734 0.937556 0.753635 0.312875
C15   C     C_3   0.501517 0.079458 0.751629 -0.116767
C16   C     C_R   0.425915 0.513586 0.067576 0.013185
C17   C     C_R   0.573340 0.493390 0.076351 -0.182769
C18   C     C_R   0.574005 0.493976 0.933438 0.208006
C19   C     C_R   0.425947 0.514201 0.924942 0.072508
C20   C     C_3   0.347931 0.431003 0.915925 0.269689
C21   C     C_3   0.347661 0.431248 0.071273 0.207218
C22   C     C_R   0.502529 0.740139 0.500082 0.876002
C23   C     C_R   0.660518 0.500450 0.502013 0.898331
C24   C     C_R   0.960868 0.491714 0.629316 0.222627
C25   C     C_R   0.913394 0.521929 0.511089 0.041359
C26   C     C_R   0.952863 0.558970 0.392135 0.082079
C27   C     C_R   0.040461 0.562429 0.390029 -0.174904
C28   C     C_R   0.087763 0.527783 0.504130 0.073878
H1    H     H_    0.089135 0.469188 0.709847 0.156905
H2    H     H_    0.632603 0.486210 0.133307 0.163368
H3    H     H_    0.071496 0.590000 0.298905 0.153601
H4    H     H_    0.530692 0.883401 0.283365 0.176252
H5    H     H_    0.441554 0.132174 0.743551 0.175216
N1    N     N_R   0.499440 0.499140 0.142800 -0.113677
N2    N     N_R   0.499440 0.499180 0.857150 -0.128384
O1    O     O_R   0.500010 0.316790 0.614690 -0.618348
O2    O     O_R   0.500000 0.316760 0.385350 -0.594832
O3    O     O_R   0.378030 0.499990 0.614640 -0.594827
O4    O     O_R   0.378020 0.499950 0.385300 -0.634733
O5    O     O_R   0.500000 0.683240 0.614650 -0.642082
O6    O     O_R   0.499990 0.683210 0.385310 -0.609700
O7    O     O_R   0.621980 0.500050 0.614700 -0.577861
O8    O     O_R   0.621970 0.500010 0.385360 -0.629933
Zn1   Zn    Zn3+2 0.500010 0.500020 0.653130 0.948009
Zn2   Zn    Zn3+2 0.499990 0.499980 0.346870 0.934416
N3    N     N_3   0.562752 0.126506 0.853004 -0.453319
H6    H     H_    0.575809 0.220120 0.830922 0.208698
H7    H     H_    0.532645 0.126189 0.944896 0.181726
N4    N     N_2   0.653048 0.483977 0.870962 -0.264079
H8    H     H_    0.689527 0.412040 0.909859 0.196278
C29   C     C_3   0.700446 0.600247 0.866897 -0.735629
H9    H     H_    0.716551 0.633688 0.970488 0.212719
H10   H     H_    0.663208 0.672500 0.811387 0.245133
H11   H     H_    0.760218 0.585603 0.813380 0.248356
N5    N     N_2   0.272394 0.487408 0.852287 -0.274009
H12   H     H_    0.246434 0.440295 0.770342 0.237526
C30   C     C_3   0.263690 0.621928 0.845297 -0.748043
H13   H     H_    0.196473 0.645423 0.821516 0.230202
H14   H     H_    0.303039 0.659620 0.764471 0.247333
H15   H     H_    0.282468 0.666446 0.942452 0.241107
N6    N     N_3   0.365133 0.309182 0.856259 -0.449739
H16   H     H_    0.315967 0.247579 0.879823 0.173843
H17   H     H_    0.421110 0.273686 0.899153 0.153553
N7    N     N_2   0.274189 0.494861 0.123305 -0.284712
H18   H     H_    0.284824 0.559061 0.199058 0.244183
C31   C     C_3   0.196370 0.422904 0.131435 -0.729146
H19   H     H_    0.141652 0.487223 0.127090 0.228074
H20   H     H_    0.196109 0.369713 0.227449 0.233675
H21   H     H_    0.188965 0.356777 0.045691 0.248469
N8    N     N_3   0.362041 0.308190 0.134831 -0.468991
H22   H     H_    0.424725 0.279932 0.124333 0.185677
H23   H     H_    0.352891 0.314995 0.238042 0.237132
N9    N     N_2   0.918506 0.458317 0.750090 -0.305603
H24   H     H_    0.864682 0.403764 0.737247 0.232089
C32   C     C_3   0.966926 0.434366 0.873554 -0.805850
H25   H     H_    0.922897 0.419780 0.957234 0.242640
H26   H     H_    0.008248 0.515903 0.899749 0.253336
H27   H     H_    0.005590 0.348796 0.863070 0.237513
N10   N     N_3   0.905174 0.591564 0.272079 -0.463929
H28   H     H_    0.865203 0.665718 0.294314 0.195040
H29   H     H_    0.867530 0.514771 0.242920 0.188476
N11   N     N_2   0.546586 0.125513 0.249583 -0.289785
H30   H     H_    0.521271 0.076133 0.168694 0.211967
C33   C     C_3   0.631271 0.171585 0.225972 -0.743124
H31   H     H_    0.675780 0.092112 0.218090 0.229056
H32   H     H_    0.653584 0.234591 0.308740 0.247350
H33   H     H_    0.631087 0.225431 0.130382 0.220171
N12   N     N_2   0.400465 0.902215 0.745960 -0.309935
H34   H     H_    0.387645 0.818134 0.699534 0.232627
C34   C     C_3   0.354136 0.919713 0.867920 -0.810157
H35   H     H_    0.285419 0.904489 0.846001 0.241638
H36   H     H_    0.363111 0.016162 0.907183 0.243453
H37   H     H_    0.375901 0.851987 0.946243 0.246978
N13   N     N_3   0.537669 0.872396 0.861522 -0.440738
H38   H     H_    0.602783 0.885714 0.849754 0.187365
H39   H     H_    0.525796 0.776500 0.852547 0.202438

loop_
_geom_bond_atom_site_label_1
_geom_bond_atom_site_label_2
_ccdc_geom_bond_type
C31   H20   S    
N5    H12   S    
C16   C21   S    
C1    C8    S    
N9    H24   S    
C19   C20   S    
C33   H33   S    
C3    C6    T    
C34   H35   S    
C7    C8    A    
C26   C27   A    
C23   O7    A    
C2    H1    S    
C33   H32   S    
C24   N9    S    
C30   H14   S    
C22   O6    A    
C23   O8    A    
C20   N6    S    
N6    H17   S    
C21   N7    S    
C16   N1    A    
C8    C9    A    
N4    C29   S    
N8    H22   S    
C9    C10   A    
C1    O2    A    
C9    N11   S    
O4    Zn2   S    
C7    C15   S    
C31   H19   S    
C13   C14   S    
C17   H2    S    
N9    C32   S    
N6    H16   S    
O7    Zn1   S    
C20   N5    S    
C4    C28   S    
N3    H7    S    
C27   H3    S    
C29   H9    S    
C3    C25   S    
C33   H31   S    
C5    C12   S    
N10   H29   S    
C30   H15   S    
C25   C26   A    
C29   H10   S    
N7    C31   S    
C32   H25   S    
O3    Zn1   S    
O8    Zn2   S    
C34   H36   S    
O5    Zn1   S    
C22   O5    A    
C20   C21   S    
C17   C18   A    
N1    Zn2   S    
C24   C25   A    
N13   H39   S    
N2    Zn1   S    
C32   H26   S    
N12   C34   S    
N11   H30   S    
N11   C33   S    
N5    C30   S    
C2    C24   A    
O1    Zn1   S    
C17   N1    A    
O2    Zn2   S    
C34   H37   S    
C18   N2    A    
N3    H6    S    
C4    C5    T    
N8    H23   S    
C11   C22   S    
C26   N10   S    
C21   N8    S    
C29   H11   S    
N7    H18   S    
C12   O4    A    
C14   N12   S    
C19   N2    A    
C11   C13   A    
C30   H13   S    
C16   C19   A    
C6    C23   S    
C15   H5    S    
C12   O3    A    
N13   H38   S    
C32   H27   S    
C10   C11   A    
N10   H28   S    
C31   H21   S    
C10   H4    S    
C7    C13   A    
N12   H34   S    
C18   N4    S    
N4    H8    S    
C27   C28   A    
O6    Zn2   S    
C14   C15   S    
C2    C28   A    
C15   N3    S    
C14   N13   S    
C1    O1    A    
