data_mof_unit_12670.cif
_audit_creation_date              2012-12-10T16:50:12-0500
_audit_creation_method            fapswitch 2.2
_symmetry_space_group_name_H-M    P1
_symmetry_Int_Tables_number       1
_space_group_crystal_system       triclinic
_cell_length_a                    7.823075
_cell_length_b                    8.552461
_cell_length_c                    10.616224
_cell_angle_alpha                 90.985428
_cell_angle_beta                  85.364096
_cell_angle_gamma                 93.636752
_cell_volume                      706.493367161

loop_
_atom_site_label
_atom_site_type_symbol
_atom_type_description
_atom_site_fract_x
_atom_site_fract_y
_atom_site_fract_z
_atom_type_partial_charge
C1    C     C_R   0.545764 0.794522 0.499424 1.009548
C2    C     C_R   0.454493 0.205539 0.504344 0.948185
C3    C     C_R   0.499988 0.508279 0.260803 0.980288
C4    C     C_R   0.416118 0.787192 0.871334 -0.266783
C5    C     C_R   0.367742 0.920991 0.937761 -0.339704
C6    C     C_R   0.360151 0.923720 0.068882 0.625177
C7    C     C_R   0.402073 0.792986 0.134339 0.512837
C8    C     C_R   0.451225 0.654750 0.068378 -0.134983
C9    C     C_2   0.986590 0.680213 0.589572 1.123834
C10   C     C_R   0.456862 0.652534 0.935802 0.042434
C11   C     C_R   0.507185 0.515817 0.870840 0.007782
C12   C     C_R   0.559213 0.386838 0.931628 -0.181042
C13   C     C_R   0.555705 0.388568 0.060346 -0.137247
C14   C     C_R   0.499566 0.518957 0.128191 -0.060874
C15   C     C_2   0.569828 0.958270 0.499663 -0.335074
C16   C     C_2   0.430869 0.041977 0.508842 -0.292752
C17   C     C_R   0.501857 0.502479 0.739062 0.830419
F1    F     F_    0.313429 0.054663 0.133278 -0.649344
F2    F     F_    0.396014 0.805543 0.261403 -0.647377
H1    H     H_    0.598626 0.283347 0.879294 0.143395
H2    H     H_    0.423484 0.791370 0.769361 0.172025
H3    H     H_    0.337101 0.023167 0.887197 0.189370
H4    H     H_    0.594183 0.286541 0.107692 0.179816
H5    H     H_    0.701116 0.009300 0.490506 0.198660
H6    H     H_    0.299726 0.991004 0.518402 0.225291
H7    H     H_    0.009246 0.367936 0.418131 0.204414
H8    H     H_    0.882160 0.786409 0.745695 0.318118
N1    N     N_2   0.950330 0.457950 0.466250 -0.196172
N2    N     N_2   0.049670 0.542050 0.533750 -0.152982
O1    O     O_R   0.389250 0.738570 0.508280 -0.584347
O2    O     O_R   0.919303 0.679735 0.715484 -0.806296
O3    O     O_R   0.678390 0.711630 0.486650 -0.619571
O4    O     O_R   0.355400 0.513470 0.694050 -0.631242
O5    O     O_R   0.644540 0.486530 0.672420 -0.600811
O6    O     O_R   0.321610 0.288370 0.513350 -0.627933
O7    O     O_R   0.610750 0.261430 0.491720 -0.624661
O8    O     O_R   0.355460 0.513470 0.327580 -0.573539
O9    O     O_R   0.644600 0.486530 0.305950 -0.625300
O10   O     O_2   0.005719 0.802673 0.530975 -0.645164
Zn1   Zn    Zn3+2 0.306930 0.517990 0.514440 1.021754
Zn2   Zn    Zn3+2 0.693070 0.482010 0.485560 0.999852

loop_
_geom_bond_atom_site_label_1
_geom_bond_atom_site_label_2
_ccdc_geom_bond_type
C2    O6    A    
O3    Zn2   S    
C3    O9    A    
C6    C7    A    
C1    C15   S    
C2    C16   S    
H7    N1    S    
C9    N2    S    
C11   C12   A    
C12   H1    S    
O6    Zn1   S    
O1    Zn1   S    
C7    C8    A    
C13   C14   A    
C4    H2    S    
C3    C14   S    
N1    N2    D    
O7    Zn2   S    
O5    Zn2   S    
C17   O4    A    
N2    Zn1   S    
C1    O1    A    
O8    Zn1   S    
C7    F2    S    
C5    C6    A    
C6    F1    S    
O4    Zn1   S    
C10   C11   A    
C9    O2    S    
H8    O2    S    
C15   C16   D    
N1    Zn2   S    
C9    O10   D    
C12   C13   A    
C13   H4    S    
O9    Zn2   S    
C8    C10   A    
C17   O5    A    
C2    O7    A    
C16   H6    S    
C15   H5    S    
C8    C14   A    
C4    C10   A    
C1    O3    A    
C11   C17   S    
C5    H3    S    
C3    O8    A    
C4    C5    A    
