data_mof_unit_21305.cif
_audit_creation_date              2012-12-10T17:59:18-0500
_audit_creation_method            fapswitch 2.2
_symmetry_space_group_name_H-M    P1
_symmetry_Int_Tables_number       1
_space_group_crystal_system       triclinic
_cell_length_a                    10.810184
_cell_length_b                    9.515156
_cell_length_c                    10.756492
_cell_angle_alpha                 90.093773
_cell_angle_beta                  90.041447
_cell_angle_gamma                 89.986126
_cell_volume                      1106.41727934

loop_
_atom_site_label
_atom_site_type_symbol
_atom_type_description
_atom_site_fract_x
_atom_site_fract_y
_atom_site_fract_z
_atom_type_partial_charge
C1    C     C_R   0.262422 0.500022 0.499892 0.792442
C2    C     C_3   0.624666 0.562229 0.930555 0.361256
C3    C     C_R   0.065553 0.394035 0.436987 -0.238176
C4    C     C_R   0.065609 0.606140 0.562623 -0.248677
C5    C     C_R   0.937033 0.393933 0.435353 0.103797
C6    C     C_R   0.937113 0.605991 0.564697 0.122362
C7    C     C_R   0.872245 0.499929 0.500104 -0.026359
C8    C     C_R   0.129183 0.500101 0.499772 -0.062453
C9    C     C_R   0.423938 0.074290 0.422064 -0.025334
C10   C     C_R   0.424134 0.925437 0.421841 -0.034699
C11   C     C_R   0.575748 0.925700 0.578400 -0.023437
C12   C     C_R   0.575857 0.074562 0.578299 -0.025414
C13   C     C_R   0.496852 0.499585 0.259985 0.798881
C14   C     C_R   0.737927 0.499979 0.500114 0.868880
C15   C     C_R   0.499689 0.499972 0.740153 0.841953
C16   C     C_3   0.392796 0.600317 0.069256 0.005567
C17   C     C_3   0.481959 0.344717 0.069664 0.029776
C18   C     C_3   0.386424 0.585662 0.926267 -0.440348
C19   C     C_3   0.480840 0.346784 0.926499 -0.477517
C20   C     C_3   0.621602 0.555349 0.076005 -0.579466
C21   C     C_3   0.494584 0.498475 0.122207 0.085929
C22   C     C_3   0.499470 0.499671 0.878084 0.089490
Cu1   Cu    Cu3+1 0.500020 0.640660 0.500000 0.948252
Cu2   Cu    Cu3+1 0.500020 0.359340 0.500000 0.953596
H1    H     H_    0.422613 0.710049 0.089750 0.151606
H2    H     H_    0.566854 0.286285 0.098492 0.145025
H3    H     H_    0.636309 0.869698 0.641229 0.156118
H4    H     H_    0.636601 0.130797 0.640972 0.121457
H5    H     H_    0.299202 0.532160 0.897934 0.172793
H6    H     H_    0.392704 0.303960 0.888683 0.176970
H7    H     H_    0.382547 0.691817 0.883370 0.166673
H8    H     H_    0.553616 0.274692 0.890926 0.164909
H9    H     H_    0.639586 0.661106 0.116669 0.174564
H10   H     H_    0.697440 0.487473 0.112154 0.159497
H11   H     H_    0.115557 0.312992 0.386898 0.148407
H12   H     H_    0.115649 0.687270 0.612583 0.150080
H13   H     H_    0.362569 0.130305 0.360095 0.132951
H14   H     H_    0.363300 0.869201 0.359246 0.120093
N1    N     N_R   0.500030 0.852070 0.500030 -0.159041
N2    N     N_R   0.500030 0.147930 0.500030 -0.155267
O1    O     O_R   0.319660 0.618740 0.499990 -0.595172
O2    O     O_R   0.319660 0.381260 0.499990 -0.585654
O3    O     O_R   0.499990 0.618790 0.317690 -0.608262
O4    O     O_R   0.499990 0.381210 0.317690 -0.560382
O5    O     O_R   0.680370 0.618830 0.500010 -0.560921
O6    O     O_R   0.680370 0.381170 0.500010 -0.563551
O7    O     O_R   0.500030 0.618780 0.682310 -0.567255
O8    O     O_R   0.500030 0.381220 0.682310 -0.601500
N3    N     N_3   0.269576 0.584953 0.125153 -0.604697
H15   H     H_    0.233478 0.485137 0.110224 0.236310
H16   H     H_    0.274076 0.602577 0.220926 0.219086
N4    N     N_3   0.375072 0.268454 0.120930 -0.594496
H17   H     H_    0.297200 0.278100 0.064169 0.208490
H18   H     H_    0.396258 0.161168 0.121685 0.202758
N5    N     N_3   0.639459 0.709231 0.889522 -0.567425
H19   H     H_    0.574374 0.774164 0.932599 0.191996
H20   H     H_    0.725925 0.746879 0.917873 0.202894
N6    N     N_3   0.730373 0.480630 0.882196 -0.588254
H21   H     H_    0.813012 0.529017 0.909290 0.210693
H22   H     H_    0.732776 0.380628 0.922021 0.191881
N7    N     N_3   0.872772 0.288557 0.365098 -0.583788
H23   H     H_    0.898993 0.190000 0.398984 0.220185
H24   H     H_    0.901632 0.295384 0.272536 0.202589
N8    N     N_3   0.872985 0.711138 0.635278 -0.575727
H25   H     H_    0.898597 0.809792 0.601226 0.209975
H26   H     H_    0.902514 0.704520 0.727671 0.213090

loop_
_geom_bond_atom_site_label_1
_geom_bond_atom_site_label_2
_ccdc_geom_bond_type
C2    C22   S    
N5    H19   S    
C2    N6    S    
C12   N2    A    
C6    C7    A    
Cu1   O5    S    
C15   O7    A    
C7    C14   S    
C1    C8    S    
Cu2   O2    S    
C9    C10   A    
Cu1   O1    S    
C3    H11   S    
C10   H14   S    
C20   H10   S    
N8    H25   S    
C20   C21   S    
N3    H16   S    
C4    H12   S    
N6    H21   S    
C13   C21   S    
C14   O6    A    
C18   H5    S    
N7    H24   S    
C16   N3    S    
C11   N1    A    
C16   C21   S    
C15   O8    A    
C12   H4    S    
Cu1   N1    S    
C17   H2    S    
C16   H1    S    
C17   N4    S    
C1    O1    A    
Cu2   N2    S    
N4    H18   S    
C11   H3    S    
C3    C8    A    
C14   O5    A    
C2    N5    S    
N5    H20   S    
N7    H23   S    
Cu2   O4    S    
Cu1   O7    S    
C20   H9    S    
Cu1   Cu2   S    
C2    C20   S    
Cu2   O8    S    
C1    O2    A    
C13   O3    A    
C19   C22   S    
Cu1   O3    S    
N4    H17   S    
C4    C6    A    
N3    H15   S    
C15   C22   S    
C6    N8    S    
C4    C8    A    
C5    C7    A    
C10   N1    A    
C18   H7    S    
C17   C19   S    
C13   O4    A    
C18   C22   S    
C19   H6    S    
N6    H22   S    
C19   H8    S    
C9    N2    A    
C17   C21   S    
C5    N7    S    
C11   C12   A    
N8    H26   S    
Cu2   O6    S    
C3    C5    A    
C9    H13   S    
C16   C18   S    
