data_mof_unit_24872.cif
_audit_creation_date              2012-12-10T16:38:41-0500
_audit_creation_method            fapswitch 2.2
_symmetry_space_group_name_H-M    P1
_symmetry_Int_Tables_number       1
_space_group_crystal_system       triclinic
_cell_length_a                    10.829481
_cell_length_b                    10.854354
_cell_length_c                    17.898699
_cell_angle_alpha                 98.559625
_cell_angle_beta                  72.987571
_cell_angle_gamma                 98.695147
_cell_volume                      1976.53443729

loop_
_atom_site_label
_atom_site_type_symbol
_atom_type_description
_atom_site_fract_x
_atom_site_fract_y
_atom_site_fract_z
_atom_type_partial_charge
C1    C     C_R   0.157151 0.478765 0.518098 0.536492
C2    C     C_R   0.549110 0.364447 0.927414 -0.105425
C3    C     C_R   0.605659 0.299355 0.967250 -0.148243
C4    C     C_R   0.843129 0.522115 0.482908 0.493948
C5    C     C_R   0.601161 0.338082 0.045569 0.050003
C6    C     C_R   0.533231 0.441328 0.086242 0.030058
C7    C     C_R   0.660296 0.271521 0.084474 -0.131931
C8    C     C_R   0.651571 0.305163 0.163739 -0.137742
C9    C     C_R   0.530927 0.476694 0.165598 -0.127893
C10   C     C_2   0.981596 0.535231 0.477703 0.237498
C11   C     C_2   0.021435 0.471967 0.523437 -0.081062
C12   C     C_R   0.319716 0.677422 0.842095 0.198483
C13   C     C_2   0.539653 0.965842 0.476104 -0.095102
C14   C     C_2   0.452981 0.037303 0.524910 0.352336
C15   C     C_R   0.467941 0.168561 0.517518 0.528194
C16   C     C_R   0.529873 0.832893 0.482733 0.518216
C17   C     C_R   0.564727 0.434910 0.288244 0.502846
C18   C     C_R   0.438221 0.565825 0.712360 0.522881
C19   C     C_R   0.411968 0.595373 0.798828 0.019925
C20   C     C_R   0.587367 0.407862 0.203888 0.033046
C21   C     C_R   0.289131 0.693927 0.923889 -0.122203
C22   C     C_3   0.115201 0.673374 0.133084 0.004946
C23   C     C_R   0.480538 0.540993 0.838999 0.197888
C24   C     C_3   0.017963 0.635151 0.084100 -0.282193
C25   C     C_3   0.887559 0.577629 0.133056 -0.458612
C26   C     C_3   0.071855 0.732512 0.449667 0.010043
C27   C     C_3   0.188400 0.805312 0.396752 -0.255074
C28   C     C_3   0.191577 0.946214 0.421654 -0.453854
C29   C     C_3   0.331942 0.853280 0.782174 0.042913
C30   C     C_3   0.291311 0.963955 0.844277 -0.288999
C31   C     C_3   0.361765 0.088318 0.815708 -0.460825
C32   C     C_3   0.700094 0.584994 0.796063 0.016205
C33   C     C_3   0.825734 0.529407 0.750576 -0.266160
C34   C     C_R   0.438389 0.545492 0.922113 -0.033347
C35   C     C_3   0.944389 0.626911 0.745847 -0.458660
C36   C     C_R   0.347377 0.629605 0.964464 -0.030892
C37   C     C_R   0.487944 0.472431 0.964193 0.027981
C38   C     C_R   0.469397 0.504147 0.046329 -0.021156
C39   C     C_R   0.383345 0.593393 0.086192 -0.120374
C40   C     C_R   0.316593 0.649527 0.046804 0.269123
F1    F     F_    0.352262 0.991709 0.583385 -0.658186
H1    H     H_    0.710815 0.191756 0.053972 0.109047
H2    H     H_    0.072572 0.740414 0.184139 0.161416
H3    H     H_    0.130241 0.590350 0.158026 0.129557
H4    H     H_    0.002577 0.718990 0.060516 0.168585
H5    H     H_    0.057423 0.565454 0.033828 0.162681
H6    H     H_    0.900048 0.492360 0.156323 0.160100
H7    H     H_    0.820144 0.550900 0.095561 0.160594
H8    H     H_    0.844072 0.646238 0.182863 0.168826
H9    H     H_    0.080719 0.750858 0.511054 0.145561
H10   H     H_    0.981098 0.766742 0.447749 0.149130
H11   H     H_    0.279587 0.773589 0.399807 0.176086
H12   H     H_    0.954374 0.411782 0.564343 0.064185
H13   H     H_    0.183328 0.786019 0.334877 0.172329
H14   H     H_    0.103828 0.980890 0.415801 0.145725
H15   H     H_    0.279146 0.995910 0.383475 0.166485
H16   H     H_    0.195476 0.967721 0.483590 0.204315
H17   H     H_    0.314069 0.870198 0.726693 0.220271
H18   H     H_    0.438827 0.849029 0.768554 0.107844
H19   H     H_    0.184719 0.966448 0.857886 0.174884
H20   H     H_    0.314716 0.952400 0.899051 0.160012
H21   H     H_    0.468537 0.088710 0.803141 0.148070
H22   H     H_    0.330364 0.166479 0.861924 0.148664
H23   H     H_    0.619382 0.006630 0.430665 0.037365
H24   H     H_    0.338459 0.103909 0.761618 0.195632
H25   H     H_    0.705491 0.619278 0.857053 0.132965
H26   H     H_    0.690968 0.665357 0.766548 0.119039
H27   H     H_    0.836520 0.449980 0.780006 0.167866
H28   H     H_    0.820372 0.492962 0.690136 0.187607
H29   H     H_    0.937589 0.705260 0.714287 0.147663
H30   H     H_    0.033764 0.582773 0.713305 0.187121
H31   H     H_    0.951964 0.664452 0.805766 0.170423
H32   H     H_    0.485175 0.556362 0.199763 0.097389
H33   H     H_    0.693728 0.250620 0.193984 0.107050
H34   H     H_    0.652389 0.217458 0.936614 0.103314
H35   H     H_    0.218132 0.757171 0.955492 0.170432
H36   H     H_    0.360357 0.617786 0.148886 0.114724
H37   H     H_    0.548870 0.324505 0.868546 0.175763
O1    O     O_3   0.500000 0.500000 0.500000 -0.450508
O2    O     O_R   0.470800 0.371790 0.332500 -0.531307
O3    O     O_R   0.380610 0.619380 0.674980 -0.526075
O4    O     O_R   0.632640 0.524780 0.317540 -0.548372
O5    O     O_R   0.515950 0.484050 0.674980 -0.493082
O6    O     O_3   0.231899 0.735765 0.088331 -0.582843
O7    O     O_3   0.071308 0.603669 0.422009 -0.567395
O8    O     O_3   0.255418 0.740183 0.805625 -0.561540
O9    O     O_3   0.594212 0.491117 0.796712 -0.560285
O10   O     O_R   0.535460 0.243030 0.556410 -0.540719
O11   O     O_R   0.437420 0.784080 0.535340 -0.475675
O12   O     O_R   0.223560 0.397520 0.472140 -0.520332
O13   O     O_R   0.803560 0.575360 0.436110 -0.529884
O14   O     O_R   0.209690 0.568800 0.556400 -0.544724
O15   O     O_R   0.763190 0.458310 0.535350 -0.577013
O16   O     O_R   0.414000 0.207090 0.472140 -0.565313
O17   O     O_R   0.613120 0.765800 0.436110 -0.559981
Zn1   Zn    Zn3+2 0.577310 0.422690 0.565550 0.937102
Zn2   Zn    Zn3+2 0.403760 0.371330 0.445150 0.945325
Zn3   Zn    Zn3+2 0.634990 0.589920 0.423760 0.919322
Zn4   Zn    Zn3+2 0.383940 0.616050 0.565540 0.959489

loop_
_geom_bond_atom_site_label_1
_geom_bond_atom_site_label_2
_ccdc_geom_bond_type
O10   Zn1   S    
C10   O7    S    
C1    O12   A    
O2    Zn2   S    
C34   C37   A    
C40   O6    S    
O1    Zn3   S    
C1    C11   S    
C18   O3    A    
C15   O16   A    
C28   H15   S    
O17   Zn3   S    
C7    C8    A    
C21   C36   A    
C28   H16   S    
C21   H35   S    
C26   C27   S    
C8    C20   A    
O11   Zn4   S    
C24   H4    S    
C39   H36   S    
O1    Zn4   S    
C18   C19   S    
C26   H9    S    
C30   C31   S    
C17   C20   S    
C17   O4    A    
C7    H1    S    
C22   H3    S    
C29   H18   S    
C35   H29   S    
C30   H19   S    
C6    C38   A    
C29   C30   S    
C3    H34   S    
C25   H6    S    
O12   Zn2   S    
C11   H12   S    
C33   H28   S    
C4    O13   A    
C35   H30   S    
C16   O11   A    
C23   O9    S    
C13   C14   D    
O4    Zn3   S    
C31   H21   S    
C9    H32   S    
C6    C9    A    
C28   H14   S    
C38   C39   A    
C27   H13   S    
C31   H22   S    
C36   C40   A    
C24   C25   S    
C39   C40   A    
C5    C7    A    
O3    Zn4   S    
O16   Zn2   S    
C32   O9    S    
C12   C21   A    
C17   O2    A    
C22   O6    S    
C19   C23   A    
C37   C38   A    
C2    H37   S    
C9    C20   A    
C22   H2    S    
C23   C34   A    
C8    H33   S    
C18   O5    A    
C25   H7    S    
C29   O8    S    
C14   F1    S    
C35   H31   S    
O15   Zn1   S    
C32   H26   S    
C22   C24   S    
C30   H20   S    
C4    C10   S    
C27   H11   S    
C32   H25   S    
C31   H24   S    
C16   O17   A    
O1    Zn2   S    
C3    C5    A    
C1    O14   A    
C12   O8    S    
C24   H5    S    
C32   C33   S    
C2    C3    A    
O1    Zn1   S    
C26   H10   S    
C2    C37   A    
C5    C6    A    
C13   H23   S    
C26   O7    S    
O5    Zn1   S    
C12   C19   A    
C33   C35   S    
C34   C36   A    
O13   Zn3   S    
C25   H8    S    
C10   C11   D    
C4    O15   A    
C29   H17   S    
C33   H27   S    
C13   C16   S    
C27   C28   S    
C14   C15   S    
O14   Zn4   S    
C15   O10   A    
