data_mof_unit_10890.cif
_audit_creation_date              2012-12-10T16:41:55-0500
_audit_creation_method            fapswitch 2.2
_symmetry_space_group_name_H-M    P1
_symmetry_Int_Tables_number       1
_space_group_crystal_system       triclinic
_cell_length_a                    10.905583
_cell_length_b                    8.728457
_cell_length_c                    7.469323
_cell_angle_alpha                 102.9955
_cell_angle_beta                  94.245907
_cell_angle_gamma                 93.272918
_cell_volume                      688.892859208

loop_
_atom_site_label
_atom_site_type_symbol
_atom_type_description
_atom_site_fract_x
_atom_site_fract_y
_atom_site_fract_z
_atom_type_partial_charge
C1    C     C_R   0.492822 0.200000 0.454180 0.784227
C2    C     C_2   0.525707 0.968376 0.567045 0.209916
C3    C     C_R   0.266117 0.509068 0.503702 0.717283
C4    C     C_R   0.507356 0.800259 0.546199 0.834699
C5    C     C_R   0.733938 0.493382 0.496532 0.759876
C6    C     C_2   0.927709 0.517962 0.361238 0.399295
C7    C     C_2   0.863719 0.465430 0.485987 0.281469
C8    C     C_2   0.059727 0.495527 0.358593 -0.240004
C9    C     C_2   0.136220 0.538097 0.513394 0.324686
C10   C     C_2   0.472361 0.032436 0.435460 0.140344
Cu1   Cu    Cu3+1 0.513740 0.517380 0.684380 1.057490
Cu2   Cu    Cu3+1 0.486260 0.482620 0.315620 1.060784
H1    H     H_    0.093393 0.446144 0.226020 0.131052
N1    N     N_2   0.465540 0.456420 0.038510 0.119459
N2    N     N_2   0.534460 0.543580 0.961490 0.142322
O1    O     O_R   0.508930 0.286130 0.619780 -0.538196
O2    O     O_R   0.485720 0.256780 0.308360 -0.641270
O3    O     O_R   0.333540 0.514670 0.655670 -0.540130
O4    O     O_R   0.310330 0.485320 0.344250 -0.610108
O5    O     O_R   0.514280 0.743220 0.691640 -0.624150
O6    O     O_R   0.491070 0.713870 0.380220 -0.490425
O7    O     O_R   0.689670 0.514680 0.655750 -0.606396
O8    O     O_R   0.666460 0.485330 0.344330 -0.514851
O9    O     O_3   0.870498 0.593314 0.237327 -0.715055
H2    H     H_    0.933066 0.623448 0.159072 0.338642
O10   O     O_3   0.919799 0.377813 0.598020 -0.709288
H3    H     H_    0.857470 0.339882 0.671388 0.344028
O11   O     O_3   0.092844 0.617292 0.676191 -0.689923
H4    H     H_    0.162516 0.649380 0.772856 0.340750
O12   O     O_3   0.388851 0.943473 0.296491 -0.732328
H5    H     H_    0.353293 0.012910 0.221139 0.327272
O13   O     O_3   0.622540 0.050981 0.689162 -0.610140
C11   C     C_3   0.593467 0.075009 0.874631 0.111123
H6    H     H_    0.513843 0.998558 0.898258 0.146781
H7    H     H_    0.570501 0.198345 0.922058 0.206358
C12   C     C_3   0.706594 0.052257 0.995015 -0.706649
H8    H     H_    0.781294 0.143978 0.993872 0.244279
H9    H     H_    0.683200 0.062141 0.139196 0.209232
H10   H     H_    0.740237 0.934505 0.941881 0.245637
O14   O     O_3   0.376247 0.363178 0.926708 -0.620605
H11   H     H_    0.332009 0.308269 0.008056 0.325967
O15   O     O_3   0.621601 0.639595 0.074238 -0.553222
H12   H     H_    0.667992 0.690994 0.992172 0.339766

loop_
_geom_bond_atom_site_label_1
_geom_bond_atom_site_label_2
_ccdc_geom_bond_type
Cu2   O2    S    
C12   H8    S    
C2    C4    S    
Cu1   Cu2   S    
Cu1   O3    S    
C3    O4    A    
C6    C7    D    
C3    C9    S    
Cu1   O1    S    
C10   O12   S    
Cu1   O7    S    
C1    O2    A    
C5    O8    A    
C6    O9    S    
O13   C11   S    
C12   H9    S    
C11   H6    S    
C1    O1    A    
C4    O6    A    
Cu2   O8    S    
O10   H3    S    
C8    H1    S    
C7    O10   S    
Cu2   O4    S    
O11   H4    S    
C11   H7    S    
Cu2   N1    S    
O12   H5    S    
Cu1   O5    S    
O15   H12   S    
C1    C10   S    
N1    O14   S    
C4    O5    A    
C11   C12   S    
O9    H2    S    
C9    O11   S    
C3    O3    A    
C2    O13   S    
C5    C7    S    
N1    N2    D    
O14   H11   S    
C6    C8    S    
Cu1   N2    S    
Cu2   O6    S    
C12   H10   S    
C5    O7    A    
N2    O15   S    
C8    C9    D    
C2    C10   D    
