data_mof_unit_20029.cif
_audit_creation_date              2012-12-10T16:52:38-0500
_audit_creation_method            fapswitch 2.2
_symmetry_space_group_name_H-M    P1
_symmetry_Int_Tables_number       1
_space_group_crystal_system       triclinic
_cell_length_a                    7.814833
_cell_length_b                    8.566186
_cell_length_c                    13.665518
_cell_angle_alpha                 92.891296
_cell_angle_beta                  93.997247
_cell_angle_gamma                 94.088991
_cell_volume                      908.854105106

loop_
_atom_site_label
_atom_site_type_symbol
_atom_type_description
_atom_site_fract_x
_atom_site_fract_y
_atom_site_fract_z
_atom_type_partial_charge
Br1   Br    Br    0.623041 0.695333 0.250982 -0.534654
Br2   Br    Br    0.275911 0.287138 0.813374 -0.602433
C1    C     C_R   0.045209 0.794747 0.497719 0.963726
C2    C     C_R   0.936488 0.496391 0.317207 0.906613
C3    C     C_R   0.109309 0.569019 0.784018 -0.119291
C4    C     C_R   0.909854 0.506008 0.210379 -0.114360
C5    C     C_R   0.139207 0.797798 0.896808 -0.159295
C6    C     C_R   0.982052 0.409581 0.050010 -0.183393
C7    C     C_R   0.048351 0.709734 0.819114 -0.230774
C8    C     C_R   0.017501 0.425265 0.150890 -0.219110
C9    C     C_R   0.252759 0.510424 0.831187 0.160997
C10   C     C_R   0.777655 0.590938 0.167203 0.182586
C11   C     C_R   0.361172 0.610705 0.897049 0.034753
C12   C     C_R   0.954863 0.205280 0.502543 0.973455
C13   C     C_R   0.746762 0.581060 0.063344 0.025344
C14   C     C_R   0.298434 0.751981 0.934012 0.124890
C15   C     C_R   0.840170 0.476941 0.006986 0.128878
C16   C     C_R   0.529346 0.575661 0.927854 0.072422
C17   C     C_R   0.609066 0.651745 0.014532 0.075217
C18   C     C_R   0.552433 0.797442 0.045493 -0.153417
C19   C     C_R   0.626631 0.478073 0.871293 -0.157132
C20   C     C_R   0.398599 0.847530 0.005215 -0.179520
C21   C     C_R   0.784129 0.433889 0.909458 -0.196153
C22   C     C_2   0.068840 0.958408 0.496562 -0.346532
C23   C     C_2   0.931326 0.041634 0.504065 -0.352697
C24   C     C_R   0.065364 0.515176 0.682442 0.918889
H1    H     H_    0.356582 0.959227 0.031058 0.162318
H2    H     H_    0.801736 0.990213 0.511176 0.188176
H3    H     H_    0.486930 0.374706 0.427579 0.201063
H4    H     H_    0.513086 0.625266 0.572453 0.189164
H5    H     H_    0.855542 0.356770 0.865093 0.171716
H6    H     H_    0.122428 0.364153 0.183091 0.180828
H7    H     H_    0.936905 0.756105 0.782618 0.171756
H8    H     H_    0.091255 0.906739 0.923038 0.162097
H9    H     H_    0.058771 0.336035 0.006550 0.178757
H10   H     H_    0.629395 0.875403 0.098672 0.186584
H11   H     H_    0.584934 0.440320 0.796206 0.195848
H12   H     H_    0.198439 0.009821 0.489477 0.186397
N1    N     N_2   0.440860 0.456490 0.474790 -0.144873
N2    N     N_2   0.559140 0.543510 0.525210 -0.150813
O1    O     O_R   0.891570 0.738930 0.506190 -0.602265
O2    O     O_R   0.108430 0.261070 0.493810 -0.605866
O3    O     O_R   0.174650 0.711050 0.490030 -0.618456
O4    O     O_R   0.825350 0.288950 0.509970 -0.626198
O5    O     O_R   0.909850 0.521900 0.644940 -0.629801
O6    O     O_R   0.090150 0.478100 0.355060 -0.611863
O7    O     O_R   0.192930 0.494020 0.628780 -0.594161
O8    O     O_R   0.807070 0.505980 0.371220 -0.569495
Zn1   Zn    Zn3+2 0.810990 0.518620 0.510790 0.975454
Zn2   Zn    Zn3+2 0.189010 0.481380 0.489210 0.984627

loop_
_geom_bond_atom_site_label_1
_geom_bond_atom_site_label_2
_ccdc_geom_bond_type
O4    Zn1   S    
C4    C8    A    
C22   H12   S    
O3    Zn2   S    
C3    C7    A    
C3    C24   S    
C16   C19   A    
O6    Zn2   S    
C17   C18   A    
C10   C13   A    
O5    Zn1   S    
C12   O2    A    
H3    N1    S    
H4    N2    S    
C2    O6    A    
C23   H2    S    
C13   C17   A    
C9    C11   A    
C1    O3    A    
C1    C22   S    
C15   C21   A    
Br1   C10   S    
C11   C16   A    
O2    Zn2   S    
C7    H7    S    
C24   O7    A    
O1    Zn1   S    
O8    Zn1   S    
C18   C20   A    
C3    C9    A    
O7    Zn2   S    
C20   H1    S    
C19   C21   A    
C12   C23   S    
C4    C10   A    
C5    H8    S    
C2    C4    S    
Br2   C9    S    
N2    Zn1   S    
C18   H10   S    
C8    H6    S    
N1    Zn2   S    
C19   H11   S    
C22   C23   D    
C12   O4    A    
C16   C17   A    
C2    O8    A    
C11   C14   A    
N1    N2    D    
C5    C7    A    
C5    C14   A    
C14   C20   A    
C24   O5    A    
C13   C15   A    
C6    C8    A    
C1    O1    A    
C6    C15   A    
C6    H9    S    
C21   H5    S    
