data_mof_unit_65833.cif
_audit_creation_date              2012-12-10T17:17:54-0500
_audit_creation_method            fapswitch 2.2
_symmetry_space_group_name_H-M    P1
_symmetry_Int_Tables_number       1
_space_group_crystal_system       triclinic
_cell_length_a                    21.796753
_cell_length_b                    30.609519
_cell_length_c                    30.706249
_cell_angle_alpha                 90.0
_cell_angle_beta                  90.000052
_cell_angle_gamma                 90.000026
_cell_volume                      20486.8446989

loop_
_atom_site_label
_atom_site_type_symbol
_atom_type_description
_atom_site_fract_x
_atom_site_fract_y
_atom_site_fract_z
_atom_type_partial_charge
C1    C     C_R   0.250035 0.559517 0.059417 0.777829
C2    C     C_R   0.749965 0.440483 0.059417 0.777831
C3    C     C_R   0.250035 0.440483 0.940583 0.777829
C4    C     C_R   0.749965 0.559517 0.940583 0.777831
C5    C     C_R   0.750035 0.059517 0.059417 0.777830
C6    C     C_R   0.249965 0.940483 0.059417 0.777830
C7    C     C_R   0.750035 0.940483 0.940583 0.777829
C8    C     C_R   0.249965 0.059517 0.940583 0.777831
C9    C     C_R   0.750035 0.559517 0.559417 0.777830
C10   C     C_R   0.249965 0.440483 0.559417 0.777830
C11   C     C_R   0.750035 0.440483 0.440583 0.777829
C12   C     C_R   0.249965 0.559517 0.440583 0.777831
C13   C     C_R   0.250035 0.059517 0.559417 0.777829
C14   C     C_R   0.749965 0.940483 0.559417 0.777831
C15   C     C_R   0.250035 0.940483 0.440583 0.777829
C16   C     C_R   0.749965 0.059517 0.440583 0.777832
C17   C     C_R   0.250060 0.657189 0.156967 -0.009427
C18   C     C_R   0.749940 0.342811 0.156967 -0.009427
C19   C     C_R   0.250060 0.342811 0.843033 -0.009427
C20   C     C_R   0.749940 0.657189 0.843033 -0.009427
C21   C     C_R   0.750060 0.157189 0.156967 -0.009427
C22   C     C_R   0.249940 0.842811 0.156967 -0.009427
C23   C     C_R   0.750060 0.842811 0.843033 -0.009427
C24   C     C_R   0.249940 0.157189 0.843033 -0.009427
C25   C     C_R   0.750060 0.657189 0.656967 -0.009427
C26   C     C_R   0.249940 0.342811 0.656967 -0.009427
C27   C     C_R   0.750060 0.342811 0.343033 -0.009427
C28   C     C_R   0.249940 0.657189 0.343033 -0.009427
C29   C     C_R   0.250060 0.157189 0.656967 -0.009427
C30   C     C_R   0.749940 0.842811 0.656967 -0.009427
C31   C     C_R   0.250060 0.842811 0.343033 -0.009427
C32   C     C_R   0.749940 0.157189 0.343033 -0.009427
C33   C     C_R   0.210478 0.660939 0.121247 -0.175321
C34   C     C_R   0.789521 0.339061 0.121248 -0.175321
C35   C     C_R   0.210479 0.339060 0.878752 -0.175320
C36   C     C_R   0.789522 0.660939 0.878752 -0.175320
C37   C     C_R   0.710478 0.160939 0.121248 -0.175320
C38   C     C_R   0.289521 0.839061 0.121248 -0.175319
C39   C     C_R   0.710478 0.839060 0.878752 -0.175320
C40   C     C_R   0.289522 0.160939 0.878752 -0.175320
C41   C     C_R   0.710478 0.660939 0.621248 -0.175320
C42   C     C_R   0.289522 0.339061 0.621248 -0.175319
C43   C     C_R   0.710479 0.339060 0.378752 -0.175320
C44   C     C_R   0.289522 0.660939 0.378752 -0.175320
C45   C     C_R   0.210478 0.160939 0.621248 -0.175321
C46   C     C_R   0.789521 0.839061 0.621248 -0.175320
C47   C     C_R   0.210479 0.839060 0.378752 -0.175320
C48   C     C_R   0.789522 0.160939 0.378752 -0.175320
C49   C     C_R   0.211281 0.629281 0.088776 -0.179953
C50   C     C_R   0.788719 0.370719 0.088776 -0.179952
C51   C     C_R   0.211281 0.370719 0.911224 -0.179952
C52   C     C_R   0.788719 0.629281 0.911224 -0.179953
C53   C     C_R   0.711281 0.129281 0.088776 -0.179952
C54   C     C_R   0.288719 0.870719 0.088776 -0.179953
C55   C     C_R   0.711281 0.870719 0.911224 -0.179952
C56   C     C_R   0.288719 0.129281 0.911224 -0.179953
C57   C     C_R   0.711281 0.629281 0.588776 -0.179952
C58   C     C_R   0.288719 0.370719 0.588776 -0.179953
C59   C     C_R   0.711281 0.370719 0.411224 -0.179953
C60   C     C_R   0.288719 0.629281 0.411224 -0.179953
C61   C     C_R   0.211281 0.129281 0.588776 -0.179953
C62   C     C_R   0.788719 0.870719 0.588776 -0.179953
C63   C     C_R   0.211281 0.870719 0.411224 -0.179952
C64   C     C_R   0.788719 0.129281 0.411224 -0.179954
C65   C     C_R   0.250138 0.593073 0.092759 -0.002089
C66   C     C_R   0.749862 0.406927 0.092759 -0.002089
C67   C     C_R   0.250138 0.406927 0.907241 -0.002090
C68   C     C_R   0.749862 0.593073 0.907241 -0.002088
C69   C     C_R   0.750138 0.093073 0.092759 -0.002089
C70   C     C_R   0.249862 0.906927 0.092759 -0.002089
C71   C     C_R   0.750138 0.906927 0.907241 -0.002089
C72   C     C_R   0.249862 0.093073 0.907241 -0.002089
C73   C     C_R   0.750138 0.593073 0.592759 -0.002089
C74   C     C_R   0.249862 0.406927 0.592759 -0.002089
C75   C     C_R   0.750138 0.406927 0.407241 -0.002089
C76   C     C_R   0.249862 0.593073 0.407241 -0.002089
C77   C     C_R   0.250138 0.093073 0.592759 -0.002089
C78   C     C_R   0.749862 0.906927 0.592759 -0.002089
C79   C     C_R   0.250138 0.906927 0.407241 -0.002090
C80   C     C_R   0.749862 0.093073 0.407241 -0.002088
C81   C     C_R   0.467819 0.459942 0.000602 0.146799
C82   C     C_R   0.532182 0.540057 0.000597 0.146792
C83   C     C_R   0.467819 0.540057 0.999398 0.146797
C84   C     C_R   0.532182 0.459942 0.999402 0.146793
C85   C     C_R   0.967819 0.959942 0.000601 0.146797
C86   C     C_R   0.032181 0.040057 0.000598 0.146794
C87   C     C_R   0.967819 0.040057 0.999399 0.146796
C88   C     C_R   0.032181 0.959942 0.999401 0.146795
C89   C     C_R   0.967819 0.459942 0.500601 0.146797
C90   C     C_R   0.032181 0.540057 0.500598 0.146794
C91   C     C_R   0.967819 0.540057 0.499399 0.146796
C92   C     C_R   0.032181 0.459942 0.499401 0.146795
C93   C     C_R   0.467819 0.959942 0.500602 0.146798
C94   C     C_R   0.532182 0.040058 0.500597 0.146793
C95   C     C_R   0.467819 0.040058 0.499398 0.146797
C96   C     C_R   0.532181 0.959942 0.499403 0.146794
C97   C     C_R   0.564111 0.500000 1.000000 -0.188126
C98   C     C_R   0.435889 0.500000 0.000000 -0.188138
C99   C     C_R   0.064111 1.000000 1.000000 -0.188129
C100  C     C_R   0.935889 0.000000 0.000000 -0.188133
C101  C     C_R   0.064111 0.500000 0.500000 -0.188129
C102  C     C_R   0.935889 0.500000 0.500000 -0.188134
C103  C     C_R   0.564111 1.000000 0.500000 -0.188127
C104  C     C_R   0.435889 0.000000 0.500000 -0.188136
C105  C     C_R   0.249982 0.309414 0.690478 0.777207
C106  C     C_R   0.750018 0.690586 0.690478 0.777208
C107  C     C_R   0.249982 0.690586 0.309522 0.777207
C108  C     C_R   0.750018 0.309414 0.309522 0.777207
C109  C     C_R   0.749982 0.809414 0.690478 0.777208
C110  C     C_R   0.250018 0.190586 0.690478 0.777208
C111  C     C_R   0.749982 0.190586 0.309522 0.777207
C112  C     C_R   0.250018 0.809414 0.309522 0.777207
C113  C     C_R   0.749982 0.309414 0.190478 0.777207
C114  C     C_R   0.250018 0.690586 0.190478 0.777208
C115  C     C_R   0.749982 0.690586 0.809522 0.777207
C116  C     C_R   0.250018 0.309414 0.809522 0.777207
C117  C     C_R   0.249982 0.809414 0.190478 0.777207
C118  C     C_R   0.750018 0.190586 0.190478 0.777208
C119  C     C_R   0.249982 0.190586 0.809522 0.777207
C120  C     C_R   0.750018 0.809414 0.809522 0.777207
C121  C     C_R   0.131310 0.500000 0.000000 0.792341
C122  C     C_R   0.868690 0.500000 0.000000 0.792341
C123  C     C_R   0.631310 0.000000 0.000000 0.792341
C124  C     C_R   0.368690 0.000000 0.000000 0.792341
C125  C     C_R   0.631310 0.500000 0.500000 0.792341
C126  C     C_R   0.368690 0.500000 0.500000 0.792341
C127  C     C_R   0.131310 0.000000 0.500000 0.792341
C128  C     C_R   0.868690 0.000000 0.500000 0.792341
C129  C     C_R   0.368894 0.500000 0.000000 0.904818
C130  C     C_R   0.631106 0.500000 1.000000 0.904829
C131  C     C_R   0.868894 0.000000 0.000000 0.904821
C132  C     C_R   0.131106 1.000000 1.000000 0.904825
C133  C     C_R   0.868894 0.500000 0.500000 0.904821
C134  C     C_R   0.131106 0.500000 0.500000 0.904825
C135  C     C_R   0.368894 0.000000 0.500000 0.904818
C136  C     C_R   0.631106 1.000000 0.500000 0.904829
C137  C     C_R   0.062885 0.419253 0.992581 -0.142222
C138  C     C_R   0.937115 0.580747 0.992581 -0.142222
C139  C     C_R   0.062885 0.580747 0.007419 -0.142222
C140  C     C_R   0.937115 0.419253 0.007419 -0.142222
C141  C     C_R   0.562885 0.919253 0.992581 -0.142222
C142  C     C_R   0.437115 0.080747 0.992581 -0.142222
C143  C     C_R   0.562885 0.080747 0.007419 -0.142222
C144  C     C_R   0.437115 0.919253 0.007419 -0.142222
C145  C     C_R   0.562885 0.419253 0.492581 -0.142222
C146  C     C_R   0.437115 0.580747 0.492581 -0.142222
C147  C     C_R   0.562885 0.580747 0.507419 -0.142222
C148  C     C_R   0.437115 0.419253 0.507419 -0.142222
C149  C     C_R   0.062885 0.919253 0.492581 -0.142222
C150  C     C_R   0.937115 0.080747 0.492581 -0.142222
C151  C     C_R   0.062885 0.080747 0.507419 -0.142222
C152  C     C_R   0.937115 0.919253 0.507419 -0.142222
C153  C     C_R   0.031247 0.379854 0.995688 -0.144059
C154  C     C_R   0.968753 0.620146 0.995688 -0.144058
C155  C     C_R   0.031248 0.620146 0.004312 -0.144058
C156  C     C_R   0.968752 0.379854 0.004312 -0.144058
C157  C     C_R   0.531247 0.879854 0.995688 -0.144058
C158  C     C_R   0.468753 0.120146 0.995688 -0.144059
C159  C     C_R   0.531247 0.120146 0.004312 -0.144058
C160  C     C_R   0.468752 0.879854 0.004312 -0.144058
C161  C     C_R   0.531247 0.379854 0.495688 -0.144059
C162  C     C_R   0.468753 0.620146 0.495688 -0.144059
C163  C     C_R   0.531247 0.620146 0.504312 -0.144058
C164  C     C_R   0.468752 0.379854 0.504312 -0.144058
C165  C     C_R   0.031247 0.879854 0.495688 -0.144059
C166  C     C_R   0.968752 0.120146 0.495688 -0.144059
C167  C     C_R   0.031248 0.120146 0.504312 -0.144058
C168  C     C_R   0.968752 0.879854 0.504312 -0.144058
C169  C     C_R   0.967754 0.459778 0.001893 0.074254
C170  C     C_R   0.032246 0.540222 0.001893 0.074254
C171  C     C_R   0.967754 0.540222 0.998107 0.074254
C172  C     C_R   0.032246 0.459778 0.998107 0.074254
C173  C     C_R   0.467754 0.959778 0.001893 0.074254
C174  C     C_R   0.532246 0.040222 0.001893 0.074254
C175  C     C_R   0.467754 0.040222 0.998107 0.074254
C176  C     C_R   0.532246 0.959778 0.998107 0.074254
C177  C     C_R   0.467754 0.459778 0.501893 0.074254
C178  C     C_R   0.532246 0.540222 0.501893 0.074254
C179  C     C_R   0.467754 0.540222 0.498107 0.074254
C180  C     C_R   0.532246 0.459778 0.498107 0.074254
C181  C     C_R   0.967754 0.959778 0.501893 0.074254
C182  C     C_R   0.032246 0.040222 0.501893 0.074254
C183  C     C_R   0.967754 0.040222 0.498107 0.074254
C184  C     C_R   0.032246 0.959778 0.498107 0.074254
C185  C     C_R   0.935636 0.500000 0.000000 -0.190418
C186  C     C_R   0.064364 0.500000 0.000000 -0.190418
C187  C     C_R   0.435636 0.000000 0.000000 -0.190418
C188  C     C_R   0.564364 0.000000 0.000000 -0.190418
C189  C     C_R   0.435636 0.500000 0.500000 -0.190418
C190  C     C_R   0.564364 0.500000 0.500000 -0.190418
C191  C     C_R   0.935636 0.000000 0.500000 -0.190418
C192  C     C_R   0.064364 0.000000 0.500000 -0.190418
C193  C     C_R   0.289037 0.588994 0.128812 -0.175634
C194  C     C_R   0.710963 0.411006 0.128812 -0.175634
C195  C     C_R   0.289037 0.411006 0.871188 -0.175634
C196  C     C_R   0.710963 0.588994 0.871188 -0.175635
C197  C     C_R   0.789037 0.088994 0.128812 -0.175635
C198  C     C_R   0.210963 0.911006 0.128812 -0.175634
C199  C     C_R   0.789037 0.911006 0.871188 -0.175635
C200  C     C_R   0.210963 0.088994 0.871188 -0.175634
C201  C     C_R   0.789037 0.588994 0.628812 -0.175635
C202  C     C_R   0.210963 0.411006 0.628812 -0.175634
C203  C     C_R   0.789037 0.411006 0.371188 -0.175634
C204  C     C_R   0.210963 0.588994 0.371188 -0.175634
C205  C     C_R   0.289037 0.088994 0.628812 -0.175635
C206  C     C_R   0.710963 0.911006 0.628812 -0.175634
C207  C     C_R   0.289037 0.911006 0.371188 -0.175634
C208  C     C_R   0.710963 0.088994 0.371188 -0.175634
C209  C     C_R   0.289747 0.621405 0.160524 -0.180069
C210  C     C_R   0.710253 0.378594 0.160523 -0.180068
C211  C     C_R   0.289747 0.378595 0.839477 -0.180068
C212  C     C_R   0.710253 0.621405 0.839477 -0.180068
C213  C     C_R   0.789747 0.121405 0.160523 -0.180067
C214  C     C_R   0.210253 0.878594 0.160523 -0.180069
C215  C     C_R   0.789747 0.878594 0.839477 -0.180068
C216  C     C_R   0.210253 0.121405 0.839477 -0.180069
C217  C     C_R   0.789747 0.621405 0.660523 -0.180067
C218  C     C_R   0.210253 0.378594 0.660523 -0.180069
C219  C     C_R   0.789747 0.378595 0.339477 -0.180068
C220  C     C_R   0.210253 0.621405 0.339477 -0.180069
C221  C     C_R   0.289747 0.121405 0.660524 -0.180068
C222  C     C_R   0.710253 0.878594 0.660523 -0.180069
C223  C     C_R   0.289747 0.878594 0.339477 -0.180069
C224  C     C_R   0.710253 0.121405 0.339477 -0.180069
Cu1   Cu    Cu3+1 0.250020 0.530890 0.969080 0.939332
Cu2   Cu    Cu3+1 0.749980 0.469110 0.969080 0.939331
Cu3   Cu    Cu3+1 0.250020 0.469110 0.030920 0.939332
Cu4   Cu    Cu3+1 0.749980 0.530890 0.030920 0.939330
Cu5   Cu    Cu3+1 0.750020 0.030890 0.969080 0.939331
Cu6   Cu    Cu3+1 0.249980 0.969110 0.969080 0.939331
Cu7   Cu    Cu3+1 0.750020 0.969110 0.030920 0.939332
Cu8   Cu    Cu3+1 0.249980 0.030890 0.030920 0.939331
Cu9   Cu    Cu3+1 0.750020 0.530890 0.469080 0.939331
Cu10  Cu    Cu3+1 0.249980 0.469110 0.469080 0.939331
Cu11  Cu    Cu3+1 0.750020 0.469110 0.530920 0.939332
Cu12  Cu    Cu3+1 0.249980 0.530890 0.530920 0.939331
Cu13  Cu    Cu3+1 0.250020 0.030890 0.469080 0.939331
Cu14  Cu    Cu3+1 0.749980 0.969110 0.469080 0.939331
Cu15  Cu    Cu3+1 0.250020 0.969110 0.530920 0.939332
Cu16  Cu    Cu3+1 0.749980 0.030890 0.530920 0.939330
Cu17  Cu    Cu3+1 0.311820 0.250000 0.750000 0.945144
Cu18  Cu    Cu3+1 0.688180 0.750000 0.750000 0.945144
Cu19  Cu    Cu3+1 0.311820 0.750000 0.250000 0.945144
Cu20  Cu    Cu3+1 0.688180 0.250000 0.250000 0.945144
Cu21  Cu    Cu3+1 0.811820 0.750000 0.750000 0.945144
Cu22  Cu    Cu3+1 0.188180 0.250000 0.750000 0.945144
Cu23  Cu    Cu3+1 0.811820 0.250000 0.250000 0.945144
Cu24  Cu    Cu3+1 0.188180 0.750000 0.250000 0.945144
O1    O     O_R   0.250030 0.571170 0.018980 -0.591971
O2    O     O_R   0.749970 0.428830 0.018980 -0.591972
O3    O     O_R   0.250030 0.428830 0.981020 -0.591970
O4    O     O_R   0.749970 0.571170 0.981020 -0.591974
O5    O     O_R   0.750030 0.071170 0.018980 -0.591972
O6    O     O_R   0.249970 0.928830 0.018980 -0.591972
O7    O     O_R   0.750030 0.928830 0.981020 -0.591971
O8    O     O_R   0.249970 0.071170 0.981020 -0.591973
O9    O     O_R   0.750030 0.571170 0.518980 -0.591972
O10   O     O_R   0.249970 0.428830 0.518980 -0.591972
O11   O     O_R   0.750030 0.428830 0.481020 -0.591971
O12   O     O_R   0.249970 0.571170 0.481020 -0.591973
O13   O     O_R   0.250030 0.071170 0.518980 -0.591972
O14   O     O_R   0.749970 0.928830 0.518980 -0.591973
O15   O     O_R   0.250030 0.928830 0.481020 -0.591971
O16   O     O_R   0.749970 0.071170 0.481020 -0.591974
O17   O     O_R   0.250030 0.519000 0.071200 -0.587550
O18   O     O_R   0.749970 0.481000 0.071200 -0.587548
O19   O     O_R   0.250030 0.481000 0.928800 -0.587549
O20   O     O_R   0.749970 0.519000 0.928800 -0.587549
O21   O     O_R   0.750030 0.019000 0.071200 -0.587549
O22   O     O_R   0.249970 0.981000 0.071200 -0.587548
O23   O     O_R   0.750030 0.981000 0.928800 -0.587549
O24   O     O_R   0.249970 0.019000 0.928800 -0.587549
O25   O     O_R   0.750030 0.519000 0.571200 -0.587549
O26   O     O_R   0.249970 0.481000 0.571200 -0.587548
O27   O     O_R   0.750030 0.481000 0.428800 -0.587549
O28   O     O_R   0.249970 0.519000 0.428800 -0.587549
O29   O     O_R   0.250030 0.019000 0.571200 -0.587549
O30   O     O_R   0.749970 0.981000 0.571200 -0.587548
O31   O     O_R   0.250030 0.981000 0.428800 -0.587549
O32   O     O_R   0.749970 0.019000 0.428800 -0.587549
O33   O     O_R   0.159850 0.526090 0.973890 -0.586568
O34   O     O_R   0.840150 0.473910 0.973890 -0.586568
O35   O     O_R   0.159850 0.473910 0.026110 -0.586568
O36   O     O_R   0.840150 0.526090 0.026110 -0.586569
O37   O     O_R   0.659850 0.026090 0.973890 -0.586568
O38   O     O_R   0.340150 0.973910 0.973890 -0.586568
O39   O     O_R   0.659850 0.973910 0.026110 -0.586568
O40   O     O_R   0.340150 0.026090 0.026110 -0.586569
O41   O     O_R   0.659850 0.526090 0.473890 -0.586568
O42   O     O_R   0.340150 0.473910 0.473890 -0.586568
O43   O     O_R   0.659850 0.473910 0.526110 -0.586569
O44   O     O_R   0.340150 0.526090 0.526110 -0.586569
O45   O     O_R   0.159850 0.026090 0.473890 -0.586568
O46   O     O_R   0.840150 0.973910 0.473890 -0.586568
O47   O     O_R   0.159850 0.973910 0.526110 -0.586568
O48   O     O_R   0.840150 0.026090 0.526110 -0.586569
O49   O     O_R   0.340200 0.526080 0.973890 -0.574192
O50   O     O_R   0.659800 0.473920 0.973890 -0.574196
O51   O     O_R   0.340200 0.473920 0.026110 -0.574192
O52   O     O_R   0.659800 0.526080 0.026110 -0.574195
O53   O     O_R   0.840200 0.026080 0.973890 -0.574193
O54   O     O_R   0.159800 0.973920 0.973890 -0.574195
O55   O     O_R   0.840200 0.973920 0.026110 -0.574193
O56   O     O_R   0.159800 0.026080 0.026110 -0.574194
O57   O     O_R   0.840200 0.526080 0.473890 -0.574193
O58   O     O_R   0.159800 0.473920 0.473890 -0.574195
O59   O     O_R   0.840200 0.473920 0.526110 -0.574192
O60   O     O_R   0.159800 0.526080 0.526110 -0.574194
O61   O     O_R   0.340200 0.026080 0.473890 -0.574192
O62   O     O_R   0.659800 0.973920 0.473890 -0.574196
O63   O     O_R   0.340200 0.973920 0.526110 -0.574192
O64   O     O_R   0.659800 0.026080 0.526110 -0.574196
O65   O     O_R   0.302180 0.295120 0.704840 -0.585397
O66   O     O_R   0.697820 0.704880 0.704840 -0.585398
O67   O     O_R   0.302180 0.704880 0.295160 -0.585397
O68   O     O_R   0.697820 0.295120 0.295160 -0.585398
O69   O     O_R   0.802180 0.795120 0.704840 -0.585397
O70   O     O_R   0.197820 0.204880 0.704840 -0.585398
O71   O     O_R   0.802180 0.204880 0.295160 -0.585397
O72   O     O_R   0.197820 0.795120 0.295160 -0.585398
O73   O     O_R   0.802180 0.295120 0.204840 -0.585397
O74   O     O_R   0.197820 0.704880 0.204840 -0.585398
O75   O     O_R   0.802180 0.704880 0.795160 -0.585397
O76   O     O_R   0.197820 0.295120 0.795160 -0.585398
O77   O     O_R   0.302180 0.795120 0.204840 -0.585397
O78   O     O_R   0.697820 0.204880 0.204840 -0.585398
O79   O     O_R   0.302180 0.204880 0.795160 -0.585397
O80   O     O_R   0.697820 0.795120 0.795160 -0.585398
O81   O     O_R   0.197800 0.295110 0.704850 -0.586495
O82   O     O_R   0.802200 0.704890 0.704850 -0.586495
O83   O     O_R   0.197800 0.704890 0.295150 -0.586496
O84   O     O_R   0.802200 0.295110 0.295150 -0.586495
O85   O     O_R   0.697800 0.795110 0.704850 -0.586495
O86   O     O_R   0.302200 0.204890 0.704850 -0.586495
O87   O     O_R   0.697800 0.204890 0.295150 -0.586496
O88   O     O_R   0.302200 0.795110 0.295150 -0.586495
O89   O     O_R   0.697800 0.295110 0.204850 -0.586495
O90   O     O_R   0.302200 0.704890 0.204850 -0.586495
O91   O     O_R   0.697800 0.704890 0.795150 -0.586496
O92   O     O_R   0.302200 0.295110 0.795150 -0.586495
O93   O     O_R   0.197800 0.795110 0.204850 -0.586495
O94   O     O_R   0.802200 0.204890 0.204850 -0.586495
O95   O     O_R   0.197800 0.204890 0.795150 -0.586496
O96   O     O_R   0.802200 0.795110 0.795150 -0.586495
H1    H     H_    0.055527 0.650779 0.008002 0.128776
H2    H     H_    0.944473 0.349221 0.008002 0.128776
H3    H     H_    0.055527 0.349221 0.991998 0.128776
H4    H     H_    0.944473 0.650779 0.991998 0.128776
H5    H     H_    0.555527 0.150779 0.008002 0.128776
H6    H     H_    0.444473 0.849221 0.008002 0.128776
H7    H     H_    0.555527 0.849221 0.991998 0.128776
H8    H     H_    0.444473 0.150779 0.991998 0.128776
H9    H     H_    0.555527 0.650779 0.508002 0.128776
H10   H     H_    0.444473 0.349221 0.508002 0.128776
H11   H     H_    0.555527 0.349221 0.491998 0.128776
H12   H     H_    0.444473 0.650779 0.491998 0.128776
H13   H     H_    0.055527 0.150779 0.508002 0.128776
H14   H     H_    0.944473 0.849221 0.508002 0.128776
H15   H     H_    0.055527 0.849221 0.491998 0.128776
H16   H     H_    0.944473 0.150779 0.491998 0.128776
H17   H     H_    0.111312 0.417315 0.985444 0.138871
H18   H     H_    0.888688 0.582685 0.985444 0.138871
H19   H     H_    0.111312 0.582685 0.014555 0.138871
H20   H     H_    0.888688 0.417315 0.014556 0.138871
H21   H     H_    0.611312 0.917315 0.985444 0.138871
H22   H     H_    0.388688 0.082685 0.985444 0.138871
H23   H     H_    0.611312 0.082685 0.014555 0.138871
H24   H     H_    0.388688 0.917315 0.014556 0.138871
H25   H     H_    0.611312 0.417315 0.485444 0.138871
H26   H     H_    0.388688 0.582685 0.485445 0.138871
H27   H     H_    0.611312 0.582685 0.514555 0.138871
H28   H     H_    0.388688 0.417315 0.514556 0.138871
H29   H     H_    0.111312 0.917315 0.485444 0.138871
H30   H     H_    0.888688 0.082685 0.485445 0.138871
H31   H     H_    0.111312 0.082685 0.514555 0.138871
H32   H     H_    0.888687 0.917315 0.514556 0.138871
H33   H     H_    0.319424 0.561161 0.131988 0.137615
H34   H     H_    0.680575 0.438839 0.131987 0.137616
H35   H     H_    0.319424 0.438839 0.868012 0.137615
H36   H     H_    0.680575 0.561161 0.868013 0.137615
H37   H     H_    0.819424 0.061161 0.131988 0.137615
H38   H     H_    0.180575 0.938839 0.131988 0.137615
H39   H     H_    0.819424 0.938839 0.868012 0.137615
H40   H     H_    0.180575 0.061161 0.868012 0.137615
H41   H     H_    0.819424 0.561161 0.631988 0.137615
H42   H     H_    0.180576 0.438839 0.631988 0.137615
H43   H     H_    0.819424 0.438839 0.368012 0.137615
H44   H     H_    0.180575 0.561161 0.368012 0.137615
H45   H     H_    0.319424 0.061161 0.631988 0.137615
H46   H     H_    0.680575 0.938839 0.631987 0.137616
H47   H     H_    0.319424 0.938839 0.368012 0.137615
H48   H     H_    0.680575 0.061161 0.368012 0.137615
H49   H     H_    0.320348 0.618235 0.188151 0.140082
H50   H     H_    0.679651 0.381765 0.188150 0.140082
H51   H     H_    0.320348 0.381765 0.811849 0.140082
H52   H     H_    0.679651 0.618235 0.811850 0.140082
H53   H     H_    0.820348 0.118235 0.188151 0.140082
H54   H     H_    0.179651 0.881765 0.188150 0.140082
H55   H     H_    0.820349 0.881765 0.811850 0.140082
H56   H     H_    0.179651 0.118235 0.811850 0.140082
H57   H     H_    0.820348 0.618235 0.688151 0.140082
H58   H     H_    0.179651 0.381765 0.688150 0.140082
H59   H     H_    0.820349 0.381765 0.311850 0.140082
H60   H     H_    0.179651 0.618235 0.311850 0.140082
H61   H     H_    0.320348 0.118235 0.688151 0.140082
H62   H     H_    0.679651 0.881764 0.688150 0.140082
H63   H     H_    0.320348 0.881765 0.311849 0.140082
H64   H     H_    0.679651 0.118235 0.311850 0.140082
H65   H     H_    0.179862 0.688657 0.118195 0.137754
H66   H     H_    0.820139 0.311343 0.118196 0.137754
H67   H     H_    0.179862 0.311343 0.881805 0.137754
H68   H     H_    0.820139 0.688657 0.881804 0.137754
H69   H     H_    0.679861 0.188657 0.118195 0.137754
H70   H     H_    0.320139 0.811343 0.118195 0.137754
H71   H     H_    0.679861 0.811343 0.881805 0.137754
H72   H     H_    0.320139 0.188657 0.881805 0.137754
H73   H     H_    0.679861 0.688657 0.618195 0.137754
H74   H     H_    0.320139 0.311343 0.618195 0.137754
H75   H     H_    0.679861 0.311343 0.381804 0.137754
H76   H     H_    0.320139 0.688657 0.381804 0.137754
H77   H     H_    0.179861 0.188657 0.618195 0.137754
H78   H     H_    0.820139 0.811343 0.618196 0.137754
H79   H     H_    0.179862 0.811343 0.381804 0.137754
H80   H     H_    0.820139 0.188657 0.381804 0.137754
H81   H     H_    0.180958 0.632608 0.061022 0.127176
H82   H     H_    0.819042 0.367392 0.061022 0.127175
H83   H     H_    0.180958 0.367392 0.938978 0.127176
H84   H     H_    0.819042 0.632608 0.938978 0.127176
H85   H     H_    0.680958 0.132608 0.061022 0.127176
H86   H     H_    0.319042 0.867392 0.061022 0.127176
H87   H     H_    0.680958 0.867392 0.938978 0.127176
H88   H     H_    0.319042 0.132608 0.938978 0.127176
H89   H     H_    0.680958 0.632608 0.561022 0.127176
H90   H     H_    0.319042 0.367392 0.561022 0.127176
H91   H     H_    0.680958 0.367392 0.438978 0.127176
H92   H     H_    0.319042 0.632608 0.438978 0.127176
H93   H     H_    0.180958 0.132608 0.561022 0.127176
H94   H     H_    0.819042 0.867392 0.561022 0.127176
H95   H     H_    0.180958 0.867392 0.438978 0.127176
H96   H     H_    0.819042 0.132608 0.438978 0.127176
N1    N     N_2   0.434757 0.419745 0.999838 -0.416390
H97   H     H_    0.447467 0.398128 0.975773 0.255646
C225  C     C_3   0.423853 0.399399 0.041749 -0.632162
H98   H     H_    0.456342 0.371945 0.046878 0.191467
H99   H     H_    0.376488 0.386123 0.042417 0.237555
H100  H     H_    0.428773 0.423146 0.068958 0.227262
N2    N     N_2   0.565244 0.580254 0.999826 -0.416395
H101  H     H_    0.552538 0.601867 0.975756 0.255642
C226  C     C_3   0.576147 0.600609 0.041733 -0.632168
H102  H     H_    0.543673 0.628076 0.046848 0.191470
H103  H     H_    0.623520 0.613869 0.042406 0.237575
H104  H     H_    0.571201 0.576871 0.068948 0.227245
N3    N     N_2   0.434758 0.580255 0.000163 -0.416388
H105  H     H_    0.447468 0.601871 0.024228 0.255648
C227  C     C_3   0.423853 0.600602 0.958252 -0.632157
H106  H     H_    0.456339 0.628059 0.953126 0.191467
H107  H     H_    0.376487 0.613875 0.957583 0.237559
H108  H     H_    0.428779 0.576856 0.931043 0.227257
N4    N     N_2   0.565244 0.419745 0.000171 -0.416395
H109  H     H_    0.552536 0.398131 0.024239 0.255642
C228  C     C_3   0.576148 0.399394 0.958262 -0.632164
H110  H     H_    0.543664 0.371935 0.953140 0.191468
H111  H     H_    0.623515 0.386123 0.957593 0.237563
H112  H     H_    0.571218 0.423136 0.931050 0.227258
N5    N     N_2   0.934757 0.919745 0.999836 -0.416390
H113  H     H_    0.947466 0.898129 0.975770 0.255644
C229  C     C_3   0.923853 0.899398 0.041747 -0.632162
H114  H     H_    0.956340 0.871942 0.046873 0.191467
H115  H     H_    0.876487 0.886124 0.042415 0.237558
H116  H     H_    0.928777 0.923144 0.068956 0.227260
N6    N     N_2   0.065244 0.080254 0.999829 -0.416393
H117  H     H_    0.052536 0.101868 0.975762 0.255644
C230  C     C_3   0.076147 0.100606 0.041738 -0.632167
H118  H     H_    0.043666 0.128067 0.046859 0.191469
H119  H     H_    0.123516 0.113874 0.042409 0.237566
H120  H     H_    0.071214 0.076865 0.068951 0.227254
N7    N     N_2   0.934757 0.080254 0.000165 -0.416390
H121  H     H_    0.947466 0.101870 0.024231 0.255645
C231  C     C_3   0.923853 0.100603 0.958255 -0.632161
H122  H     H_    0.956337 0.128061 0.953130 0.191468
H123  H     H_    0.876486 0.113874 0.957585 0.237561
H124  H     H_    0.928781 0.076858 0.931044 0.227256
N8    N     N_2   0.065243 0.919745 0.000169 -0.416395
H125  H     H_    0.052535 0.898130 0.024235 0.255644
C232  C     C_3   0.076147 0.899396 0.958259 -0.632162
H126  H     H_    0.043663 0.871937 0.953135 0.191467
H127  H     H_    0.123515 0.886124 0.957590 0.237561
H128  H     H_    0.071219 0.923139 0.931048 0.227258
N9    N     N_2   0.934757 0.419745 0.499836 -0.416391
H129  H     H_    0.947466 0.398129 0.475770 0.255644
C233  C     C_3   0.923853 0.399398 0.541747 -0.632162
H130  H     H_    0.956340 0.371942 0.546873 0.191467
H131  H     H_    0.876487 0.386124 0.542416 0.237558
H132  H     H_    0.928777 0.423144 0.568956 0.227260
N10   N     N_2   0.065243 0.580254 0.499829 -0.416394
H133  H     H_    0.052536 0.601868 0.475761 0.255644
C234  C     C_3   0.076147 0.600606 0.541738 -0.632165
H134  H     H_    0.043667 0.628067 0.546859 0.191469
H135  H     H_    0.123517 0.613874 0.542409 0.237566
H136  H     H_    0.071213 0.576865 0.568951 0.227253
N11   N     N_2   0.934757 0.580255 0.500165 -0.416391
H137  H     H_    0.947466 0.601870 0.524231 0.255646
C235  C     C_3   0.923853 0.600603 0.458255 -0.632162
H138  H     H_    0.956337 0.628061 0.453130 0.191468
H139  H     H_    0.876486 0.613874 0.457585 0.237561
H140  H     H_    0.928781 0.576858 0.431044 0.227257
N12   N     N_2   0.065243 0.419746 0.500169 -0.416395
H141  H     H_    0.052535 0.398130 0.524235 0.255644
C236  C     C_3   0.076147 0.399396 0.458259 -0.632163
H142  H     H_    0.043662 0.371938 0.453135 0.191468
H143  H     H_    0.123514 0.386124 0.457590 0.237561
H144  H     H_    0.071220 0.423140 0.431048 0.227259
N13   N     N_2   0.434757 0.919745 0.499837 -0.416389
H145  H     H_    0.447466 0.898128 0.475772 0.255645
C237  C     C_3   0.423853 0.899399 0.541749 -0.632161
H146  H     H_    0.456340 0.871942 0.546876 0.191467
H147  H     H_    0.376487 0.886125 0.542418 0.237558
H148  H     H_    0.428777 0.923145 0.568958 0.227259
N14   N     N_2   0.565244 0.080254 0.499826 -0.416395
H149  H     H_    0.552537 0.101867 0.475757 0.255642
C238  C     C_3   0.576147 0.100608 0.541734 -0.632160
H150  H     H_    0.543670 0.128073 0.546851 0.191468
H151  H     H_    0.623519 0.113872 0.542405 0.237570
H152  H     H_    0.571207 0.076869 0.568948 0.227249
N15   N     N_2   0.434758 0.080255 0.500163 -0.416389
H153  H     H_    0.447467 0.101871 0.524229 0.255647
C239  C     C_3   0.423854 0.100602 0.458253 -0.632162
H154  H     H_    0.456337 0.128061 0.453128 0.191468
H155  H     H_    0.376486 0.113873 0.457583 0.237562
H156  H     H_    0.428782 0.076858 0.431043 0.227255
N16   N     N_2   0.565244 0.919746 0.500172 -0.416395
H157  H     H_    0.552536 0.898132 0.524240 0.255643
C240  C     C_3   0.576147 0.899394 0.458263 -0.632165
H158  H     H_    0.543665 0.871934 0.453141 0.191469
H159  H     H_    0.623516 0.886124 0.457593 0.237564
H160  H     H_    0.571216 0.923135 0.431050 0.227256

loop_
_geom_bond_atom_site_label_1
_geom_bond_atom_site_label_2
_ccdc_geom_bond_type
N4    H109  S    
Cu20  O89   S    
C104  C135  S    
C26   C218  A    
N16   H157  S    
C53   C69   A    
C42   C58   A    
Cu15  O63   S    
Cu16  O64   S    
C23   C215  A    
C123  O39   A    
C230  H120  S    
C128  O46   A    
Cu12  O60   S    
C148  C177  A    
C46   C62   A    
C84   N4    S    
C127  O47   A    
C18   C210  A    
C133  O57   A    
C239  H155  S    
N12   C236  S    
C6    O22   A    
Cu13  O61   S    
C22   C38   A    
Cu20  O78   S    
C36   H68   S    
C157  H7    S    
C182  C183  A    
C133  O59   A    
Cu19  O90   S    
Cu11  O59   S    
C25   C217  A    
N10   H133  S    
C226  H103  S    
C8    O8    A    
C31   C112  S    
C200  C216  A    
C198  H38   S    
C144  C160  A    
C61   H93   S    
C135  O63   A    
C7    O7    A    
C14   O30   A    
C59   H91   S    
C54   H86   S    
C28   C220  A    
C57   H89   S    
C233  H131  S    
Cu10  Cu12  S    
C142  C158  A    
C26   C105  S    
C32   C224  A    
C176  C188  A    
C235  H139  S    
Cu14  Cu16  S    
Cu18  Cu21  S    
C223  H63   S    
C171  C185  A    
C30   C109  S    
C154  H4    S    
C64   H96   S    
C214  H54   S    
Cu23  O94   S    
C30   C222  A    
C25   C41   A    
C236  H143  S    
C96   N16   S    
C115  O75   A    
C141  H21   S    
C44   H76   S    
C237  H147  S    
C73   C201  A    
C28   C44   A    
C130  O52   A    
C16   C80   S    
C148  C164  A    
Cu21  O96   S    
C194  H34   S    
C77   C205  A    
C120  O96   A    
C54   C70   A    
C137  H17   S    
C232  H127  S    
C55   H87   S    
C12   O28   A    
Cu17  O79   S    
C137  C153  A    
C116  O92   A    
C153  C156  A    
C143  C159  A    
C86   C99   A    
C154  C155  A    
C90   N10   S    
C140  C156  A    
C141  C157  A    
C229  H115  S    
C157  C160  A    
C240  H159  S    
C35   C51   A    
C158  C159  A    
C19   C211  A    
C152  H32   S    
Cu22  O81   S    
C83   N3    S    
C122  O36   A    
C198  C214  A    
Cu12  O44   S    
C151  C182  A    
Cu3   O3    S    
C128  O48   A    
C86   N6    S    
N11   C235  S    
C215  H55   S    
C138  C171  A    
C216  H56   S    
Cu17  O92   S    
Cu9   O57   S    
C158  H8    S    
C50   C66   A    
C111  O71   A    
C142  C175  A    
C105  O81   A    
Cu20  Cu23  S    
C211  H51   S    
C16   O32   A    
C19   C35   A    
Cu19  O88   S    
Cu14  O46   S    
C145  C161  A    
C27   C108  S    
C151  C167  A    
C98   C129  S    
C129  O49   A    
C95   N15   S    
C20   C212  A    
C138  H18   S    
C88   C99   A    
C15   O15   A    
C135  O61   A    
C196  C212  A    
N15   C239  S    
C107  O67   A    
C38   H70   S    
N7    C231  S    
Cu19  Cu24  S    
C227  H107  S    
N13   C237  S    
C152  C181  A    
C55   C71   A    
C110  O86   A    
C195  H35   S    
C239  H156  S    
C117  O93   A    
C207  C223  A    
C140  C169  A    
C32   C111  S    
C62   H94   S    
Cu19  O67   S    
C237  H148  S    
Cu7   O55   S    
C178  C179  A    
C113  O89   A    
Cu8   O56   S    
C228  H110  S    
N4    C228  S    
C11   O11   A    
C205  H45   S    
C130  O50   A    
C199  C215  A    
C131  O55   A    
N16   C240  S    
C3    O3    A    
C155  H1    S    
Cu14  O32   S    
N6    C230  S    
C201  H41   S    
C170  C171  A    
C150  C166  A    
C207  H47   S    
C92   N12   S    
C5    O5    A    
C174  C175  A    
C164  H10   S    
C46   H78   S    
C134  O60   A    
C40   H72   S    
C15   C79   S    
C61   C77   A    
C83   C98   A    
C149  C184  A    
C1    C65   S    
Cu22  O95   S    
C36   C52   A    
C43   C59   A    
C127  O45   A    
C37   C53   A    
C51   H83   S    
C145  H25   S    
C70   C198  A    
C106  O66   A    
Cu18  O80   S    
N11   H137  S    
C49   H81   S    
Cu15  O15   S    
C121  O33   A    
Cu16  O16   S    
C18   C113  S    
C18   C34   A    
C151  H31   S    
Cu12  O12   S    
C225  H99   S    
Cu13  O13   S    
Cu2   O50   S    
C149  C165  A    
C210  H50   S    
C4    C68   S    
C75   C203  A    
Cu3   O17   S    
C56   C72   A    
C129  O51   A    
C109  O69   A    
C234  H135  S    
Cu18  O91   S    
C103  C136  S    
C91   N11   S    
C232  H126  S    
C194  C210  A    
N9    C233  S    
N8    H125  S    
C179  C189  A    
C139  C155  A    
Cu17  O65   S    
C197  H37   S    
C108  O84   A    
C51   C67   A    
Cu19  O77   S    
C199  H39   S    
C125  O43   A    
Cu13  O45   S    
C126  O44   A    
C80   C208  A    
Cu23  O71   S    
Cu24  O72   S    
Cu9   O41   S    
C240  H160  S    
C60   H92   S    
C237  H146  S    
C212  H52   S    
C150  H30   S    
C87   C100  A    
C228  H112  S    
Cu2   O34   S    
C165  H15   S    
C173  C187  A    
C30   C46   A    
C2    C66   S    
Cu3   O35   S    
C20   C115  S    
C235  H138  S    
C112  O72   A    
Cu18  O85   S    
C136  O62   A    
C202  C218  A    
C15   O31   A    
C94   N14   S    
C102  C133  S    
C8    O24   A    
C11   C75   S    
C134  O58   A    
C217  H57   S    
C24   C216  A    
C138  C154  A    
Cu3   O51   S    
C19   C116  S    
C206  C222  A    
C81   N1    S    
Cu1   Cu3   S    
Cu16  O30   S    
C125  O41   A    
C175  C187  A    
C224  H64   S    
C117  O77   A    
C226  H102  S    
Cu2   O20   S    
C142  H22   S    
C132  O54   A    
C121  O35   A    
N1    C225  S    
C113  O73   A    
Cu10  O58   S    
Cu24  O74   S    
C124  O38   A    
C27   C219  A    
C9    O9    A    
Cu4   O52   S    
C47   H79   S    
Cu5   O53   S    
C231  H122  S    
C48   H80   S    
C231  H124  S    
C29   C221  A    
C146  C162  A    
C26   C42   A    
C182  C192  A    
C99   C132  S    
C204  C220  A    
C93   N13   S    
C84   C97   A    
C93   C96   A    
Cu8   O40   S    
C97   C130  S    
C232  H128  S    
C17   C209  A    
C47   C63   A    
C236  H142  S    
C178  C190  A    
C48   C64   A    
C81   C98   A    
C33   C49   A    
C37   H69   S    
N14   C238  S    
C123  C188  S    
N3    C227  S    
C137  C172  A    
C5    C69   S    
C66   C194  A    
C121  C186  S    
C126  O42   A    
C39   C55   A    
C40   C56   A    
C85   N5    S    
C141  C176  A    
C184  C192  A    
C58   C74   A    
C125  C190  S    
Cu1   O33   S    
Cu2   O2    S    
Cu6   O54   S    
Cu7   O7    S    
C39   H71   S    
C227  H106  S    
C31   C47   A    
C240  H158  S    
C206  H46   S    
Cu9   O27   S    
Cu7   O39   S    
C17   C33   A    
C10   O26   A    
C64   C80   A    
C152  C168  A    
C62   C78   A    
C25   C106  S    
C65   C193  A    
C202  H42   S    
C148  H28   S    
C8    C72   S    
C3    O19   A    
N2    H101  S    
C111  O87   A    
C29   C110  S    
N14   H149  S    
C105  O65   A    
Cu24  O83   S    
C86   C87   A    
C166  H16   S    
C74   C202  A    
C161  H11   S    
C136  O64   A    
C108  O68   A    
Cu17  Cu22  S    
C162  H12   S    
N6    H117  S    
C78   C206  A    
N7    H121  S    
Cu21  O75   S    
C193  H33   S    
C222  H62   S    
C38   C54   A    
C226  H104  S    
C170  C186  A    
C76   C204  A    
C53   H85   S    
C218  H58   S    
Cu20  O68   S    
C4    O4    A    
Cu21  O69   S    
C92   C101  A    
C124  O40   A    
N8    C232  S    
C35   H67   S    
C94   C103  A    
C12   C76   S    
Cu11  O25   S    
C82   C97   A    
C33   H65   S    
Cu14  O14   S    
C88   N8    S    
C208  C224  A    
Cu21  O82   S    
C161  C164  A    
C197  C213  A    
C112  O88   A    
C162  C163  A    
C200  H40   S    
C181  C184  A    
C9    O25   A    
C6    C70   S    
C230  H119  S    
C24   C40   A    
C24   C119  S    
C203  H43   S    
Cu13  O31   S    
C110  O70   A    
Cu11  O43   S    
Cu6   O6    S    
C236  H144  S    
C71   C199  A    
C106  O82   A    
C5    O21   A    
Cu18  O66   S    
C147  H27   S    
C234  H136  S    
C7    O23   A    
C41   C57   A    
Cu5   Cu7   S    
C180  C190  A    
C118  O94   A    
C209  H49   S    
C181  C191  A    
C90   C91   A    
C32   C48   A    
C45   H77   S    
C44   C60   A    
C119  O79   A    
Cu15  O29   S    
C145  C180  A    
C45   C61   A    
C60   C76   A    
C146  C179  A    
C1    O1    A    
Cu10  O42   S    
C139  H19   S    
C94   C95   A    
C63   H95   S    
C201  C217  A    
C20   C36   A    
C27   C43   A    
C229  H116  S    
C21   C37   A    
C144  H24   S    
Cu11  O11   S    
C82   C83   A    
C132  O56   A    
C96   C103  A    
C29   C45   A    
C147  C163  A    
C143  C174  A    
C43   H75   S    
Cu4   O4    S    
C2    O18   A    
C22   C117  S    
C89   C102  A    
Cu22  O70   S    
Cu8   O8    S    
C131  O53   A    
C114  O90   A    
N2    C226  S    
C100  C131  S    
C13   O29   A    
N12   H141  S    
C58   H90   S    
C63   C79   A    
C101  C134  S    
C235  H140  S    
C6    O6    A    
C21   C118  S    
C49   C65   A    
C156  H2    S    
C234  H134  S    
C41   H73   S    
C2    O2    A    
C7    C71   S    
C79   C207  A    
Cu15  O47   S    
C28   C107  S    
C168  H14   S    
C239  H154  S    
Cu16  O48   S    
Cu13  Cu15  S    
Cu10  O28   S    
C50   H82   S    
C139  C170  A    
N13   H145  S    
C213  H53   S    
C21   C213  A    
C123  O37   A    
N5    C229  S    
C163  H9    S    
Cu23  O84   S    
C172  C186  A    
C225  H100  S    
C144  C173  A    
C227  H108  S    
C160  H6    S    
C233  H130  S    
C42   H74   S    
C107  O83   A    
C14   O14   A    
C238  H150  S    
Cu12  O26   S    
C52   C68   A    
C174  C188  A    
Cu4   O36   S    
C14   C78   S    
Cu1   O49   S    
Cu5   O37   S    
Cu9   O9    S    
C69   C197  A    
C52   H84   S    
C59   C75   A    
C9    C73   S    
C67   C195  A    
C93   C104  A    
C17   C114  S    
C228  H111  S    
C13   C77   S    
C34   C50   A    
Cu20  O87   S    
C177  C189  A    
C68   C196  A    
C23   C120  S    
C122  C185  S    
C149  H29   S    
C230  H118  S    
C16   O16   A    
C126  C189  S    
Cu6   Cu8   S    
C204  H44   S    
C90   C101  A    
C195  C211  A    
C82   N2    S    
C72   C200  A    
C122  O34   A    
C193  C209  A    
C229  H114  S    
C208  H48   S    
C115  O91   A    
C177  C180  A    
Cu6   O38   S    
C10   O10   A    
N5    H113  S    
N10   C234  S    
C89   C92   A    
Cu9   Cu11  S    
C11   O27   A    
Cu4   O18   S    
C56   H88   S    
C31   C223  A    
C87   N7    S    
C120  O80   A    
C167  H13   S    
C165  C168  A    
Cu2   Cu4   S    
C22   C214  A    
C166  C167  A    
C169  C172  A    
C153  H3    S    
C91   C102  A    
C116  O76   A    
C143  H23   S    
Cu5   O23   S    
C81   C84   A    
Cu22  O76   S    
C95   C104  A    
C85   C88   A    
N9    H129  S    
C173  C176  A    
C89   N9    S    
C140  H20   S    
Cu1   O1    S    
C159  H5    S    
C57   C73   A    
C3    C67   S    
C4    O20   A    
C183  C191  A    
C124  C187  S    
Cu5   O5    S    
C231  H123  S    
C119  O95   A    
C150  C183  A    
C220  H60   S    
C12   O12   A    
C221  H61   S    
C127  C192  S    
C203  C219  A    
C128  C191  S    
Cu17  O86   S    
C219  H59   S    
C146  H26   S    
C169  C185  A    
C225  H98   S    
C238  H151  S    
C85   C100  A    
C109  O85   A    
C10   C74   S    
C147  C178  A    
C196  H36   S    
N1    H97   S    
Cu6   O24   S    
C23   C39   A    
Cu7   O21   S    
C205  C221  A    
C233  H132  S    
Cu1   O19   S    
Cu8   O22   S    
C34   H66   S    
N3    H105  S    
C238  H152  S    
C118  O78   A    
C1    O17   A    
Cu14  O62   S    
Cu10  O10   S    
C114  O74   A    
Cu24  O93   S    
N15   H153  S    
C13   O13   A    
Cu23  O73   S    
