data_mof_unit_22131.cif
_audit_creation_date              2012-10-26T20:21:16-0400
_audit_creation_method            fapswitch 2.2
_symmetry_space_group_name_H-M    P1
_symmetry_Int_Tables_number       1
_space_group_crystal_system       triclinic
_cell_length_a                    9.64261
_cell_length_b                    10.714496
_cell_length_c                    15.597576
_cell_angle_alpha                 88.926588
_cell_angle_beta                  73.358371
_cell_angle_gamma                 91.808472
_cell_volume                      1542.55946908

loop_
_atom_site_label
_atom_site_type_symbol
_atom_type_description
_atom_site_fract_x
_atom_site_fract_y
_atom_site_fract_z
_atom_type_partial_charge
Br1   Br    Br    0.570219 0.418868 0.208251 -0.611616
Br2   Br    Br    0.429779 0.581121 0.791749 -0.611616
C1    C     C_R   0.998288 0.262603 0.500373 0.546318
C2    C     C_R   0.039092 0.064195 0.567369 -0.140691
C3    C     C_R   0.003651 0.871365 0.499069 0.037320
C4    C     C_R   0.996348 0.128635 0.500931 0.037319
C5    C     C_R   0.553176 0.397119 0.530041 0.113403
C6    C     C_R   0.446823 0.602881 0.469959 0.113402
C7    C     C_R   0.406192 0.398660 0.530202 0.030738
C8    C     C_R   0.593808 0.601340 0.469798 0.030737
C9    C     C_R   0.917755 0.503549 0.671692 0.537531
C10   C     C_R   0.082245 0.496449 0.328307 0.537530
C11   C     C_R   0.871930 0.517950 0.769167 -0.007733
C12   C     C_R   0.001712 0.737397 0.499627 0.546319
C13   C     C_R   0.128070 0.482046 0.230833 -0.007734
C14   C     C_R   0.919543 0.571829 0.908260 -0.137453
C15   C     C_R   0.080455 0.428165 0.091741 -0.137453
C16   C     C_R   0.968736 0.558648 0.815712 -0.131001
C17   C     C_R   0.031262 0.441348 0.184289 -0.131001
C18   C     C_R   0.726241 0.496364 0.815559 -0.085945
C19   C     C_R   0.273759 0.503629 0.184440 -0.085945
C20   C     C_R   0.671620 0.520590 0.906468 0.043832
C21   C     C_R   0.328378 0.479401 0.093532 0.043832
C22   C     C_R   0.772661 0.548063 0.954247 0.014533
C23   C     C_R   0.588364 0.497667 0.092874 0.126726
C24   C     C_R   0.227337 0.451929 0.045754 0.014533
C25   C     C_R   0.521310 0.506060 0.952323 0.020137
C26   C     C_R   0.478689 0.493930 0.047677 0.020137
C27   C     C_R   0.594969 0.279798 0.564475 0.064055
C28   C     C_R   0.612815 0.173058 0.511943 -0.106104
C29   C     C_R   0.632031 0.057027 0.548728 -0.118145
C30   C     C_R   0.634372 0.046856 0.637715 -0.092212
C31   C     C_R   0.612706 0.152021 0.690902 -0.122668
C32   C     C_R   0.589760 0.267306 0.654790 -0.077886
C33   C     C_R   0.405032 0.720201 0.435524 0.064053
C34   C     C_R   0.411634 0.502322 0.907126 0.126726
C35   C     C_R   0.387188 0.826944 0.488054 -0.106107
C36   C     C_R   0.367969 0.942973 0.451268 -0.118143
C37   C     C_R   0.365622 0.953141 0.362282 -0.092211
C38   C     C_R   0.387285 0.847972 0.309097 -0.122667
C39   C     C_R   0.410234 0.732689 0.345211 -0.077880
C40   C     C_R   0.729054 0.538193 0.047172 -0.102525
C41   C     C_R   0.270944 0.461798 0.952828 -0.102525
C42   C     C_R   0.958319 0.065054 0.433163 -0.131580
C43   C     C_R   0.041682 0.934946 0.566837 -0.131580
C44   C     C_R   0.960909 0.935805 0.432631 -0.140691
Cu1   Cu    Cu3+1 0.140660 0.500020 0.500000 0.972721
Cu2   Cu    Cu3+1 0.859340 0.499980 0.500000 0.972721
H1    H     H_    0.808659 0.547970 0.083736 0.136765
H2    H     H_    0.073234 0.884649 0.618771 0.121559
H3    H     H_    0.930381 0.886072 0.380529 0.112928
H4    H     H_    0.069622 0.113928 0.619470 0.112929
H5    H     H_    0.335189 0.317746 0.555501 0.117092
H6    H     H_    0.664810 0.682254 0.444499 0.117092
H7    H     H_    0.609814 0.179527 0.443110 0.118930
H8    H     H_    0.645908 0.975073 0.508075 0.120780
H9    H     H_    0.650622 0.957205 0.665757 0.141360
H10   H     H_    0.609843 0.143595 0.760648 0.118767
H11   H     H_    0.561351 0.345568 0.697563 0.141120
H12   H     H_    0.191338 0.452022 0.916265 0.136766
H13   H     H_    0.390194 0.820480 0.556886 0.118928
H14   H     H_    0.354093 0.024930 0.491920 0.120780
H15   H     H_    0.349368 0.042791 0.334240 0.141361
H16   H     H_    0.390145 0.856395 0.239351 0.118765
H17   H     H_    0.438644 0.654425 0.302438 0.141117
H18   H     H_    0.342455 0.546852 0.218931 0.156972
H19   H     H_    0.657546 0.453140 0.781069 0.156972
H20   H     H_    0.917821 0.422351 0.218865 0.170833
H21   H     H_    0.082176 0.577647 0.781136 0.170833
H22   H     H_    0.996528 0.597553 0.944223 0.122117
H23   H     H_    0.003470 0.402441 0.055778 0.122117
H24   H     H_    0.926768 0.115351 0.381229 0.121558
N1    N     N_R   0.352080 0.500030 0.499980 -0.227596
N2    N     N_R   0.647920 0.499970 0.500020 -0.227596
O1    O     O_R   0.118740 0.319660 0.500000 -0.514517
O2    O     O_R   0.881260 0.680340 0.500000 -0.514517
O3    O     O_R   0.881170 0.319630 0.500010 -0.491657
O4    O     O_R   0.118830 0.680370 0.499990 -0.491657
O5    O     O_R   0.055570 0.500030 0.629830 -0.501238
O6    O     O_R   0.944430 0.499970 0.370170 -0.501238
O7    O     O_R   0.818000 0.500000 0.629840 -0.485967
O8    O     O_R   0.182000 0.500000 0.370160 -0.485969

loop_
_geom_bond_atom_site_label_1
_geom_bond_atom_site_label_2
_ccdc_geom_bond_type
C31   H10   S    
C5    C27   S    
C19   H18   S    
C22   C40   A    
Cu2   O2    S    
C18   H19   S    
Cu1   O5    S    
C1    C4    S    
C9    O7    A    
C23   C26   A    
C13   C17   A    
C35   C36   A    
C11   C16   A    
C2    H4    S    
C15   C24   A    
C33   C35   A    
C28   C29   A    
C21   C24   A    
C9    C11   S    
Cu2   O7    S    
Cu1   O8    S    
C29   C30   A    
C29   H8    S    
C1    O1    A    
C16   H21   S    
C14   C22   A    
C4    C42   A    
Br1   C23   S    
C7    N1    A    
C30   H9    S    
C8    H6    S    
C42   C44   A    
C24   C41   A    
C5    N2    A    
C2    C43   A    
Cu2   N2    S    
C14   H22   S    
Cu1   N1    S    
C2    C4    A    
C37   C38   A    
C39   H17   S    
C3    C43   A    
C27   C32   A    
C6    C33   S    
C12   O2    A    
Cu2   O3    S    
C27   C28   A    
Cu1   Cu2   S    
C10   C13   S    
C31   C32   A    
C10   O8    A    
C17   H20   S    
C21   C26   A    
C3    C12   S    
C9    O5    A    
C41   H12   S    
C14   C16   A    
C38   C39   A    
C18   C20   A    
C15   H23   S    
C20   C25   A    
C19   C21   A    
C32   H11   S    
C20   C22   A    
C7    H5    S    
C1    O3    A    
C3    C44   A    
Br2   C34   S    
C5    C7    A    
C11   C18   A    
C23   C40   A    
C35   H13   S    
C25   C34   A    
C37   H15   S    
C28   H7    S    
C38   H16   S    
C30   C31   A    
Cu2   O6    S    
Cu1   O1    S    
C8    N2    A    
C36   C37   A    
C43   H2    S    
C10   O6    A    
C6    N1    A    
C15   C17   A    
C42   H24   S    
C12   O4    A    
C44   H3    S    
C33   C39   A    
C40   H1    S    
C13   C19   A    
C6    C8    A    
C25   C26   A    
C34   C41   A    
Cu1   O4    S    
C36   H14   S    
