data_mof_unit_61378.cif
_audit_creation_date              2013-03-05T17:01:53-0500
_audit_creation_method            fapswitch 2.2
_symmetry_space_group_name_H-M    P1
_symmetry_Int_Tables_number       1
_space_group_crystal_system       triclinic
_cell_length_a                    16.10663
_cell_length_b                    15.75209
_cell_length_c                    16.857598
_cell_angle_alpha                 90.126797
_cell_angle_beta                  86.951337
_cell_angle_gamma                 92.098547
_cell_volume                      4268.07550137

loop_
_atom_site_label
_atom_site_type_symbol
_atom_site_description
_atom_site_fract_x
_atom_site_fract_y
_atom_site_fract_z
_atom_type_partial_charge
O1    O     O_R   0.577460 0.503670 0.387340 -0.628188
O2    O     O_R   0.438160 0.497080 0.381100 -0.590156
C1    C     C_R   0.511656 0.503644 0.347329 0.928858
O3    O     O_R   0.569680 0.380440 0.503120 -0.601397
O4    O     O_R   0.430380 0.373850 0.496890 -0.621355
C2    C     C_R   0.500381 0.338224 0.499997 0.911331
Zn1   Zn    Zn3+2 0.593020 0.504400 0.504170 0.981522
Zn2   Zn    Zn3+2 0.406980 0.495600 0.495830 1.014206
O5    O     O_R   0.561840 0.502920 0.618900 -0.624698
O6    O     O_R   0.422540 0.496330 0.612660 -0.605727
O7    O     O_R   0.569620 0.626150 0.503110 -0.624213
O8    O     O_R   0.430320 0.619560 0.496880 -0.590433
C3    C     C_R   0.488220 0.498227 0.652812 0.899760
C4    C     C_R   0.499616 0.661801 0.500200 0.938490
C5    C     C_3   0.590154 0.051162 0.465073 0.414026
C6    C     C_3   0.434674 0.047132 0.447985 -0.465265
C7    C     C_3   0.435209 0.949028 0.446771 -0.422211
H1    H     H_    0.603146 0.922434 0.410985 0.217841
H2    H     H_    0.372502 0.067583 0.471149 0.187737
H3    H     H_    0.442868 0.072201 0.386348 0.247683
H4    H     H_    0.448717 0.926725 0.384863 0.245410
H5    H     H_    0.372364 0.922609 0.466237 0.191851
C8    C     C_1   0.499051 0.750547 0.500708 -0.102364
C9    C     C_3   0.504116 0.083026 0.500965 0.060084
C10   C     C_3   0.588109 0.951966 0.469619 -0.425601
C11   C     C_3   0.501587 0.917274 0.502090 0.084254
C12   C     C_3   0.480852 0.950407 0.587920 0.131356
C13   C     C_3   0.480932 0.049108 0.587024 -0.049601
C14   C     C_1   0.499683 0.825790 0.501311 -0.004294
C15   C     C_1   0.502464 0.174382 0.500502 0.033466
C16   C     C_1   0.501261 0.249546 0.500214 -0.090855
H6    H     H_    0.415204 0.066228 0.601012 0.128091
H7    H     H_    0.637642 0.929444 0.506515 0.219823
H8    H     H_    0.415868 0.927521 0.604683 0.104246
C17   C     C_R   0.520656 0.514406 0.262022 -0.159730
C18   C     C_R   0.462613 0.560558 0.221303 0.277955
C19   C     C_R   0.469103 0.562128 0.138891 -0.210727
C20   C     C_R   0.533343 0.520110 0.097262 0.263884
C21   C     C_R   0.594115 0.480542 0.138063 -0.151115
C22   C     C_R   0.587518 0.476961 0.220332 -0.242231
C23   C     C_R   0.533104 0.557936 0.859268 -0.134022
C24   C     C_R   0.537509 0.553000 0.777471 -0.229327
C25   C     C_R   0.470861 0.510969 0.903188 0.282845
N1    N     N_2   0.537619 0.516835 0.013986 -0.175114
N2    N     N_2   0.467395 0.511048 0.986504 -0.172782
C26   C     C_R   0.479574 0.501917 0.738522 -0.087460
H9    H     H_    0.586222 0.589399 0.744503 0.175199
H10   H     H_    0.578462 0.597893 0.888351 0.170155
H11   H     H_    0.644575 0.449570 0.105917 0.166904
H12   H     H_    0.633137 0.442728 0.251312 0.182916
C27   C     C_R   0.415324 0.456557 0.782213 0.138252
C28   C     C_R   0.411091 0.462503 0.864634 -0.185874
H13   H     H_    0.424704 0.597020 0.106967 0.194650
H14   H     H_    0.363090 0.426791 0.899088 0.176031
N3    N     N_R   0.283090 0.489740 0.490280 -0.091094
C29   C     C_R   0.236041 0.537959 0.541180 0.031759
C30   C     C_R   0.148915 0.535754 0.538869 -0.247850
C31   C     C_R   0.109287 0.483052 0.483281 0.327795
C32   C     C_R   0.159616 0.434131 0.431909 -0.268093
C33   C     C_R   0.246457 0.438287 0.436250 0.050270
C34   C     C_R   0.850973 0.462543 0.462594 -0.244837
C35   C     C_R   0.763854 0.460425 0.460190 0.013603
C36   C     C_R   0.890725 0.516820 0.516849 0.324912
N4    N     N_2   0.020679 0.476900 0.476696 -0.170056
N5    N     N_2   0.979332 0.522964 0.523452 -0.171544
N6    N     N_R   0.716930 0.510260 0.509710 -0.097542
H15   H     H_    0.733566 0.418738 0.418641 0.148717
H16   H     H_    0.886358 0.422101 0.422491 0.168612
H17   H     H_    0.131608 0.392877 0.388508 0.160146
H18   H     H_    0.284682 0.400340 0.396335 0.138116
C37   C     C_R   0.753674 0.563163 0.562514 0.022109
C38   C     C_R   0.840513 0.567252 0.566925 -0.274703
H19   H     H_    0.715534 0.602289 0.601419 0.141665
H20   H     H_    0.113423 0.574856 0.580120 0.164681
H21   H     H_    0.868612 0.609670 0.609338 0.161656
H22   H     H_    0.266235 0.578399 0.583779 0.141364
I1    I     I_    0.696949 0.099036 0.527436 -0.170480
I2    I     I_    0.327472 0.372073 0.730360 -0.304113
N7    N     N_R   0.604331 0.081110 0.382009 0.210863
O9    O     O_R   0.626079 0.160285 0.367943 -0.373450
O10   O     O_R   0.588423 0.032375 0.321746 -0.386458
N8    N     N_R   0.399143 0.608282 0.262316 0.218329
O11   O     O_R   0.417991 0.657967 0.320956 -0.390151
O12   O     O_R   0.326253 0.613113 0.233169 -0.370728
I3    I     I_    0.535395 0.114793 0.686292 -0.165907
N9    N     N_R   0.534541 0.916079 0.647159 0.240107
O13   O     O_R   0.613883 0.934966 0.646113 -0.344803
O14   O     O_R   0.501923 0.866429 0.702967 -0.366982

loop_
_geom_bond_atom_site_label_1
_geom_bond_atom_site_label_2
_geom_bond_distance
_ccdc_geom_bond_type
C30   H20   1.082298 S    
N3    C29   1.362913 A    
C36   N5    1.437110 S    
C29   H22   1.081864 S    
C23   C24   1.379121 A    
C17   C18   1.412071 A    
Zn1   O7    1.968300 S    
C11   C12   1.560588 S    
C35   H15   1.081948 S    
O4    C2    1.281269 A    
C7    C11   1.552457 S    
C8    C14   1.184930 T    
C18   C19   1.387859 A    
C38   H21   1.082884 S    
C15   C16   1.184872 T    
O7    C4    1.281193 A    
N9    O14   1.301295 A    
C25   C28   1.393750 A    
C5    C10   1.563652 S    
C29   C30   1.405074 A    
C24   C26   1.398984 A    
C34   C36   1.412864 A    
O5    C3    1.288401 A    
C5    N7    1.482047 S    
C18   N8    1.437707 S    
C6    C7    1.545776 S    
C1    C17   1.447387 S    
C6    H3    1.111942 S    
C19   H13   1.083571 S    
C2    C16   1.397468 S    
C32   C33   1.403646 A    
C6    C9    1.557576 S    
N3    C33   1.361426 A    
C23   C25   1.403472 A    
H1    C10   1.110317 S    
O3    Zn1   1.975143 S    
Zn2   N3    2.001356 S    
C28   H14   1.083218 S    
C12   H8    1.116566 S    
C31   N4    1.437086 S    
C20   C21   1.392074 A    
C35   N6    1.363001 A    
C27   C28   1.390584 A    
C13   H6    1.114963 S    
O3    C2    1.281623 A    
C21   C22   1.386391 A    
N7    O10   1.302623 A    
N9    O13   1.300669 A    
C10   C11   1.550706 S    
C26   C27   1.411048 A    
C7    H4    1.113434 S    
O1    C1    1.286184 A    
C4    C8    1.398299 S    
C12   N9    1.471709 S    
C20   N1    1.402788 S    
C19   C20   1.404277 A    
N6    C37   1.361504 A    
C33   H18   1.081756 S    
Zn2   O8    1.975145 S    
C25   N2    1.402641 S    
C32   H17   1.082877 S    
C5    C9    1.580761 S    
C21   H11   1.083167 S    
O8    C4    1.282072 A    
N8    O12   1.301373 A    
C13   I3    2.173107 S    
N1    N2    1.245098 D    
C37   H19   1.081869 S    
Zn1   O5    1.972158 S    
O1    Zn1   1.998489 S    
O2    Zn2   1.972158 S    
C9    C13   1.568686 S    
O6    C3    1.285276 A    
O4    Zn2   1.968296 S    
C7    H5    1.113494 S    
N4    N5    1.252306 D    
O2    C1    1.286752 A    
C31   C32   1.403224 A    
C27   I2    2.127399 S    
C37   C38   1.403720 A    
Zn1   N6    2.001661 S    
C34   H16   1.082312 S    
C30   C31   1.412821 A    
C5    I1    2.174053 S    
C6    H2    1.113771 S    
C22   H12   1.083722 S    
C23   H10   1.083192 S    
C17   C22   1.402057 A    
C24   H9    1.084114 S    
C34   C35   1.405103 A    
C9    C15   1.440319 S    
N7    O9    1.301864 A    
C36   C38   1.403292 A    
C11   C14   1.440324 S    
Zn2   O6    1.998489 S    
N8    O11   1.301144 A    
C12   C13   1.554803 S    
C3    C26   1.445411 S    
C10   H7    1.106213 S    
