data_mof_unit_51604.cif
_audit_creation_date              2012-12-11T14:17:43-0500
_audit_creation_method            fapswitch 2.2
_symmetry_space_group_name_H-M    P1
_symmetry_Int_Tables_number       1
_space_group_crystal_system       triclinic
_cell_length_a                    6.945414
_cell_length_b                    13.65658
_cell_length_c                    20.423154
_cell_angle_alpha                 102.266738
_cell_angle_beta                  89.721134
_cell_angle_gamma                 90.923505
_cell_volume                      1892.67362471

loop_
_atom_site_label
_atom_site_type_symbol
_atom_type_description
_atom_site_fract_x
_atom_site_fract_y
_atom_site_fract_z
_atom_type_partial_charge
O1    O     O_R   0.506860 0.599390 0.449240 -0.532842
O2    O     O_R   0.180220 0.594600 0.586780 -0.542607
O3    O     O_R   0.004500 0.400610 0.550760 -0.541840
C1    C     C_R   0.349010 0.616113 0.613437 0.768190
O4    O     O_R   0.177490 0.611290 0.451970 -0.539378
O5    O     O_R   0.001750 0.417420 0.414990 -0.543338
C2    C     C_R   0.348078 0.638716 0.436118 0.741497
O6    O     O_R   0.509610 0.582580 0.585010 -0.537937
O7    O     O_3   0.337420 0.436370 0.488020 -0.377424
V1    V     V_3+5 0.064680 0.511800 0.502220 1.452860
O8    O     O_R   0.671710 0.405400 0.413220 -0.546687
C3    C     C_R   0.839653 0.384700 0.386335 0.735263
O9    O     O_R   0.674440 0.388710 0.548030 -0.542882
C4    C     C_R   0.842105 0.362238 0.564902 0.692126
V2    V     V_3+5 0.564010 0.488200 0.497780 1.451980
O10   O     O_3   0.841140 0.563630 0.511980 -0.362569
C5    C     C_R   0.844487 0.111179 0.612054 -0.122613
H1    H     H_    0.836534 0.161438 0.519474 0.116768
H2    H     H_    0.847759 0.985677 0.694737 0.143940
H3    H     H_    0.841351 0.032906 0.586806 0.152355
C6    C     C_R   0.847407 0.285313 0.604871 -0.035542
C7    C     C_R   0.870521 0.314875 0.928591 -0.168317
C8    C     C_R   0.869170 0.391022 0.893088 -0.119727
C9    C     C_R   0.863631 0.368416 0.823297 -0.156720
C10   C     C_R   0.859246 0.267744 0.786841 0.079256
C11   C     C_R   0.859788 0.189901 0.823697 0.066438
C12   C     C_R   0.854646 0.241744 0.715207 0.070870
C13   C     C_R   0.850146 0.138860 0.682304 0.131923
C14   C     C_R   0.850994 0.064192 0.719564 -0.176770
C15   C     C_R   0.855860 0.089091 0.789063 -0.196583
C16   C     C_R   0.854070 0.314116 0.674801 -0.214261
C17   C     C_R   0.842190 0.184015 0.573608 -0.162520
C18   C     C_R   0.865431 0.214631 0.894714 -0.070683
H4    H     H_    0.857377 0.393466 0.695803 0.092243
H5    H     H_    0.875723 0.334163 0.982849 0.100017
H6    H     H_    0.863187 0.431687 0.799607 0.105470
H7    H     H_    0.872913 0.468477 0.919899 0.116797
H8    H     H_    0.856506 0.028237 0.815477 0.117150
C19   C     C_2   0.001795 0.299215 0.281346 -0.137229
C20   C     C_2   0.841294 0.317998 0.318998 -0.299501
H9    H     H_    0.137293 0.333734 0.301146 0.134404
H10   H     H_    0.703340 0.286705 0.299924 0.137222
C21   C     C_2   0.008206 0.235294 0.212357 -0.176590
C22   C     C_2   0.858194 0.181558 0.180990 -0.300859
H11   H     H_    0.145219 0.233199 0.186508 0.124103
H12   H     H_    0.718564 0.184129 0.204941 0.156789
C23   C     C_2   0.204869 0.791438 0.782164 -0.131233
C24   C     C_2   0.363682 0.815791 0.819882 -0.300638
H13   H     H_    0.067475 0.822079 0.801450 0.131445
H14   H     H_    0.501890 0.785506 0.801908 0.127261
C25   C     C_2   0.203003 0.722888 0.714664 -0.121872
C26   C     C_2   0.361028 0.684627 0.680094 -0.280810
H15   H     H_    0.061788 0.704026 0.692522 0.137032
H16   H     H_    0.504137 0.703242 0.700132 0.127638
C27   C     C_R   0.497804 0.879043 0.388732 -0.118330
H17   H     H_    0.562454 0.950176 0.412877 0.177084
C28   C     C_R   0.366981 0.718166 0.398575 -0.069451
C29   C     C_R   0.281200 0.695129 0.077979 -0.183274
C30   C     C_R   0.250693 0.621953 0.114675 -0.117186
C31   C     C_R   0.284150 0.642912 0.183267 -0.106970
C32   C     C_R   0.350527 0.738829 0.217493 0.026331
C33   C     C_R   0.390206 0.813350 0.179287 -0.094399
C34   C     C_R   0.378737 0.762387 0.288408 0.007448
C35   C     C_R   0.463949 0.855959 0.319224 -0.061863
C36   C     C_R   0.516006 0.925598 0.280623 0.357429
C37   C     C_R   0.465454 0.908292 0.212668 0.308191
C38   C     C_R   0.327183 0.695323 0.329976 -0.206325
C39   C     C_R   0.452042 0.810504 0.428131 0.117076
C40   C     C_R   0.351015 0.790128 0.108926 -0.051598
H18   H     H_    0.260194 0.623370 0.310661 0.098731
H19   H     H_    0.250075 0.677525 0.024761 0.098429
H20   H     H_    0.258946 0.581385 0.207681 0.098645
H21   H     H_    0.199012 0.548260 0.089790 0.113482
O11   O     O_R   0.203230 0.917310 0.915020 -0.540698
O12   O     O_R   0.535500 0.888690 0.048040 -0.522693
O13   O     O_R   0.711080 0.082610 0.085000 -0.520775
C41   C     C_R   0.365771 0.864300 0.066594 0.778018
O14   O     O_R   0.532630 0.905370 0.913230 -0.551094
O15   O     O_R   0.708190 0.099410 0.949230 -0.540349
C42   C     C_R   0.364434 0.884267 0.886503 0.736328
O16   O     O_R   0.206120 0.900510 0.050790 -0.550276
O17   O     O_3   0.375360 0.063570 0.011990 -0.375296
V3    V     V_3+5 0.648170 0.988200 0.997780 1.448327
O18   O     O_R   0.038240 0.111390 0.951940 -0.541876
C43   C     C_R   0.870634 0.137280 0.934670 0.681892
O19   O     O_R   0.041120 0.094710 0.086750 -0.555443
C44   C     C_R   0.872320 0.116143 0.113386 0.759331
V4    V     V_3+5 0.148810 0.011930 0.002180 1.410553
O20   O     O_3   0.871750 0.936430 0.988010 -0.375516
I1    I     I_    0.515574 0.850336 0.532119 -0.465089
O21   O     O_3   0.605718 0.015237 0.310375 -0.554666
C45   C     C_3   0.805655 0.005885 0.298736 -0.227953
H22   H     H_    0.840139 0.992359 0.244311 0.157549
H23   H     H_    0.865856 0.945290 0.321030 0.132171
H24   H     H_    0.877838 0.077271 0.323164 0.166222
O22   O     O_3   0.503970 0.983331 0.178423 -0.548955
C46   C     C_3   0.358899 0.055742 0.193513 -0.187595
H25   H     H_    0.373384 0.100680 0.245443 0.155632
H26   H     H_    0.211905 0.021400 0.185848 0.110874
H27   H     H_    0.376098 0.107913 0.159066 0.156863

loop_
_geom_bond_atom_site_label_1
_geom_bond_atom_site_label_2
_ccdc_geom_bond_type
C27   H17   S    
C40   C41   S    
C1    O6    A    
C27   C39   A    
C19   H9    S    
C7    H5    S    
C6    C16   A    
C9    H6    S    
C1    C26   S    
C4    C6    S    
C13   C14   A    
O5    C3    A    
O14   C42   A    
C29   H19   S    
C31   H20   S    
V2    O10   S    
C5    H3    S    
C15   H8    S    
C32   C34   A    
C18   C43   S    
O8    V2    S    
O14   V3    S    
C26   H16   S    
C39   I1    S    
C8    C9    A    
O1    V2    S    
C22   C44   S    
O7    V1    S    
C30   H21   S    
O21   C45   S    
C20   H10   S    
C30   C31   A    
O11   C42   A    
O9    C4    A    
O22   C46   S    
C28   C38   A    
O13   V3    S    
C46   H26   S    
C22   H12   S    
C46   H25   S    
V3    O20   S    
C6    C17   A    
C34   C38   A    
C33   C37   A    
C12   C16   A    
C25   C26   D    
C9    C10   A    
C23   H13   S    
C19   C20   D    
O4    C2    A    
O19   C44   A    
C23   C25   S    
C29   C30   A    
C8    H7    S    
C45   H24   S    
C33   C40   A    
C31   C32   A    
C25   H15   S    
C3    C20   S    
O2    C1    A    
C21   C22   D    
C14   C15   A    
C21   H11   S    
C11   C18   A    
C23   C24   D    
C41   O16   A    
C27   C35   A    
C45   H23   S    
C16   H4    S    
O18   C43   A    
O12   C41   A    
O13   C44   A    
O3    C4    A    
C11   C15   A    
O6    V2    S    
O9    V2    S    
H1    C17   S    
C28   C39   A    
O2    V1    S    
O15   C43   A    
C46   H27   S    
C37   O22   S    
C36   O21   S    
C7    C18   A    
O1    C2    A    
C5    C13   A    
O18   V4    S    
O5    V1    S    
C19   C21   S    
O8    C3    A    
C29   C40   A    
C10   C12   A    
C38   H18   S    
C35   C36   A    
C24   C42   S    
C10   C11   A    
O4    V1    S    
O3    V1    S    
V1    O10   S    
O15   V3    S    
O12   V3    S    
O17   V4    S    
C24   H14   S    
C45   H22   S    
O19   V4    S    
C36   C37   A    
O7    V2    S    
C32   C33   A    
O16   V4    S    
C34   C35   A    
V4    O20   S    
O17   V3    S    
C12   C13   A    
C5    C17   A    
C7    C8    A    
O11   V4    S    
C2    C28   S    
H2    C14   S    
