data_mof_unit_26636.cif
_audit_creation_date              2013-03-05T16:23:15-0500
_audit_creation_method            fapswitch 2.2
_symmetry_space_group_name_H-M    P1
_symmetry_Int_Tables_number       1
_space_group_crystal_system       triclinic
_cell_length_a                    27.706504
_cell_length_b                    10.481704
_cell_length_c                    9.810193
_cell_angle_alpha                 90.38326
_cell_angle_beta                  88.910794
_cell_angle_gamma                 90.109774
_cell_volume                      2848.40855921

loop_
_atom_site_label
_atom_site_type_symbol
_atom_site_description
_atom_site_fract_x
_atom_site_fract_y
_atom_site_fract_z
_atom_type_partial_charge
O1    O     O_R   0.500000 0.313960 0.616610 -0.631981
O2    O     O_R   0.500000 0.686040 0.383390 -0.626214
O3    O     O_R   0.500020 0.313950 0.383350 -0.577409
O4    O     O_R   0.499980 0.686050 0.616650 -0.583142
C1    C     C_R   0.500080 0.257688 0.499440 0.885979
C2    C     C_R   0.500092 0.742322 0.500538 0.866274
O5    O     O_R   0.428750 0.500030 0.616610 -0.593504
O6    O     O_R   0.571250 0.499970 0.383390 -0.550541
O7    O     O_R   0.428770 0.500020 0.383360 -0.533711
O8    O     O_R   0.571230 0.499980 0.616640 -0.580157
C3    C     C_R   0.406057 0.500354 0.501092 0.915970
C4    C     C_R   0.593550 0.499047 0.499242 0.928560
Zn1   Zn    Zn3+2 0.499990 0.500010 0.655740 1.044529
Zn2   Zn    Zn3+2 0.500010 0.499990 0.344260 1.082112
C5    C     C_R   0.175691 0.385318 0.546782 0.497598
C6    C     C_R   0.823264 0.613517 0.468143 0.516685
O9    O     O_2   0.200294 0.274633 0.538074 -0.577152
O10   O     O_2   0.800027 0.702461 0.395432 -0.515023
N1    N     N_R   0.200724 0.497150 0.540076 -0.337894
N2    N     N_R   0.797485 0.515935 0.525321 -0.360131
C7    C     C_R   0.178417 0.612886 0.539230 0.510143
C8    C     C_R   0.819296 0.417239 0.589945 0.529630
C9    C     C_R   0.274646 0.527615 0.405880 -0.154818
C10   C     C_R   0.724044 0.418613 0.438472 -0.136232
C11   C     C_R   0.324724 0.532321 0.393717 0.395039
C12   C     C_R   0.674004 0.410191 0.434013 0.397659
C13   C     C_R   0.330027 0.461239 0.628767 -0.175646
C14   C     C_R   0.667708 0.600075 0.577026 -0.190908
C15   C     C_R   0.280051 0.461543 0.642149 0.153564
C16   C     C_R   0.717614 0.604938 0.587569 0.164678
C17   C     C_R   0.252207 0.493349 0.529130 0.206801
C18   C     C_R   0.746077 0.515213 0.514848 0.180920
C19   C     C_R   0.100890 0.505300 0.553225 -0.093483
C20   C     C_R   0.897122 0.515725 0.544305 -0.135696
C21   C     C_R   0.125024 0.386253 0.560858 -0.054806
C22   C     C_R   0.873528 0.620093 0.483584 -0.020612
C23   C     C_R   0.097454 0.273322 0.580175 0.118537
C24   C     C_R   0.900876 0.726250 0.439048 0.143016
C25   C     C_R   0.127683 0.620376 0.540497 -0.057635
C26   C     C_R   0.869893 0.411649 0.596011 -0.021979
C27   C     C_R   0.353039 0.497696 0.506027 -0.201517
C28   C     C_R   0.645823 0.504085 0.499770 -0.174799
H1    H     H_    0.350836 0.433163 0.715858 0.235548
H2    H     H_    0.645818 0.669942 0.631605 0.215108
C29   C     C_R   0.972001 0.403810 0.595807 0.045193
C30   C     C_R   0.025561 0.624932 0.531115 0.013526
C31   C     C_R   0.974970 0.623995 0.513736 0.044578
C32   C     C_R   0.022911 0.396925 0.583366 0.014177
C33   C     C_R   0.948084 0.514711 0.551767 0.082445
C34   C     C_R   0.049741 0.509120 0.556464 0.070995
C35   C     C_R   0.944298 0.303067 0.650469 -0.284625
C36   C     C_R   0.052620 0.738221 0.523944 -0.193327
C37   C     C_R   0.894037 0.306377 0.652384 0.145074
C38   C     C_R   0.102606 0.737776 0.529790 0.120995
O11   O     O_2   0.791718 0.325186 0.647465 -0.501788
O12   O     O_2   0.205852 0.719240 0.536412 -0.564012
C39   C     C_R   0.047571 0.280384 0.592808 -0.193656
C40   C     C_R   0.950680 0.727735 0.455919 -0.282626
H3    H     H_    0.746037 0.346765 0.387506 0.188455
H4    H     H_    0.252765 0.554194 0.320244 0.182839
H5    H     H_    0.960866 0.221440 0.696947 0.140738
H6    H     H_    0.035491 0.830434 0.518110 0.154831
H7    H     H_    0.028598 0.190818 0.603240 0.153579
H8    H     H_    0.969846 0.809777 0.416620 0.141080
C41   C     C_3   0.540010 0.043205 0.561675 -0.141429
C42   C     C_3   0.460396 0.956859 0.438210 -0.160135
C43   C     C_3   0.539872 0.957260 0.433237 -0.147402
C44   C     C_3   0.460533 0.042751 0.566663 -0.173866
H9    H     H_    0.572129 0.917556 0.379241 0.178730
H10   H     H_    0.428289 0.082496 0.620692 0.170310
H11   H     H_    0.572375 0.083344 0.611558 0.183412
H12   H     H_    0.428048 0.916761 0.388201 0.181652
C45   C     C_3   0.500206 0.877564 0.501594 -0.017408
C46   C     C_3   0.500183 0.122465 0.498316 -0.006395
C47   C     C_3   0.500354 0.960786 0.630210 -0.112163
C48   C     C_3   0.500054 0.039257 0.369691 -0.088325
H13   H     H_    0.500500 0.924744 0.736395 0.192736
H14   H     H_    0.499927 0.075320 0.263514 0.191785
C49   C     C_3   0.466987 0.425987 0.049334 0.401596
C50   C     C_3   0.532845 0.574257 0.950551 0.380580
C51   C     C_3   0.507730 0.386274 0.949509 -0.337864
C52   C     C_3   0.492227 0.613818 0.050408 -0.296718
H15   H     H_    0.514354 0.290773 0.903288 0.205087
H16   H     H_    0.485644 0.709330 0.096658 0.206537
N3    N     N_3   0.499960 0.500030 0.863290 -0.166480
N4    N     N_3   0.500040 0.499970 0.136710 -0.165754
C53   C     C_3   0.459256 0.538656 0.955134 0.406734
C54   C     C_3   0.540665 0.461712 0.044431 0.394808
Cl1   Cl    Cl    0.422360 0.321729 0.119398 -0.503085
Cl2   Cl    Cl    0.577616 0.677956 0.880303 -0.545616
Cl3   Cl    Cl    0.403680 0.598923 0.895083 -0.495042
Cl4   Cl    Cl    0.597649 0.409370 0.100790 -0.442763
N5    N     N_3   0.258429 0.433882 0.772487 -0.402596
H17   H     H_    0.237271 0.351816 0.763931 0.221432
H18   H     H_    0.235962 0.509955 0.800874 0.204886
N6    N     N_3   0.738361 0.697093 0.677829 -0.406617
H19   H     H_    0.759715 0.760341 0.621241 0.231101
H20   H     H_    0.760390 0.649307 0.746097 0.205310
N7    N     N_3   0.118388 0.148892 0.589657 -0.447012
H21   H     H_    0.142455 0.147404 0.670395 0.232232
H22   H     H_    0.135917 0.126130 0.497453 0.248493
N8    N     N_3   0.878469 0.835168 0.379372 -0.368081
H23   H     H_    0.886244 0.915190 0.439390 0.177665
H24   H     H_    0.893985 0.849321 0.282590 0.193948
Cl5   Cl    Cl    0.648140 0.272880 0.361061 -0.527987
Cl6   Cl    Cl    0.349185 0.589661 0.238614 -0.485592
N9    N     N_3   0.868083 0.200199 0.709258 -0.363519
H25   H     H_    0.878451 0.117762 0.655740 0.179928
H26   H     H_    0.878312 0.189789 0.810632 0.193513
N10   N     N_3   0.126206 0.859291 0.521593 -0.448260
H27   H     H_    0.146078 0.874711 0.609706 0.244281
H28   H     H_    0.148476 0.861857 0.434463 0.241523

loop_
_geom_bond_atom_site_label_1
_geom_bond_atom_site_label_2
_geom_bond_distance
_ccdc_geom_bond_type
C42   C44   1.543863 S    
N5    H17   1.043840 S    
C53   Cl3   1.777719 S    
C13   C15   1.388374 A    
C45   C47   1.529186 S    
C35   H5    1.079512 S    
N1    C17   1.429039 S    
C49   C53   1.522379 S    
C32   C39   1.405255 A    
C31   C33   1.413539 A    
C44   C47   1.543056 S    
C5    N1    1.362188 A    
C19   C25   1.420082 A    
C46   C48   1.529162 S    
O1    C1    1.288407 A    
N1    C7    1.362685 A    
C10   C12   1.390566 A    
N4    C54   1.485049 S    
C25   C38   1.419786 A    
C29   C35   1.407330 A    
C44   C46   1.526611 S    
C52   C53   1.532518 S    
C30   C36   1.404553 A    
C1    C46   1.417343 S    
C38   N10   1.432643 S    
C14   C28   1.399754 A    
O4    Zn1   1.989881 S    
C13   C27   1.406582 A    
N10   H27   1.045154 S    
C4    C28   1.449248 S    
C24   C40   1.392969 A    
C42   H12   1.110459 S    
C54   Cl4   1.772008 S    
C41   C43   1.544068 S    
N6    H20   1.045534 S    
C16   N6    1.432937 S    
N9    H25   1.045919 S    
C43   C45   1.526864 S    
C6    N2    1.364029 A    
C51   N3    1.484889 S    
C32   C34   1.413701 A    
C8    C26   1.405617 A    
N5    H18   1.045544 S    
C50   C54   1.519820 S    
N9    H26   1.045733 S    
O2    C2    1.288340 A    
C12   Cl5   1.760371 S    
C5    C21   1.408021 A    
C51   H15   1.110305 S    
C36   C38   1.387250 A    
C11   Cl6   1.762734 S    
C39   H7    1.079590 S    
N3    C53   1.485205 S    
C40   H8    1.079352 S    
C9    H4    1.083533 S    
Zn2   N4    2.036088 S    
C50   C52   1.533794 S    
C11   C27   1.414351 A    
C49   C51   1.536525 S    
C15   N5    1.432846 S    
C19   C34   1.417557 A    
C41   H11   1.110438 S    
C42   C45   1.526608 S    
C14   H2    1.083947 S    
C41   C46   1.526652 S    
C43   H9    1.110398 S    
C9    C17   1.397790 A    
O5    C3    1.306428 A    
O7    Zn2   2.003564 S    
C10   C18   1.401485 A    
C50   N3    1.478627 S    
C47   H13   1.110535 S    
C37   N9    1.434237 S    
N7    H21   1.045248 S    
C7    C25   1.407803 A    
C29   C33   1.413348 A    
O6    C4    1.304001 A    
C42   C48   1.543110 S    
N6    H19   1.043387 S    
C6    O10   1.349475 S    
N8    H24   1.046128 S    
O7    C3    1.304735 A    
O3    Zn2   1.989883 S    
O8    C4    1.296820 A    
C44   H10   1.110415 S    
N7    H22   1.044918 S    
N2    C8    1.364927 A    
C52   H16   1.110343 S    
C20   C26   1.416406 A    
O4    C2    1.286178 A    
O1    Zn1   1.985023 S    
C23   N7    1.432710 S    
C12   C28   1.403459 A    
C2    C45   1.417543 S    
N2    C18   1.430002 S    
C29   C32   1.415421 A    
C5    O9    1.348128 S    
C30   C31   1.415262 A    
C20   C33   1.415336 A    
O6    Zn2   2.017947 S    
C21   C23   1.419364 A    
C48   H14   1.110532 S    
O3    C1    1.286026 A    
O8    Zn1   2.003567 S    
C7    O12   1.348214 S    
C8    O11   1.349551 S    
C30   C34   1.413408 A    
C41   C47   1.543245 S    
C22   C24   1.412022 A    
C15   C17   1.405010 A    
C52   N4    1.486318 S    
C6    C22   1.405241 A    
C31   C40   1.408035 A    
C16   C18   1.409902 A    
C10   H3    1.083314 S    
C14   C16   1.389353 A    
C19   C21   1.419897 A    
C3    C27   1.469016 S    
C20   C22   1.416035 A    
C9    C11   1.391176 A    
C50   Cl2   1.779733 S    
N8    H23   1.046007 S    
O2    Zn2   1.985021 S    
N10   H28   1.045122 S    
C49   Cl1   1.779906 S    
C51   C54   1.531250 S    
C13   H1    1.082450 S    
O5    Zn1   2.017941 S    
C24   N8    1.434209 S    
C26   C37   1.412777 A    
Zn1   N3    2.036088 S    
C36   H6    1.079924 S    
C43   C48   1.543161 S    
C35   C37   1.392814 A    
C49   N4    1.480866 S    
C23   C39   1.387350 A    
