data_mof_unit_5959.cif
_audit_creation_date              2012-12-10T18:11:36-0500
_audit_creation_method            fapswitch 2.2
_symmetry_space_group_name_H-M    P1
_symmetry_Int_Tables_number       1
_space_group_crystal_system       triclinic
_cell_length_a                    10.560621
_cell_length_b                    12.694114
_cell_length_c                    13.093722
_cell_angle_alpha                 81.647772
_cell_angle_beta                  93.061171
_cell_angle_gamma                 101.735193
_cell_volume                      1699.88125174

loop_
_atom_site_label
_atom_site_type_symbol
_atom_type_description
_atom_site_fract_x
_atom_site_fract_y
_atom_site_fract_z
_atom_type_partial_charge
C1    C     C_R   0.480634 0.438652 0.691148 0.957646
C2    C     C_3   0.054570 0.585363 0.427845 -0.123232
C3    C     C_3   0.985764 0.594364 0.526454 -0.115595
C4    C     C_3   0.878820 0.498729 0.503178 -0.086499
C5    C     C_R   0.727650 0.663144 0.080641 0.248868
C6    C     C_R   0.555168 0.597543 0.202637 -0.160712
C7    C     C_R   0.333750 0.326867 0.825933 0.198352
C8    C     C_R   0.282398 0.322065 0.923138 0.312038
C9    C     C_R   0.344643 0.391147 0.991658 -0.252873
C10   C     C_R   0.466237 0.459883 0.969288 0.035115
C11   C     C_R   0.525227 0.453693 0.876709 -0.031073
C12   C     C_R   0.742411 0.499267 0.502942 0.956295
C13   C     C_R   0.533324 0.531885 0.036951 0.085560
C14   C     C_R   0.660245 0.591609 0.013710 -0.048697
C15   C     C_R   0.721518 0.571622 0.928863 -0.148437
C16   C     C_R   0.657191 0.500586 0.863710 0.301243
C17   C     C_R   0.480522 0.542195 0.129619 -0.231658
C18   C     C_R   0.676510 0.663594 0.177222 0.214684
C19   C     C_R   0.451678 0.399206 0.800185 -0.196334
C20   C     C_R   0.314142 0.090931 0.343757 -0.222159
C21   C     C_R   0.643869 0.799441 0.639106 0.422384
C22   C     C_R   0.629393 0.883046 0.691983 -0.216263
C23   C     C_R   0.519160 0.561020 0.309346 0.892120
C24   C     C_R   0.549885 0.952857 0.649614 -0.142577
C25   C     C_R   0.500485 0.948561 0.548259 0.033351
C26   C     C_R   0.495649 0.850354 0.507866 0.138023
C27   C     C_R   0.450643 0.034193 0.488179 -0.087699
C28   C     C_R   0.370532 0.009927 0.400493 0.006781
C29   C     C_R   0.350167 0.905669 0.370243 0.245532
C30   C     C_R   0.415746 0.828631 0.421964 -0.192779
C31   C     C_R   0.484847 0.144844 0.505585 0.335721
C32   C     C_R   0.343866 0.195773 0.368258 0.362831
C33   C     C_R   0.258702 0.501456 0.494717 0.890451
C34   C     C_3   0.951443 0.416578 0.566157 0.371510
C35   C     C_3   0.058665 0.511893 0.590068 -0.191459
C36   C     C_3   0.123983 0.502450 0.491910 -0.074811
C37   C     C_3   0.018526 0.407761 0.467469 -0.148861
C38   C     C_3   0.945376 0.490243 0.404091 -0.199009
H1    H     H_    0.108288 0.521020 0.666173 0.187319
H2    H     H_    0.385032 0.500073 0.152257 0.186357
H3    H     H_    0.401954 0.752069 0.393854 0.215922
H4    H     H_    0.034141 0.331519 0.442549 0.217666
H5    H     H_    0.101183 0.653737 0.370904 0.208028
H6    H     H_    0.971482 0.671232 0.550643 0.222806
N1    N     N_R   0.432930 0.222190 0.444670 -0.146233
N2    N     N_R   0.566370 0.776980 0.554790 -0.142597
O1    O     O_R   0.467970 0.366730 0.627150 -0.539300
O2    O     O_R   0.510820 0.544830 0.662520 -0.600208
O3    O     O_R   0.664630 0.410960 0.482340 -0.585699
O4    O     O_R   0.707470 0.589060 0.517710 -0.560102
O5    O     O_R   0.489180 0.455170 0.337480 -0.585557
O6    O     O_R   0.532030 0.633270 0.372850 -0.607421
O7    O     O_R   0.292530 0.410940 0.482290 -0.569638
O8    O     O_R   0.335370 0.589040 0.517660 -0.652543
Zn1   Zn    Zn3+2 0.471390 0.381080 0.476380 1.066081
Zn2   Zn    Zn3+2 0.528610 0.618920 0.523620 1.012950
Br1   Br    Br    0.238676 0.237196 0.729297 -0.342334
H7    H     H_    0.296188 0.386078 0.062773 0.204587
Br2   Br    Br    0.121582 0.227560 0.963733 -0.276716
Br3   Br    Br    0.763276 0.451013 0.774837 -0.413637
Br4   Br    Br    0.252529 0.298255 0.291882 -0.489004
Br5   Br    Br    0.242823 0.865499 0.253035 -0.421861
H8    H     H_    0.247182 0.074355 0.279982 0.240036
Br6   Br    Br    0.615425 0.197136 0.602077 -0.370878
Br7   Br    Br    0.775254 0.721516 0.687879 -0.451724
Br8   Br    Br    0.917267 0.288832 0.668480 -0.283156
H9    H     H_    0.526991 0.008417 0.697333 0.217792
H10   H     H_    0.679213 0.893837 0.765329 0.213910
H11   H     H_    0.895903 0.481381 0.327924 0.187415
Br9   Br    Br    0.779736 0.744638 0.276995 -0.377895
H12   H     H_    0.822578 0.605799 0.915308 0.228992
Br10  Br    Br    0.893394 0.755117 0.044590 -0.331138

loop_
_geom_bond_atom_site_label_1
_geom_bond_atom_site_label_2
_ccdc_geom_bond_type
C18   Br9   S    
C34   C37   S    
C32   N1    A    
C35   C36   S    
C34   Br8   S    
C12   O3    A    
C7    C8    A    
C11   C19   A    
C29   C30   A    
C36   C37   S    
C32   Br4   S    
C9    H7    S    
C5    Br10  S    
C8    Br2   S    
C15   C16   A    
C33   C36   S    
C34   C35   S    
C16   Br3   S    
C37   H4    S    
C24   H9    S    
C8    C9    A    
C30   H3    S    
C4    C12   S    
C9    C10   A    
C38   H11   S    
C21   C22   A    
C4    C34   S    
O7    Zn1   S    
C33   O7    A    
C6    C18   A    
O8    Zn2   S    
C3    H6    S    
C1    C19   S    
C27   C31   A    
C24   C25   A    
C1    O1    A    
C5    C18   A    
C20   C28   A    
C25   C26   A    
O3    Zn1   S    
O4    Zn2   S    
C17   H2    S    
C35   H1    S    
C37   C38   S    
C11   C16   A    
C2    C38   S    
C23   O5    A    
C3    C35   S    
C2    H5    S    
C22   H10   S    
C5    C14   A    
C4    C38   S    
C26   C30   A    
C7    C19   A    
C22   C24   A    
C3    C4    S    
O1    Zn1   S    
C21   N2    A    
C20   C32   A    
C2    C36   S    
C33   O8    A    
O2    Zn2   S    
C6    C17   A    
C29   Br5   S    
C28   C29   A    
C21   Br7   S    
C31   Br6   S    
C10   C13   A    
C12   O4    A    
C1    O2    A    
C25   C27   A    
C15   H12   S    
C13   C17   A    
C20   H8    S    
C2    C3    S    
C23   O6    A    
C6    C23   S    
O5    Zn1   S    
C10   C11   A    
C26   N2    A    
N1    Zn1   S    
C31   N1    A    
N2    Zn2   S    
C27   C28   A    
C14   C15   A    
C13   C14   A    
C7    Br1   S    
O6    Zn2   S    
