data_mof_unit_55051.cif
_audit_creation_date              2012-10-26T19:59:07-0400
_audit_creation_method            fapswitch 2.2
_symmetry_space_group_name_H-M    P1
_symmetry_Int_Tables_number       1
_space_group_crystal_system       triclinic
_cell_length_a                    7.475797
_cell_length_b                    8.690578
_cell_length_c                    15.816182
_cell_angle_alpha                 95.011222
_cell_angle_beta                  75.328705
_cell_angle_gamma                 103.469227
_cell_volume                      966.27693656

loop_
_atom_site_label
_atom_site_type_symbol
_atom_type_description
_atom_site_fract_x
_atom_site_fract_y
_atom_site_fract_z
_atom_type_partial_charge
C1    C     C_R   0.545292 0.800176 0.502669 0.535623
C2    C     C_R   0.615237 0.510881 0.333898 0.533838
C3    C     C_R   0.315205 0.465410 0.760415 -0.002476
C4    C     C_R   0.684630 0.523414 0.238709 -0.002181
C5    C     C_R   0.079971 0.340033 0.883748 -0.134211
C6    C     C_R   0.930443 0.616844 0.110927 -0.133539
C7    C     C_R   0.131286 0.381738 0.796458 -0.137221
C8    C     C_R   0.874488 0.588810 0.200141 -0.134516
C9    C     C_R   0.444128 0.513027 0.813092 -0.132318
C10   C     C_R   0.553924 0.478502 0.186643 -0.135170
C11   C     C_R   0.398804 0.467396 0.900408 0.027453
C12   C     C_R   0.454695 0.199824 0.497347 0.535548
C13   C     C_R   0.607189 0.502374 0.096158 0.027943
C14   C     C_R   0.212321 0.380663 0.935570 0.043402
C15   C     C_R   0.797908 0.577234 0.059199 0.045370
C16   C     C_R   0.533571 0.503278 0.953078 0.028050
C17   C     C_R   0.475217 0.459309 0.042265 0.027111
C18   C     C_R   0.287937 0.371649 0.074186 -0.142024
C19   C     C_R   0.725560 0.578444 0.919165 -0.141974
C20   C     C_R   0.159985 0.333139 0.021660 -0.131606
C21   C     C_R   0.854464 0.613731 0.971274 -0.132143
C22   C     C_2   0.570473 0.968428 0.503868 -0.149731
C23   C     C_2   0.429496 0.031574 0.496173 -0.149718
C24   C     C_R   0.384662 0.487882 0.665998 0.533782
Cu1   Cu    Cu3+1 0.322120 0.483240 0.490330 1.053735
Cu2   Cu    Cu3+1 0.677880 0.516760 0.509670 1.054673
H1    H     H_    0.018284 0.265521 0.048892 0.120289
H2    H     H_    0.783719 0.609097 0.851782 0.112682
H3    H     H_    0.706008 0.040605 0.511046 0.148601
H4    H     H_    0.293958 0.959398 0.488998 0.148574
H5    H     H_    0.912448 0.686674 0.617431 0.320354
H6    H     H_    0.087556 0.313339 0.382561 0.320261
H7    H     H_    0.000132 0.670662 0.942328 0.122621
H8    H     H_    0.409197 0.430629 0.219269 0.121341
H9    H     H_    0.580327 0.584120 0.783257 0.116298
H10   H     H_    0.977801 0.623825 0.239320 0.141908
H11   H     H_    0.029680 0.343863 0.756578 0.140105
H12   H     H_    0.937466 0.273550 0.910458 0.120520
H13   H     H_    0.076994 0.671925 0.082514 0.120486
H14   H     H_    0.235725 0.326543 0.139153 0.108679
N1    N     N_2   0.945180 0.542040 0.524240 0.093044
N2    N     N_2   0.054820 0.457960 0.475760 0.092789
O1    O     O_R   0.384450 0.714270 0.493720 -0.460626
O2    O     O_3   0.984993 0.366511 0.413895 -0.593272
O3    O     O_R   0.615550 0.285730 0.506280 -0.460614
O4    O     O_R   0.684880 0.742590 0.510050 -0.522860
O5    O     O_R   0.315120 0.257410 0.489950 -0.523038
O6    O     O_R   0.265540 0.477900 0.617090 -0.459961
O7    O     O_R   0.734460 0.522100 0.382910 -0.459948
O8    O     O_R   0.565970 0.506210 0.633420 -0.530745
O9    O     O_R   0.434030 0.493790 0.366580 -0.532519
O10   O     O_3   0.015010 0.633497 0.586101 -0.592670

loop_
_geom_bond_atom_site_label_1
_geom_bond_atom_site_label_2
_ccdc_geom_bond_type
Cu1   N2    S    
C2    C4    S    
Cu1   O9    S    
C3    C9    A    
C2    O7    A    
N1    N2    D    
Cu1   O5    S    
N1    O10   S    
C18   C20   A    
Cu1   O6    S    
C13   C17   A    
H5    O10   S    
C4    C8    A    
Cu1   O1    S    
C13   C15   A    
C17   C18   A    
C7    H11   S    
C1    C22   S    
C10   H8    S    
Cu1   Cu2   S    
C5    H12   S    
C19   H2    S    
C9    C11   A    
C12   C23   S    
C5    C14   A    
C22   H3    S    
N2    O2    S    
C12   O5    A    
C20   H1    S    
C3    C7    A    
Cu2   O8    S    
C24   O8    A    
C11   C14   A    
C1    O4    A    
C11   C16   A    
C21   H7    S    
C2    O9    A    
Cu2   O4    S    
C4    C10   A    
C24   O6    A    
C23   H4    S    
C14   C20   A    
C15   C21   A    
H6    O2    S    
C5    C7    A    
C8    H10   S    
Cu2   O7    S    
C9    H9    S    
C18   H14   S    
C6    H13   S    
C16   C17   A    
C6    C8    A    
Cu2   O3    S    
C19   C21   A    
C6    C15   A    
C22   C23   D    
C1    O1    A    
Cu2   N1    S    
C3    C24   S    
C12   O3    A    
C10   C13   A    
C16   C19   A    
