data_mof_unit_37287.cif
_audit_creation_date              2012-12-11T15:18:33-0500
_audit_creation_method            fapswitch 2.2
_symmetry_space_group_name_H-M    P1
_symmetry_Int_Tables_number       1
_space_group_crystal_system       triclinic
_cell_length_a                    6.946619
_cell_length_b                    19.915334
_cell_length_c                    23.777009
_cell_angle_alpha                 93.633913
_cell_angle_beta                  91.329888
_cell_angle_gamma                 88.561778
_cell_volume                      3280.99374903

loop_
_atom_site_label
_atom_site_type_symbol
_atom_type_description
_atom_site_fract_x
_atom_site_fract_y
_atom_site_fract_z
_atom_type_partial_charge
O1    O     O_R   0.620100 0.812200 0.810870 -0.540404
O2    O     O_R   0.379900 0.187800 0.189130 -0.540404
O3    O     O_R   0.296960 0.671650 0.794750 -0.538238
O4    O     O_R   0.703040 0.328350 0.205250 -0.538238
O5    O     O_R   0.120160 0.687800 0.689130 -0.533586
O6    O     O_R   0.879840 0.312200 0.310870 -0.533586
C1    C     C_R   0.468949 0.646979 0.804540 0.692551
C2    C     C_R   0.531051 0.353021 0.195460 0.692551
O7    O     O_R   0.290810 0.810670 0.817290 -0.543913
O8    O     O_R   0.709190 0.189330 0.182710 -0.543913
O9    O     O_R   0.113980 0.827820 0.711840 -0.535577
O10   O     O_R   0.886020 0.172180 0.288160 -0.535577
C3    C     C_R   0.459527 0.831998 0.834155 0.708871
C4    C     C_R   0.540473 0.168002 0.165845 0.708871
O11   O     O_R   0.626290 0.672180 0.788160 -0.537517
O12   O     O_R   0.373710 0.327820 0.211840 -0.537517
O13   O     O_3   0.451520 0.755460 0.715370 -0.365407
O14   O     O_3   0.548480 0.244540 0.284630 -0.365407
V1    V     V_3+5 0.179200 0.748980 0.756420 1.414328
V2    V     V_3+5 0.820800 0.251020 0.243580 1.414328
O15   O     O_R   0.783880 0.828350 0.705250 -0.538655
O16   O     O_R   0.216120 0.171650 0.294750 -0.538654
C5    C     C_R   0.949773 0.852625 0.694810 0.691835
C6    C     C_R   0.050227 0.147375 0.305190 0.691835
O17   O     O_R   0.790030 0.689320 0.682700 -0.543267
O18   O     O_R   0.209970 0.310680 0.317300 -0.543267
C7    C     C_R   0.958732 0.668025 0.666108 0.712271
C8    C     C_R   0.041268 0.331975 0.333892 0.712270
V3    V     V_3+5 0.678400 0.751010 0.743570 1.416383
V4    V     V_3+5 0.321600 0.248990 0.256430 1.416383
O19   O     O_3   0.955950 0.744540 0.784620 -0.369204
O20   O     O_3   0.044050 0.255460 0.215380 -0.369204
C9    C     C_R   0.010442 0.453159 0.372846 0.087966
C10   C     C_R   0.989558 0.546840 0.627154 0.087966
C11   C     C_R   0.032597 0.383404 0.381571 -0.093926
C12   C     C_R   0.967403 0.616596 0.618429 -0.093926
C13   C     C_R   0.043737 0.361628 0.436373 -0.252528
C14   C     C_R   0.956263 0.638372 0.563627 -0.252528
C15   C     C_R   0.031239 0.407566 0.483313 0.110203
C16   C     C_R   0.968761 0.592434 0.516687 0.110203
C17   C     C_R   0.006750 0.476946 0.475925 0.028357
C18   C     C_R   0.993249 0.523054 0.524075 0.028358
C19   C     C_R   0.995879 0.500273 0.420640 0.082360
C20   C     C_R   0.004121 0.499727 0.579359 0.082359
C21   C     C_R   0.042291 0.384751 0.537755 -0.181955
C22   C     C_R   0.957709 0.615249 0.462245 -0.181955
C23   C     C_R   0.029135 0.429837 0.584952 -0.192602
C24   C     C_R   0.970865 0.570163 0.415048 -0.192602
H1    H     H_    0.061037 0.308234 0.442375 0.108555
H2    H     H_    0.938963 0.691766 0.557625 0.108555
H3    H     H_    0.061354 0.331522 0.543977 0.121192
H4    H     H_    0.938646 0.668477 0.456022 0.121192
H5    H     H_    0.039896 0.408656 0.625609 0.134587
H6    H     H_    0.960104 0.591344 0.374391 0.134586
C25   C     C_R   0.948108 0.914069 0.663192 -0.041969
C26   C     C_R   0.051892 0.085930 0.336808 -0.041969
C27   C     C_R   0.869420 0.032712 0.660066 -0.161975
C28   C     C_R   0.130580 0.967288 0.339934 -0.161975
C29   C     C_R   0.885613 0.974870 0.689890 -0.166850
C30   C     C_R   0.114387 0.025130 0.310110 -0.166850
C31   C     C_R   0.993560 0.911369 0.605677 -0.215221
C32   C     C_R   0.006440 0.088631 0.394322 -0.215221
C33   C     C_R   0.974480 0.969631 0.573772 0.086314
C34   C     C_R   0.025520 0.030369 0.426227 0.086315
C35   C     C_R   0.911799 0.030630 0.602533 0.140066
C36   C     C_R   0.088201 0.969369 0.397467 0.140066
C37   C     C_R   0.012547 0.969540 0.514533 0.058802
C38   C     C_R   0.987453 0.030460 0.485467 0.058802
C39   C     C_R   0.925849 0.089416 0.516652 -0.188767
C40   C     C_R   0.074151 0.910584 0.483348 -0.188767
C41   C     C_R   0.889310 0.089299 0.573791 -0.203310
C42   C     C_R   0.110690 0.910701 0.426209 -0.203310
H7    H     H_    0.841544 0.135914 0.595761 0.120975
H8    H     H_    0.158456 0.864086 0.404239 0.120975
H9    H     H_    0.961704 0.137090 0.412891 0.092378
H10   H     H_    0.038296 0.862910 0.587109 0.092377
H11   H     H_    0.151944 0.022577 0.266027 0.103750
H12   H     H_    0.848056 0.977423 0.733973 0.103750
H13   H     H_    0.820713 0.079230 0.681957 0.112351
H14   H     H_    0.179287 0.920770 0.318042 0.112351
H15   H     H_    0.903641 0.136990 0.498110 0.121024
H16   H     H_    0.096359 0.863010 0.501890 0.121024
C43   C     C_R   0.491774 0.585536 0.835740 -0.042713
C44   C     C_R   0.508226 0.414464 0.164260 -0.042713
C45   C     C_R   0.624260 0.472412 0.839226 -0.162880
C46   C     C_R   0.375738 0.527588 0.160774 -0.162879
C47   C     C_R   0.579609 0.528586 0.809191 -0.179549
C48   C     C_R   0.420389 0.471414 0.190809 -0.179550
C49   C     C_R   0.449890 0.586096 0.893336 -0.214359
C50   C     C_R   0.550111 0.413904 0.106664 -0.214359
C51   C     C_R   0.499957 0.530002 0.925620 0.084327
C52   C     C_R   0.500042 0.469998 0.074380 0.084327
C53   C     C_R   0.587575 0.472829 0.897011 0.140761
C54   C     C_R   0.412423 0.527171 0.102988 0.140761
C55   C     C_R   0.470620 0.529056 0.985203 0.057236
C56   C     C_R   0.529379 0.470944 0.014797 0.057235
C57   C     C_R   0.614414 0.415631 0.983770 -0.187505
C58   C     C_R   0.385584 0.584368 0.016230 -0.187505
C59   C     C_R   0.642024 0.416681 0.926240 -0.202439
C60   C     C_R   0.357974 0.583318 0.073760 -0.202439
H17   H     H_    0.709017 0.373021 0.904401 0.122923
H18   H     H_    0.290979 0.626979 0.095599 0.122923
H19   H     H_    0.613786 0.368081 0.088171 0.097282
H20   H     H_    0.386217 0.631919 0.911829 0.097282
H21   H     H_    0.384567 0.472090 0.234949 0.106613
H22   H     H_    0.615430 0.527910 0.765051 0.106612
H23   H     H_    0.692282 0.428957 0.817417 0.112261
H24   H     H_    0.307715 0.571043 0.182582 0.112260
H25   H     H_    0.662694 0.370353 0.002718 0.123295
H26   H     H_    0.337304 0.629646 0.997282 0.123295
C61   C     C_R   0.367799 0.077222 0.108478 -0.216990
C62   C     C_R   0.632201 0.922778 0.891521 -0.216990
C63   C     C_R   0.529313 0.118426 0.116599 -0.084051
C64   C     C_R   0.470687 0.881574 0.883401 -0.084051
C65   C     C_R   0.679219 0.111743 0.077642 -0.228110
C66   C     C_R   0.320781 0.888257 0.922358 -0.228110
C67   C     C_R   0.667581 0.065198 0.030801 0.091264
C68   C     C_R   0.332419 0.934802 0.969199 0.091264
C69   C     C_R   0.505901 0.023718 0.023346 0.053110
C70   C     C_R   0.494099 0.976282 0.976654 0.053110
C71   C     C_R   0.355977 0.029590 0.062498 0.088267
C72   C     C_R   0.644023 0.970410 0.937502 0.088267
C73   C     C_R   0.814608 0.059443 0.991163 -0.183602
C74   C     C_R   0.185392 0.940557 0.008837 -0.183602
C75   C     C_R   0.803045 0.012430 0.944966 -0.192608
C76   C     C_R   0.196955 0.987569 0.055034 -0.192608
H27   H     H_    0.252101 0.081537 0.138431 0.123054
H28   H     H_    0.747899 0.918462 0.861569 0.123054
H29   H     H_    0.803847 0.143361 0.083346 0.127253
H30   H     H_    0.196153 0.856639 0.916654 0.127253
H31   H     H_    0.939394 0.091036 0.996075 0.134720
H32   H     H_    0.060606 0.908964 0.003925 0.134720
H33   H     H_    0.919269 0.008676 0.915220 0.131857
H34   H     H_    0.080731 0.991324 0.084780 0.131857
C77   C     C_3   0.004127 0.476343 0.312946 -0.366400
C78   C     C_3   0.797201 0.489102 0.292608 -0.735946
H35   H     H_    0.714351 0.442165 0.292853 0.226564
H36   H     H_    0.724487 0.528783 0.319895 0.219108
H37   H     H_    0.797442 0.505640 0.248885 0.221147
H38   H     H_    0.090923 0.521935 0.309921 0.164880
H39   H     H_    0.072085 0.438518 0.282882 0.170982
C79   C     C_3   0.995872 0.523657 0.687054 -0.366401
C80   C     C_3   0.202797 0.510897 0.707392 -0.735946
H40   H     H_    0.275512 0.471217 0.680105 0.219108
H41   H     H_    0.285647 0.557835 0.707147 0.226564
H42   H     H_    0.202556 0.494359 0.751115 0.221147
H43   H     H_    0.927913 0.561481 0.717118 0.170982
H44   H     H_    0.909076 0.478065 0.690079 0.164880

loop_
_geom_bond_atom_site_label_1
_geom_bond_atom_site_label_2
_ccdc_geom_bond_type
C80   H42   S    
C1    C43   S    
C33   C35   A    
C58   H26   S    
C25   C29   A    
C61   C71   A    
O13   V3    S    
C17   C18   A    
C27   H13   S    
C43   C47   A    
C55   C56   A    
C6    C26   S    
O4    C2    A    
V1    O19   S    
C62   C64   A    
C55   C58   A    
C77   C78   S    
C15   C17   A    
C16   C22   A    
O9    V1    S    
C18   C20   A    
C34   C38   A    
O16   C6    A    
C11   C13   A    
O7    V1    S    
O3    C1    A    
C67   C69   A    
V2    O20   S    
C46   C48   A    
C73   C75   A    
C21   H3    S    
C28   C30   A    
C80   H40   S    
C22   H4    S    
C52   C56   A    
C57   H25   S    
C74   H32   S    
C31   C33   A    
C39   C41   A    
O7    C3    A    
C32   C34   A    
C46   C54   A    
O13   V1    S    
O5    C7    A    
C45   C53   A    
C28   C36   A    
C36   C42   A    
C8    C11   S    
O8    V2    S    
C38   C39   A    
C65   C67   A    
O3    V1    S    
O14   V4    S    
C49   C51   A    
C19   C24   A    
C53   C59   A    
O14   V2    S    
C3    C64   S    
C20   C23   A    
C28   H14   S    
C15   C21   A    
C21   C23   A    
C2    O12   A    
C17   C19   A    
C44   C50   A    
C78   H37   S    
C40   H16   S    
C29   H12   S    
C60   H18   S    
C57   C59   A    
C70   C72   A    
O11   V3    S    
C22   C24   A    
C45   C47   A    
C31   H10   S    
O17   V3    S    
C77   H38   S    
C43   C49   A    
C33   C37   A    
C30   H11   S    
C37   C38   A    
C9    C19   A    
C79   H44   S    
C10   C20   A    
C78   H36   S    
O8    C4    A    
C41   H7    S    
C78   H35   S    
C1    O11   A    
C35   C41   A    
O15   V3    S    
C26   C30   A    
C34   C36   A    
C24   H6    S    
C62   C72   A    
V4    O20   S    
C51   C53   A    
C13   H1    S    
C9    C77   S    
C50   C52   A    
C54   C60   A    
C56   C57   A    
O10   V2    S    
O1    V3    S    
C61   C63   A    
C68   C74   A    
C69   C71   A    
C39   H15   S    
C14   H2    S    
C42   H8    S    
C59   H17   S    
O18   V4    S    
C58   C60   A    
O15   C5    A    
C49   H20   S    
C61   H27   S    
C26   C32   A    
C32   H9    S    
O1    C3    A    
C74   C76   A    
C65   H29   S    
C75   H33   S    
C80   H41   S    
C10   C79   S    
O16   V4    S    
C73   H31   S    
C2    C44   S    
C79   H43   S    
C46   H24   S    
C44   C48   A    
C27   C35   A    
C16   C18   A    
C64   C66   A    
C69   C70   A    
C5    C25   S    
O5    V1    S    
C7    C12   S    
O17   C7    A    
C4    C63   S    
O6    V2    S    
O10   C6    A    
O18   C8    A    
C23   H5    S    
O2    V4    S    
C37   C40   A    
C72   C75   A    
C12   C14   A    
C67   C73   A    
C71   C76   A    
V3    O19   S    
C14   C16   A    
C48   H21   S    
C52   C54   A    
C47   H22   S    
C25   C31   A    
O9    C5    A    
C9    C11   A    
C66   C68   A    
C10   C12   A    
O2    C4    A    
C68   C70   A    
C50   H19   S    
C62   H28   S    
C27   C29   A    
C51   C55   A    
O4    V2    S    
O6    C8    A    
C77   H39   S    
C66   H30   S    
C76   H34   S    
C13   C15   A    
C79   C80   S    
C40   C42   A    
C45   H23   S    
O12   V4    S    
C63   C65   A    
