data_mof_unit_66385.cif
_audit_creation_date              2012-12-10T19:51:45-0500
_audit_creation_method            fapswitch 2.2
_symmetry_space_group_name_H-M    P1
_symmetry_Int_Tables_number       1
_space_group_crystal_system       triclinic
_cell_length_a                    25.987922
_cell_length_b                    25.971763
_cell_length_c                    22.186373
_cell_angle_alpha                 90.029297
_cell_angle_beta                  125.793867
_cell_angle_gamma                 89.938882
_cell_volume                      12146.4004975

loop_
_atom_site_label
_atom_site_type_symbol
_atom_type_description
_atom_site_fract_x
_atom_site_fract_y
_atom_site_fract_z
_atom_type_partial_charge
C1    C     C_R   0.650302 0.750012 0.300611 0.816691
C2    C     C_3   0.489258 0.791250 0.024260 0.112741
C3    C     C_R   0.245145 0.526469 0.441828 0.065093
C4    C     C_R   0.743846 0.945909 0.495179 -0.096426
C5    C     C_R   0.743634 0.054079 0.494947 -0.096178
C6    C     C_R   0.243762 0.445917 0.495086 -0.095517
C7    C     C_R   0.243344 0.554085 0.494681 -0.094400
C8    C     C_R   0.733349 0.973146 0.541913 -0.209538
C9    C     C_R   0.733291 0.026919 0.541836 -0.206743
C10   C     C_R   0.232505 0.473150 0.541166 -0.208204
C11   C     C_R   0.232353 0.526929 0.541013 -0.207873
C12   C     C_3   0.788371 0.029550 0.418519 -0.041999
C13   C     C_3   0.994057 0.706460 0.024261 0.117211
C14   C     C_3   0.789061 0.970443 0.419337 -0.019076
C15   C     C_3   0.289373 0.529683 0.419662 -0.036386
C16   C     C_3   0.290563 0.470595 0.421038 -0.015928
C17   C     C_R   0.609396 0.750850 0.499040 0.849943
C18   C     C_R   0.610415 0.250696 0.501138 0.816651
C19   C     C_R   0.109398 0.250845 0.499047 0.849105
C20   C     C_R   0.109374 0.749198 0.498980 0.854209
C21   C     C_R   0.749609 0.890158 0.499693 0.808268
C22   C     C_R   0.749531 0.109834 0.499593 0.813985
C23   C     C_R   0.249599 0.390162 0.499687 0.805072
C24   C     C_3   0.989019 0.290895 0.024249 0.113857
C25   C     C_R   0.249442 0.609833 0.499519 0.807029
C26   C     C_R   0.749968 0.609825 0.500343 0.813362
C27   C     C_R   0.749938 0.390178 0.500302 0.801076
C28   C     C_R   0.249960 0.109822 0.500387 0.819925
C29   C     C_R   0.249927 0.890179 0.500355 0.817604
C30   C     C_R   0.692832 0.526602 0.460055 0.148117
C31   C     C_R   0.692814 0.473499 0.460029 0.138081
C32   C     C_R   0.192770 0.026601 0.460527 0.152116
C33   C     C_R   0.192748 0.973498 0.460514 0.152130
C34   C     C_R   0.749357 0.554067 0.505139 -0.077783
C35   C     C_3   0.939044 0.744057 0.975148 -0.196139
C36   C     C_R   0.749321 0.445944 0.505093 -0.081565
C37   C     C_R   0.249334 0.054066 0.505318 -0.081760
C38   C     C_R   0.249293 0.945939 0.505284 -0.081299
C39   C     C_R   0.805091 0.526862 0.557674 -0.215550
C40   C     C_R   0.805073 0.473067 0.557652 -0.215012
C41   C     C_R   0.305120 0.026859 0.557709 -0.212052
C42   C     C_R   0.305101 0.973061 0.557689 -0.210605
C43   C     C_3   0.938987 0.249845 0.975166 -0.144906
C44   C     C_3   0.440677 0.264311 0.975108 -0.190076
C45   C     C_3   0.438774 0.750479 0.975192 -0.139370
C46   C     C_1   0.889344 0.749954 0.778816 -0.132272
C47   C     C_1   0.889435 0.249975 0.778814 -0.134670
C48   C     C_1   0.389311 0.249927 0.778823 -0.133191
C49   C     C_R   0.650271 0.249979 0.300592 0.822943
C50   C     C_1   0.389335 0.750043 0.778803 -0.130023
C51   C     C_1   0.610655 0.250021 0.221231 -0.099030
C52   C     C_1   0.610731 0.749948 0.221238 -0.104607
C53   C     C_1   0.110712 0.750061 0.221222 -0.107170
C54   C     C_1   0.110797 0.249897 0.221247 -0.107282
C55   C     C_3   0.017423 0.710924 0.974886 -0.181500
C56   C     C_3   0.012610 0.292384 0.974889 -0.233034
C57   C     C_3   0.498874 0.202075 0.974979 -0.181133
C58   C     C_3   0.512806 0.792233 0.974842 -0.232131
C59   C     C_3   0.963414 0.749865 0.926672 0.125992
C60   C     C_R   0.150315 0.250003 0.300614 0.821655
C61   C     C_3   0.963718 0.250056 0.926693 0.126518
C62   C     C_3   0.463270 0.249793 0.926689 0.124904
C63   C     C_3   0.463461 0.750176 0.926671 0.125319
C64   C     C_3   0.558830 0.235921 0.024214 0.187936
C65   C     C_3   0.561019 0.749287 0.024155 0.191615
C66   C     C_3   0.060568 0.756238 0.024138 0.188167
C67   C     C_3   0.061269 0.249690 0.024243 0.191992
C68   C     C_3   0.537145 0.250271 0.073356 0.122826
C69   C     C_3   0.537191 0.749550 0.073346 0.123913
C70   C     C_3   0.037127 0.750497 0.073340 0.123698
C71   C     C_R   0.150288 0.749990 0.300589 0.821667
C72   C     C_3   0.037376 0.249446 0.073365 0.124345
C73   C     C_3   0.006398 0.795162 0.974550 -0.177521
C74   C     C_3   0.012214 0.207448 0.974613 -0.177579
C75   C     C_3   0.523017 0.283407 0.974557 -0.183955
C76   C     C_3   0.511509 0.707311 0.974557 -0.179960
C77   C     C_R   0.849663 0.749974 0.699425 0.835964
C78   C     C_R   0.849663 0.250015 0.699408 0.818805
C79   C     C_R   0.349667 0.249977 0.699427 0.830771
C80   C     C_R   0.349650 0.750023 0.699404 0.831673
C81   C     C_3   0.501321 0.297725 0.024529 -0.214659
C82   C     C_3   0.643434 0.470828 0.378041 -0.456691
C83   C     C_3   0.487727 0.707750 0.024579 -0.217533
C84   C     C_3   0.982999 0.789218 0.024582 -0.217932
C85   C     C_3   0.988376 0.207376 0.024578 -0.216777
C86   C     C_1   0.922776 0.749906 0.845593 -0.035827
C87   C     C_1   0.922977 0.250004 0.845600 -0.039872
C88   C     C_1   0.422692 0.249857 0.845604 -0.036488
C89   C     C_1   0.422787 0.750106 0.845585 -0.035399
C90   C     C_1   0.577401 0.250117 0.154472 -0.005478
C91   C     C_1   0.577488 0.749804 0.154472 -0.009914
C92   C     C_1   0.077458 0.750214 0.154460 -0.010422
C93   C     C_3   0.643448 0.529324 0.378065 -0.475762
C94   C     C_1   0.077607 0.249722 0.154486 -0.011262
C95   C     C_R   0.511352 0.711523 0.469586 0.014909
C96   C     C_R   0.499832 0.274208 0.446786 0.063911
C97   C     C_R   0.011187 0.211619 0.469270 0.012806
C98   C     C_R   0.010787 0.788169 0.469012 0.013885
C99   C     C_R   0.551165 0.754276 0.494137 -0.102630
C100  C     C_R   0.557629 0.254965 0.506993 -0.189436
C101  C     C_R   0.051157 0.254288 0.494124 -0.103399
C102  C     C_R   0.050908 0.745556 0.493473 -0.134133
C103  C     C_R   0.531009 0.800601 0.508691 0.029411
C104  C     C_3   0.143025 0.970827 0.378615 -0.476220
C105  C     C_R   0.563838 0.243695 0.573670 0.092516
C106  C     C_R   0.031126 0.300577 0.508930 0.029067
C107  C     C_R   0.030632 0.698934 0.507000 0.085517
C108  C     C_R   0.476579 0.800172 0.508469 0.099975
C109  C     C_R   0.509730 0.243707 0.573727 0.074439
C110  C     C_R   0.976694 0.300152 0.508698 0.098808
C111  C     C_R   0.976531 0.698905 0.507096 0.093523
C112  C     C_R   0.442530 0.753833 0.493510 -0.103093
C113  C     C_R   0.449317 0.254870 0.507077 -0.162673
C114  C     C_R   0.942511 0.253854 0.493477 -0.103952
C115  C     C_3   0.143047 0.029324 0.378626 -0.475749
C116  C     C_R   0.942348 0.745414 0.493098 -0.162284
C117  C     C_R   0.457668 0.711558 0.467982 0.003796
C118  C     C_R   0.446911 0.273852 0.446731 0.064621
C119  C     C_R   0.957500 0.211663 0.467652 0.003340
C120  C     C_R   0.957268 0.787804 0.467651 0.079806
C121  C     C_3   0.465447 0.655765 0.489016 -0.145270
C122  C     C_3   0.403775 0.261719 0.365425 -0.127175
C123  C     C_3   0.965013 0.155776 0.488175 -0.144255
C124  C     C_3   0.963751 0.843613 0.487551 -0.138905
C125  C     C_R   0.889626 0.749227 0.499053 0.809724
C126  C     C_3   0.477783 0.217597 0.024296 0.116265
C127  C     C_R   0.889754 0.250423 0.499323 0.828291
C128  C     C_R   0.390714 0.250700 0.501238 0.837966
C129  C     C_R   0.389756 0.750421 0.499328 0.827465
C130  C     C_3   0.524812 0.655714 0.490274 -0.008949
C131  C     C_3   0.462750 0.262116 0.365681 -0.051044
C132  C     C_3   0.024386 0.155718 0.489441 -0.008112
C133  C     C_3   0.023211 0.844186 0.488701 -0.060399
C134  C     C_R   0.745061 0.973412 0.441891 0.064463
C135  C     C_R   0.744788 0.026465 0.441636 0.068405
C136  C     C_R   0.245615 0.473406 0.442241 0.059248
H1    H     H_    0.849226 0.546890 0.596455 0.179855
H2    H     H_    0.475611 0.224139 0.354730 0.131511
H3    H     H_    0.019928 0.132490 0.444479 0.165078
H4    H     H_    0.018515 0.867403 0.443623 0.157004
H5    H     H_    0.728359 0.953177 0.581070 0.177124
H6    H     H_    0.728325 0.046949 0.581000 0.177749
H7    H     H_    0.226987 0.453177 0.579900 0.177297
H8    H     H_    0.226823 0.546969 0.579723 0.177561
H9    H     H_    0.835062 0.046390 0.462956 0.116180
H10   H     H_    0.836058 0.954422 0.464551 0.118239
H11   H     H_    0.335748 0.546843 0.464336 0.116390
H12   H     H_    0.849203 0.452970 0.596428 0.181394
H13   H     H_    0.337467 0.454923 0.467042 0.117294
H14   H     H_    0.661657 0.453792 0.347897 0.202796
H15   H     H_    0.661670 0.546304 0.347926 0.202942
H16   H     H_    0.160936 0.953781 0.348144 0.204521
H17   H     H_    0.160969 0.046293 0.348161 0.204327
H18   H     H_    0.598279 0.454028 0.363876 0.230965
H19   H     H_    0.598302 0.546208 0.363924 0.221000
H20   H     H_    0.097993 0.954041 0.364842 0.217761
H21   H     H_    0.098027 0.046218 0.364860 0.218390
H22   H     H_    0.888938 0.738198 0.954593 0.154467
H23   H     H_    0.349297 0.046883 0.596328 0.180165
H24   H     H_    0.888437 0.250766 0.954536 0.150070
H25   H     H_    0.391596 0.275159 0.954505 0.155667
H26   H     H_    0.388251 0.751829 0.954611 0.154439
H27   H     H_    0.502966 0.336926 0.045574 0.163175
H28   H     H_    0.478042 0.673066 0.045661 0.161283
H29   H     H_    0.969507 0.821413 0.045686 0.161988
H30   H     H_    0.979041 0.172478 0.045643 0.160381
H31   H     H_    0.011196 0.832014 0.952927 0.160434
H32   H     H_    0.021545 0.172817 0.953018 0.160620
H33   H     H_    0.541473 0.310680 0.952921 0.159258
H34   H     H_    0.349274 0.952965 0.596294 0.181078
H35   H     H_    0.520451 0.672473 0.952936 0.159933
H36   H     H_    0.030878 0.678382 0.954250 0.162466
H37   H     H_    0.021860 0.327606 0.954308 0.163391
H38   H     H_    0.497076 0.162666 0.954410 0.162653
H39   H     H_    0.522408 0.827244 0.954242 0.164470
H40   H     H_    0.571048 0.855231 0.482739 0.191972
H41   H     H_    0.608713 0.845327 0.575794 0.226788
H42   H     H_    0.656750 0.260006 0.652662 0.189642
H43   H     H_    0.639302 0.195824 0.636290 0.219112
H44   H     H_    0.071319 0.355289 0.483295 0.191914
H45   H     H_    0.474070 0.648867 0.543738 0.183991
H46   H     H_    0.108942 0.345138 0.576301 0.227301
H47   H     H_    0.070686 0.644927 0.480053 0.182933
H48   H     H_    0.108109 0.653680 0.573271 0.222581
H49   H     H_    0.447539 0.874431 0.485416 0.194911
H50   H     H_    0.493641 0.859503 0.577100 0.208117
H51   H     H_    0.495728 0.260107 0.652741 0.187398
H52   H     H_    0.496958 0.195916 0.636461 0.220749
H53   H     H_    0.947873 0.374476 0.486062 0.195171
H54   H     H_    0.993928 0.359301 0.577662 0.209227
H55   H     H_    0.909984 0.644743 0.480669 0.184895
H56   H     H_    0.368937 0.292924 0.332413 0.220775
H57   H     H_    0.965636 0.653877 0.573798 0.221918
H58   H     H_    0.402836 0.635613 0.377978 0.219788
H59   H     H_    0.374671 0.628659 0.429105 0.235442
H60   H     H_    0.408806 0.182739 0.382056 0.185547
H61   H     H_    0.353162 0.202273 0.294530 0.215706
H62   H     H_    0.902273 0.136140 0.376947 0.218654
H63   H     H_    0.874133 0.128849 0.428058 0.236017
H64   H     H_    0.905254 0.866601 0.377235 0.213218
H65   H     H_    0.923802 0.913109 0.439834 0.203046
H66   H     H_    0.412019 0.165684 0.006800 0.194580
H67   H     H_    0.973601 0.148641 0.542831 0.184783
H68   H     H_    0.441342 0.202733 0.082212 0.196631
H69   H     H_    0.443705 0.859099 0.006716 0.194470
H70   H     H_    0.519309 0.858304 0.082132 0.203774
H71   H     H_    0.954377 0.635796 0.006720 0.190960
H72   H     H_    0.969401 0.666214 0.082190 0.189514
H73   H     H_    0.942731 0.358357 0.006659 0.189233
H74   H     H_    0.018320 0.357971 0.082113 0.202833
H75   H     H_    0.971951 0.850532 0.542036 0.185820
H76   H     H_    0.520465 0.632286 0.445530 0.167491
I1    I     I_    0.609878 0.641597 0.599331 -0.385467
I2    I     I_    0.658009 0.747944 0.063004 -0.357502
I3    I     I_    0.156889 0.766296 0.062912 -0.346036
I4    I     I_    0.158390 0.249166 0.063475 -0.350669
I5    I     I_    0.463949 0.324999 0.304114 -0.306752
I6    I     I_    0.109378 0.141093 0.598355 -0.369255
I7    I     I_    0.107990 0.859304 0.597495 -0.372541
I8    I     I_    0.743069 0.068624 0.313451 -0.242745
I9    I     I_    0.746039 0.929874 0.315740 -0.233155
I10   I     I_    0.244461 0.568275 0.314305 -0.246986
I11   I     I_    0.249650 0.429527 0.318178 -0.219406
I12   I     I_    0.652679 0.213778 0.063201 -0.336454
N1    N     N_3   0.564639 0.848197 0.524342 -0.467307
N2    N     N_3   0.374208 0.210876 0.350410 -0.450502
N3    N     N_3   0.914258 0.123691 0.428571 -0.430150
N4    N     N_3   0.911365 0.874294 0.427380 -0.402257
N5    N     N_3   0.453894 0.181457 0.052628 -0.434614
N6    N     N_3   0.477378 0.836876 0.052567 -0.439347
N7    N     N_3   0.988197 0.657923 0.052564 -0.430783
N8    N     N_3   0.976625 0.336249 0.052520 -0.443529
N9    N     N_3   0.623906 0.231541 0.641750 -0.416044
N10   N     N_3   0.064885 0.348134 0.524852 -0.466205
N11   N     N_3   0.064106 0.651311 0.521658 -0.421777
N12   N     N_3   0.456496 0.846497 0.524393 -0.422071
N13   N     N_3   0.517734 0.231621 0.641858 -0.415394
N14   N     N_3   0.956747 0.346439 0.524881 -0.421332
N15   N     N_3   0.958074 0.651315 0.522184 -0.420459
N16   N     N_3   0.414830 0.623427 0.429708 -0.425770
O1    O     O_3   0.749980 0.749980 0.500000 -0.489741
O2    O     O_R   0.612630 0.280380 0.456900 -0.607038
O3    O     O_R   0.112630 0.219620 0.456900 -0.633450
O4    O     O_R   0.112630 0.780380 0.456900 -0.630523
O5    O     O_R   0.698160 0.780350 0.335610 -0.612055
O6    O     O_R   0.698160 0.219650 0.335610 -0.613160
O7    O     O_R   0.198160 0.280350 0.335610 -0.611249
O8    O     O_R   0.198160 0.719650 0.335610 -0.610954
O9    O     O_R   0.801810 0.780340 0.664390 -0.632366
O10   O     O_R   0.801810 0.219660 0.664390 -0.642792
O11   O     O_R   0.301810 0.280340 0.664390 -0.631861
O12   O     O_3   0.749980 0.250020 0.500000 -0.491037
O13   O     O_R   0.301810 0.719660 0.664390 -0.632761
O14   O     O_R   0.637440 0.719620 0.335610 -0.645798
O15   O     O_R   0.637440 0.280380 0.335610 -0.629206
O16   O     O_R   0.137440 0.219620 0.335610 -0.645965
O17   O     O_R   0.137440 0.780380 0.335610 -0.647733
O18   O     O_R   0.862520 0.719620 0.664390 -0.633238
O19   O     O_R   0.862520 0.280380 0.664390 -0.633285
O20   O     O_R   0.362520 0.219620 0.664390 -0.639671
O21   O     O_R   0.362520 0.780380 0.664390 -0.633693
O22   O     O_R   0.844240 0.780350 0.456900 -0.609128
O23   O     O_3   0.249980 0.249980 0.500000 -0.488693
O24   O     O_R   0.844240 0.219650 0.456900 -0.652109
O25   O     O_R   0.344240 0.280350 0.456900 -0.619085
O26   O     O_R   0.344240 0.719650 0.456900 -0.651522
O27   O     O_R   0.655730 0.780340 0.543100 -0.652170
O28   O     O_R   0.655730 0.219660 0.543100 -0.663603
O29   O     O_R   0.155730 0.280340 0.543100 -0.651835
O30   O     O_R   0.155730 0.719660 0.543100 -0.654418
O31   O     O_R   0.758800 0.865790 0.456890 -0.617231
O32   O     O_R   0.758800 0.134210 0.456890 -0.628977
O33   O     O_R   0.258800 0.365790 0.456890 -0.623284
O34   O     O_3   0.249980 0.750020 0.500000 -0.489842
O35   O     O_R   0.258800 0.634210 0.456890 -0.629577
O36   O     O_R   0.698070 0.634180 0.456910 -0.634122
O37   O     O_R   0.698070 0.365820 0.456910 -0.634206
O38   O     O_R   0.198070 0.134180 0.456910 -0.634775
O39   O     O_R   0.198070 0.865820 0.456910 -0.635482
O40   O     O_R   0.741170 0.865780 0.543090 -0.657100
O41   O     O_R   0.741170 0.134220 0.543090 -0.648550
O42   O     O_R   0.241170 0.365780 0.543090 -0.656837
O43   O     O_R   0.241170 0.634220 0.543090 -0.655500
O44   O     O_R   0.801880 0.634180 0.543110 -0.651293
O45   O     O_R   0.887330 0.719620 0.543100 -0.662744
O46   O     O_R   0.801880 0.365820 0.543110 -0.644633
O47   O     O_R   0.301880 0.134180 0.543110 -0.645100
O48   O     O_R   0.301880 0.865820 0.543110 -0.642743
O49   O     O_R   0.887330 0.280380 0.543100 -0.618612
O50   O     O_R   0.387330 0.219620 0.543100 -0.666948
O51   O     O_R   0.387330 0.780380 0.543100 -0.620561
O52   O     O_R   0.612630 0.719620 0.456900 -0.632457
Zn1   Zn    Zn3+2 0.824140 0.706600 0.561580 0.968983
Zn2   Zn    Zn3+2 0.737390 0.206640 0.561570 0.956704
Zn3   Zn    Zn3+2 0.237390 0.293360 0.561570 0.970189
Zn4   Zn    Zn3+2 0.237390 0.706640 0.561570 0.971505
Zn5   Zn    Zn3+2 0.675820 0.706600 0.438430 0.983798
Zn6   Zn    Zn3+2 0.675820 0.293400 0.438430 0.999852
Zn7   Zn    Zn3+2 0.175820 0.206600 0.438430 0.987053
Zn8   Zn    Zn3+2 0.175820 0.793400 0.438430 0.985237
Zn9   Zn    Zn3+2 0.824140 0.293400 0.561580 0.980168
Zn10  Zn    Zn3+2 0.324140 0.206600 0.561580 0.969179
Zn11  Zn    Zn3+2 0.324140 0.793400 0.561580 0.990759
Zn12  Zn    Zn3+2 0.762580 0.793360 0.438420 1.013868
Zn13  Zn    Zn3+2 0.762580 0.206640 0.438420 0.993578
Zn14  Zn    Zn3+2 0.262580 0.293360 0.438420 1.008876
Zn15  Zn    Zn3+2 0.262580 0.706640 0.438420 0.989953
Zn16  Zn    Zn3+2 0.737390 0.793360 0.561570 0.973310

loop_
_geom_bond_atom_site_label_1
_geom_bond_atom_site_label_2
_ccdc_geom_bond_type
O40   Zn16  S    
C99   C103  A    
C55   C59   S    
H43   N9    S    
O36   Zn5   S    
C27   O37   A    
O20   Zn10  S    
O21   Zn11  S    
C133  I7    S    
O22   Zn12  S    
C124  C133  S    
C68   C81   S    
C49   O15   A    
C95   C99   A    
O42   Zn3   S    
C123  N3    S    
C63   C76   S    
C66   I3    S    
H57   N15   S    
O27   Zn16  S    
C42   H34   S    
H51   N13   S    
C28   O47   A    
C49   C51   S    
C12   C135  S    
C125  O22   A    
C75   H33   S    
C68   C90   S    
C78   O19   A    
C16   H13   S    
C112  C129  S    
C70   C84   S    
C59   C73   S    
C49   O6    A    
C19   O3    A    
C72   C94   S    
H44   N10   S    
C115  H17   S    
O52   Zn5   S    
C76   C83   S    
O9    Zn16  S    
C125  O45   A    
C43   C85   S    
C97   C132  S    
O16   Zn7   S    
C127  O49   A    
C44   C81   S    
C98   C102  A    
C62   C88   S    
O19   Zn9   S    
H48   N11   S    
C126  N5    S    
C67   C74   S    
C31   C82   S    
O5    Zn12  S    
C29   O48   A    
C78   O10   A    
C62   C75   S    
C29   O39   A    
C44   H25   S    
C53   C71   S    
C55   H36   S    
C1    O14   A    
C43   C61   S    
C23   O42   A    
C46   C77   S    
C35   C84   S    
C98   C120  A    
C124  H75   S    
C119  C123  S    
C61   C74   S    
C103  N1    S    
C33   C38   A    
C123  H67   S    
C104  H16   S    
O14   Zn5   S    
C1    O5    A    
C27   O46   A    
C23   O33   A    
C30   C31   A    
C132  I6    S    
O28   Zn2   S    
O29   Zn3   S    
H46   N10   S    
O30   Zn4   S    
O6    Zn13  S    
C13   C70   S    
C131  H2    S    
C24   C43   S    
C31   C36   A    
C52   C91   T    
H58   N16   S    
O24   Zn13  S    
C12   I8    S    
C129  O26   A    
C26   O36   A    
C83   H28   S    
C123  C132  S    
C33   C104  S    
O46   Zn9   S    
C121  C130  S    
C72   C85   S    
C19   O29   A    
C66   C70   S    
C95   C117  A    
C132  H3    S    
O12   Zn13  S    
C64   C68   S    
C13   C35   S    
C51   C90   T    
C60   O16   A    
C127  O24   A    
C3    C136  A    
C118  C122  S    
O17   Zn8   S    
C29   C38   S    
C95   C130  S    
C8    H5    S    
H52   N13   S    
C25   O43   A    
C2    C69   S    
C110  C114  A    
C26   O44   A    
C114  C119  A    
H61   N2    S    
C128  O50   A    
C67   I4    S    
C45   C83   S    
H50   N12   S    
C2    C45   S    
C30   C34   A    
C34   C39   A    
C93   H19   S    
O13   Zn4   S    
C39   C40   A    
C116  C120  A    
C47   C87   T    
C12   H9    S    
C97   C119  A    
C5    C9    A    
C58   C65   S    
C128  O25   A    
C63   C89   S    
C102  C107  A    
C32   C37   A    
C96   C131  S    
O1    Zn16  S    
C116  C125  S    
H66   N5    S    
O48   Zn11  S    
C16   C136  S    
C122  C131  S    
C67   C72   S    
O4    Zn8   S    
C4    C134  A    
C101  C106  A    
C5    C135  A    
C105  C109  A    
C106  N10   S    
C107  C111  A    
O25   Zn14  S    
C50   C80   S    
O33   Zn14  S    
C9    H6    S    
C110  N14   S    
C122  H56   S    
C134  C135  A    
O7    Zn14  S    
C71   O17   A    
C15   I10   S    
O18   Zn1   S    
C28   C37   S    
C96   C100  A    
C64   C75   S    
C74   C85   S    
C37   C41   A    
C10   C11   A    
C2    N6    S    
H41   N1    S    
O37   Zn6   S    
O35   Zn15  S    
C60   O7    A    
O3    Zn7   S    
H74   N8    S    
C47   C78   S    
C69   C91   S    
H47   N11   S    
C108  N12   S    
O49   Zn9   S    
C41   C42   A    
C14   I9    S    
C58   H39   S    
H54   N14   S    
C73   H31   S    
O51   Zn11  S    
O34   Zn11  S    
C74   H32   S    
C113  C128  S    
C98   C133  S    
C24   C72   S    
C65   C76   S    
C71   O8    A    
C48   C79   S    
C3    C7    A    
O1    Zn1   S    
C112  C117  A    
O26   Zn15  S    
C122  N2    S    
C64   I12   S    
C35   C59   S    
H64   N4    S    
H68   N5    S    
O34   Zn4   S    
C84   H29   S    
O47   Zn10  S    
C48   C88   T    
C111  C116  A    
O23   Zn7   S    
C18   O2    A    
C82   C93   S    
O31   Zn12  S    
H53   N14   S    
O34   Zn15  S    
C80   O13   A    
C40   H12   S    
O23   Zn10  S    
O32   Zn13  S    
O1    Zn5   S    
C108  C112  A    
H73   N8    S    
C45   H26   S    
O34   Zn8   S    
C104  C115  S    
C50   C89   T    
O38   Zn7   S    
O15   Zn6   S    
C17   C99   S    
O1    Zn12  S    
C93   H15   S    
C77   O9    A    
C85   H30   S    
C20   O30   A    
C55   C66   S    
H62   N3    S    
C21   O31   A    
C121  H45   S    
C22   O32   A    
C20   O4    A    
C79   O11   A    
C70   C92   S    
O23   Zn14  S    
C24   N8    S    
C6    C10   A    
C2    C58   S    
C17   O52   A    
C27   C36   S    
C121  N16   S    
C7    C25   S    
C56   H37   S    
O11   Zn3   S    
C32   C33   A    
C35   H22   S    
C65   I2    S    
C25   O35   A    
C15   H11   S    
C114  C127  S    
C65   C69   S    
C32   C115  S    
C1    C52   S    
H72   N7    S    
C57   H38   S    
H49   N12   S    
C133  H4    S    
C56   C61   S    
C16   I11   S    
O12   Zn9   S    
H63   N3    S    
C13   C55   S    
H65   N4    S    
C39   H1    S    
O10   Zn2   S    
H70   N6    S    
C130  H76   S    
C24   C56   S    
C4    C8    A    
C57   C62   S    
C54   C60   S    
C7    C11   A    
H40   N1    S    
C44   C126  S    
C100  C105  A    
C115  H21   S    
O12   Zn2   S    
C79   O20   A    
C96   C118  A    
C38   C42   A    
C30   C93   S    
C20   C102  S    
C15   C16   S    
C130  I1    S    
C117  C121  S    
C6    C136  A    
C41   H23   S    
C26   C34   S    
C5    C22   S    
C8    C9    A    
C103  C108  A    
O50   Zn10  S    
C61   C87   S    
C11   H8    S    
C73   C84   S    
C109  C113  A    
C81   H27   S    
H69   N6    S    
C18   C100  S    
C124  N4    S    
H55   N15   S    
H60   N2    S    
H59   N16   S    
C36   C40   A    
O12   Zn6   S    
C43   H24   S    
C21   O40   A    
C57   C126  S    
C75   C81   S    
C14   C134  S    
C44   C62   S    
C66   C73   S    
C45   C63   S    
C111  N15   S    
O39   Zn8   S    
C76   H35   S    
C69   C83   S    
O41   Zn2   S    
C13   N7    S    
O43   Zn4   S    
C53   C92   T    
C104  H20   S    
C82   H14   S    
O8    Zn15  S    
C12   C14   S    
C77   O18   A    
C68   C126  S    
C3    C15   S    
C57   C64   S    
C106  C110  A    
C58   C63   S    
O2    Zn6   S    
C107  N11   S    
O23   Zn3   S    
C105  N9    S    
C80   O21   A    
C22   O41   A    
H42   N9    S    
C28   O38   A    
C109  N13   S    
C56   C67   S    
C14   H10   S    
C131  I5    S    
C59   C86   S    
C17   O27   A    
C18   O28   A    
C4    C21   S    
C19   C101  S    
H71   N7    S    
O44   Zn1   S    
C6    C23   S    
C10   H7    S    
C54   C94   T    
C113  C118  A    
C82   H18   S    
C129  O51   A    
O45   Zn1   S    
C97   C101  A    
C120  C124  S    
C46   C86   T    
