data_mof_unit_18241.cif
_audit_creation_date              2012-12-11T16:13:45-0500
_audit_creation_method            fapswitch 2.2
_symmetry_space_group_name_H-M    P1
_symmetry_Int_Tables_number       1
_space_group_crystal_system       triclinic
_cell_length_a                    26.070541
_cell_length_b                    7.287098
_cell_length_c                    23.753678
_cell_angle_alpha                 90.000011
_cell_angle_beta                  101.297657
_cell_angle_gamma                 90.0
_cell_volume                      4425.24630238

loop_
_atom_site_label
_atom_site_type_symbol
_atom_type_description
_atom_site_fract_x
_atom_site_fract_y
_atom_site_fract_z
_atom_type_partial_charge
O1    O     O_R   0.192370 0.384760 0.193350 -0.536303
O2    O     O_R   0.807630 0.615240 0.806650 -0.536303
O3    O     O_R   0.307630 0.884760 0.306650 -0.536303
O4    O     O_R   0.692370 0.115240 0.693350 -0.536303
O5    O     O_R   0.296630 0.711620 0.196480 -0.517961
O6    O     O_R   0.703370 0.288380 0.803520 -0.517962
O7    O     O_R   0.203370 0.211620 0.303520 -0.517962
O8    O     O_R   0.796630 0.788380 0.696480 -0.517962
C1    C     C_R   0.313031 0.545780 0.185073 0.813678
C2    C     C_R   0.686969 0.454220 0.814927 0.813678
C3    C     C_R   0.186969 0.045780 0.314927 0.813678
C4    C     C_R   0.813031 0.954220 0.685073 0.813677
O9    O     O_R   0.192080 0.714290 0.186600 -0.521539
O10   O     O_R   0.807920 0.285710 0.813400 -0.521539
O11   O     O_R   0.307920 0.214290 0.313400 -0.521538
O12   O     O_R   0.692080 0.785710 0.686600 -0.521539
O13   O     O_R   0.202340 0.887460 0.296690 -0.527165
O14   O     O_R   0.797660 0.112540 0.703310 -0.527165
O15   O     O_R   0.297660 0.387460 0.203310 -0.527165
O16   O     O_R   0.702340 0.612540 0.796690 -0.527165
C5    C     C_R   0.173809 0.546319 0.171444 0.707793
C6    C     C_R   0.826191 0.453681 0.828556 0.707793
C7    C     C_R   0.326191 0.046319 0.328556 0.707793
C8    C     C_R   0.673809 0.953681 0.671444 0.707793
O17   O     O_3   0.253490 0.552180 0.286130 -0.375800
O18   O     O_3   0.746510 0.447820 0.713870 -0.375800
O19   O     O_3   0.246510 0.052180 0.213870 -0.375800
O20   O     O_3   0.753490 0.947820 0.786130 -0.375800
V1    V     V_3+5 0.249350 0.825920 0.243300 1.586597
V2    V     V_3+5 0.750650 0.174080 0.756700 1.586598
V3    V     V_3+5 0.250650 0.325920 0.256700 1.586598
V4    V     V_3+5 0.749350 0.674080 0.743300 1.586597
C9    C     C_3   0.538336 0.920462 0.477874 0.152964
C10   C     C_3   0.461664 0.079538 0.522126 0.152964
C11   C     C_3   0.961664 0.420462 0.022126 0.152964
C12   C     C_3   0.038336 0.579538 0.977874 0.152964
C13   C     C_3   0.511660 0.105064 0.458432 0.395299
C14   C     C_3   0.488340 0.894936 0.541568 0.395299
C15   C     C_3   0.988340 0.605064 0.041568 0.395299
C16   C     C_3   0.011660 0.394936 0.958432 0.395299
C17   C     C_1   0.371925 0.039614 0.374403 -0.103982
C18   C     C_1   0.628075 0.960386 0.625596 -0.103982
C19   C     C_1   0.128075 0.539614 0.125596 -0.103982
C20   C     C_1   0.871925 0.460386 0.874403 -0.103982
C21   C     C_3   0.484154 0.833524 0.478390 0.155498
C22   C     C_3   0.515846 0.166476 0.521609 0.155498
C23   C     C_3   0.015846 0.333524 0.021609 0.155498
C24   C     C_3   0.984154 0.666476 0.978390 0.155498
C25   C     C_3   0.457623 0.019238 0.458727 -0.157356
C26   C     C_3   0.542377 0.980762 0.541273 -0.157357
C27   C     C_3   0.042377 0.519238 0.041273 -0.157357
C28   C     C_3   0.957623 0.480762 0.958727 -0.157357
C29   C     C_1   0.410470 0.033392 0.412485 0.216401
C30   C     C_1   0.589530 0.966608 0.587515 0.216401
C31   C     C_1   0.089530 0.533392 0.087515 0.216401
C32   C     C_1   0.910470 0.466608 0.912485 0.216401
C33   C     C_R   0.896862 0.073471 0.661006 0.156423
C34   C     C_R   0.103138 0.926531 0.338993 0.156423
C35   C     C_R   0.603138 0.573471 0.838994 0.156423
C36   C     C_R   0.396862 0.426529 0.161006 0.156423
C37   C     C_R   0.933780 0.079192 0.624977 0.401248
C38   C     C_R   0.066219 0.920809 0.375023 0.401248
C39   C     C_R   0.566220 0.579192 0.875023 0.401248
C40   C     C_R   0.433780 0.420807 0.124976 0.401249
C41   C     C_R   0.924306 0.985208 0.571877 -0.277887
C42   C     C_R   0.075694 0.014792 0.428123 -0.277887
C43   C     C_R   0.575694 0.485208 0.928123 -0.277887
C44   C     C_R   0.424306 0.514792 0.071877 -0.277887
C45   C     C_R   0.877740 0.881259 0.556092 0.382981
C46   C     C_R   0.122260 0.118739 0.443908 0.382981
C47   C     C_R   0.622259 0.381259 0.943908 0.382980
C48   C     C_R   0.377740 0.618742 0.056092 0.382980
C49   C     C_R   0.841927 0.869047 0.593471 0.360405
C50   C     C_R   0.158073 0.130952 0.406529 0.360405
C51   C     C_R   0.658073 0.369046 0.906529 0.360406
C52   C     C_R   0.341927 0.630954 0.093471 0.360405
C53   C     C_R   0.851233 0.965274 0.646179 -0.328585
C54   C     C_R   0.148767 0.034726 0.353821 -0.328585
C55   C     C_R   0.648767 0.465274 0.853821 -0.328585
C56   C     C_R   0.351233 0.534726 0.146179 -0.328585
N1    N     N_R   0.975467 0.840913 0.506065 -0.228606
N2    N     N_R   0.024533 0.159087 0.493935 -0.228606
N3    N     N_R   0.524532 0.340912 0.993935 -0.228606
N4    N     N_R   0.475468 0.659088 0.006065 -0.228605
N5    N     N_R   0.010996 0.847892 0.472654 -0.221035
N6    N     N_R   0.989004 0.152108 0.527346 -0.221035
N7    N     N_R   0.489004 0.347891 0.027346 -0.221034
N8    N     N_R   0.510996 0.652109 0.972654 -0.221034
C57   C     C_R   0.036355 0.007006 0.465928 0.546544
C58   C     C_R   0.963645 0.992994 0.534071 0.546544
C59   C     C_R   0.463645 0.507006 0.034071 0.546543
C60   C     C_R   0.536355 0.492994 0.965928 0.546544
O21   O     O_3   0.519973 0.209097 0.410893 -0.503970
C61   C     C_3   0.569720 0.291820 0.423125 0.021375
H1    H     H_    0.601219 0.195443 0.442659 0.117555
H2    H     H_    0.569376 0.412097 0.451423 0.208056
H3    H     H_    0.579276 0.342223 0.382341 0.166346
O22   O     O_3   0.480027 0.790903 0.589107 -0.503970
C62   C     C_3   0.430280 0.708180 0.576875 0.021376
H4    H     H_    0.430624 0.587903 0.548577 0.208056
H5    H     H_    0.398781 0.804557 0.557341 0.117555
H6    H     H_    0.420724 0.657776 0.617659 0.166345
O23   O     O_3   0.980027 0.709097 0.089107 -0.503970
C63   C     C_3   0.930280 0.791820 0.076875 0.021376
H7    H     H_    0.898781 0.695443 0.057341 0.117555
H8    H     H_    0.930624 0.912097 0.048577 0.208055
H9    H     H_    0.920724 0.842224 0.117660 0.166346
O24   O     O_3   0.019973 0.290903 0.910893 -0.503970
C64   C     C_3   0.069720 0.208180 0.923125 0.021374
H10   H     H_    0.069375 0.087903 0.951423 0.208056
H11   H     H_    0.101219 0.304557 0.942659 0.117556
H12   H     H_    0.079276 0.157776 0.882340 0.166346
Br1   Br    Br    0.594212 0.804373 0.447685 -0.542132
Br2   Br    Br    0.405788 0.195627 0.552315 -0.542132
Br3   Br    Br    0.905788 0.304373 0.052315 -0.542132
Br4   Br    Br    0.094212 0.695627 0.947685 -0.542132
Br5   Br    Br    0.541067 0.393913 0.560001 -0.437924
Br6   Br    Br    0.458933 0.606086 0.439999 -0.437923
Br7   Br    Br    0.958933 0.893913 0.939999 -0.437923
Br8   Br    Br    0.041067 0.106087 0.060001 -0.437923
Br9   Br    Br    0.912319 0.206395 0.732615 -0.440610
Br10  Br    Br    0.087681 0.793608 0.267384 -0.440610
Br11  Br    Br    0.587681 0.706396 0.767385 -0.440610
Br12  Br    Br    0.412319 0.293603 0.232615 -0.440610
O25   O     O_3   0.978945 0.181436 0.641593 -0.509558
C65   C     C_3   0.018827 0.064941 0.670455 -0.079351
H13   H     H_    0.054616 0.148041 0.684994 0.161160
H14   H     H_    0.028682 0.955927 0.641557 0.107367
H15   H     H_    0.008018 0.001956 0.709204 0.161463
O26   O     O_3   0.021055 0.818567 0.358406 -0.509558
C66   C     C_3   0.981173 0.935063 0.329545 -0.079352
H16   H     H_    0.971318 0.044078 0.358443 0.107368
H17   H     H_    0.945384 0.851964 0.315005 0.161160
H18   H     H_    0.991982 0.998047 0.290795 0.161464
O27   O     O_3   0.521055 0.681436 0.858407 -0.509558
C67   C     C_3   0.481173 0.564943 0.829545 -0.079350
H19   H     H_    0.445384 0.648043 0.815006 0.161160
H20   H     H_    0.471318 0.455927 0.858443 0.107367
H21   H     H_    0.491982 0.501959 0.790795 0.161463
O28   O     O_3   0.478945 0.318563 0.141593 -0.509557
C68   C     C_3   0.518827 0.435056 0.170455 -0.079351
H22   H     H_    0.528682 0.544072 0.141557 0.107367
H23   H     H_    0.554616 0.351956 0.184994 0.161160
H24   H     H_    0.508018 0.498040 0.209205 0.161464
O29   O     O_3   0.867064 0.784638 0.504924 -0.509741
C69   C     C_3   0.849818 0.907422 0.458999 -0.138704
H25   H     H_    0.825839 0.023282 0.470393 0.094477
H26   H     H_    0.825044 0.830356 0.423497 0.162816
H27   H     H_    0.883542 0.963052 0.442326 0.144259
O30   O     O_3   0.132936 0.215360 0.495076 -0.509742
C70   C     C_3   0.150182 0.092575 0.541001 -0.138705
H28   H     H_    0.174956 0.169639 0.576503 0.162816
H29   H     H_    0.174160 0.976713 0.529607 0.094477
H30   H     H_    0.116457 0.036947 0.557674 0.144259
O31   O     O_3   0.632936 0.284637 0.995075 -0.509741
C71   C     C_3   0.650182 0.407420 0.041001 -0.138703
H31   H     H_    0.674160 0.523282 0.029607 0.094476
H32   H     H_    0.674956 0.330354 0.076503 0.162815
H33   H     H_    0.616457 0.463048 0.057674 0.144258
O32   O     O_3   0.367064 0.715364 0.004925 -0.509741
C72   C     C_3   0.349818 0.592581 0.958999 -0.138705
H34   H     H_    0.325044 0.669648 0.923497 0.162816
H35   H     H_    0.325839 0.476720 0.970393 0.094477
H36   H     H_    0.383542 0.536951 0.942326 0.144259
O33   O     O_3   0.799205 0.753211 0.579489 -0.522382
C73   C     C_3   0.754959 0.856155 0.553651 -0.132781
H37   H     H_    0.748660 0.979358 0.579155 0.069539
H38   H     H_    0.719781 0.768160 0.550479 0.176694
H39   H     H_    0.757769 0.897202 0.509402 0.146432
O34   O     O_3   0.200795 0.246787 0.420512 -0.522382
C74   C     C_3   0.245041 0.143841 0.446349 -0.132780
H40   H     H_    0.280219 0.231835 0.449522 0.176694
H41   H     H_    0.251340 0.020639 0.420845 0.069540
H42   H     H_    0.242230 0.102791 0.490598 0.146431
O35   O     O_3   0.700795 0.253211 0.920511 -0.522382
C75   C     C_3   0.745041 0.356155 0.946349 -0.132779
H43   H     H_    0.751340 0.479357 0.920845 0.069539
H44   H     H_    0.780219 0.268159 0.949522 0.176694
H45   H     H_    0.742230 0.397204 0.990598 0.146430
O36   O     O_3   0.299205 0.746790 0.079489 -0.522382
C76   C     C_3   0.254959 0.643847 0.053651 -0.132779
H46   H     H_    0.219781 0.731842 0.050479 0.176694
H47   H     H_    0.248660 0.520643 0.079154 0.069539
H48   H     H_    0.257769 0.602801 0.009402 0.146432

loop_
_geom_bond_atom_site_label_1
_geom_bond_atom_site_label_2
_ccdc_geom_bond_type
C21   Br6   S    
C34   C38   A    
C16   C23   S    
N3    N7    A    
C74   H40   S    
O1    C5    A    
O33   C73   S    
N7    C59   A    
O19   V1    S    
C8    C18   S    
C38   O26   S    
O3    C7    A    
C46   O30   S    
C14   O22   S    
C66   H18   S    
C11   C23   S    
C63   H8    S    
O29   C69   S    
O27   C67   S    
C27   C31   S    
C76   H46   S    
O7    C3    A    
N3    C60   A    
C74   H41   S    
C65   H13   S    
N2    C57   A    
C40   C44   A    
O9    V1    S    
C71   H31   S    
C68   H23   S    
C40   O28   S    
O4    C8    A    
C25   C29   S    
O34   C74   S    
O1    V3    S    
C44   C59   S    
O13   V1    S    
O24   C64   S    
O2    V4    S    
C70   H30   S    
C33   C37   A    
O3    V1    S    
C46   C50   A    
C14   C21   S    
O23   C63   S    
C15   C27   S    
C5    C19   S    
C1    O15   A    
C75   H45   S    
C6    C20   S    
C48   O32   S    
C62   H4    S    
C2    O16   A    
O2    C6    A    
C70   H28   S    
C45   C49   A    
C7    C17   S    
C10   C22   S    
N4    C59   A    
C24   Br7   S    
O5    V1    S    
C44   C48   A    
C16   O24   S    
O11   C7    A    
O25   C65   S    
O15   V3    S    
O12   C8    A    
C73   H38   S    
O10   V2    S    
C67   H21   S    
C13   O21   S    
C63   H7    S    
C72   H35   S    
C72   H34   S    
C42   C57   S    
C69   H26   S    
C76   H47   S    
C35   Br11  S    
C41   C58   S    
C74   H42   S    
C39   C43   A    
C34   Br10  S    
O7    V3    S    
C38   C42   A    
C51   O35   S    
O8    V4    S    
C33   C53   A    
C12   C16   S    
O28   C68   S    
C67   H20   S    
N6    C58   A    
C68   H24   S    
C35   C55   A    
N5    C57   A    
O18   V4    S    
C23   C27   S    
C61   H3    S    
C52   O36   S    
C9    C26   S    
C16   C28   S    
C33   Br9   S    
C9    C13   S    
C22   Br5   S    
C1    C56   S    
C39   O27   S    
C11   C15   S    
O5    C1    A    
C9    C21   S    
C3    C54   S    
C69   H27   S    
C13   C25   S    
C20   C32   T    
C45   O29   S    
O35   C75   S    
C21   C25   S    
O8    C4    A    
C10   Br2   S    
C47   O31   S    
C4    C53   S    
O9    C5    A    
C48   C52   A    
O21   C61   S    
N8    C60   A    
C61   H2    S    
C17   C29   T    
C12   C27   S    
O14   V2    S    
N1    C58   A    
C19   C31   T    
C23   Br8   S    
O6    V2    S    
C49   O33   S    
C73   H37   S    
C64   H12   S    
C36   Br12  S    
C66   H16   S    
C12   Br4   S    
C11   C28   S    
C72   H36   S    
O36   C76   S    
C69   H25   S    
O16   V4    S    
C76   H48   S    
C36   C56   A    
C10   C25   S    
C65   H14   S    
C62   H5    S    
C10   C14   S    
C9    Br1   S    
O17   V3    S    
C71   H33   S    
C52   C56   A    
C67   H19   S    
C66   H17   S    
C3    O13   A    
O6    C2    A    
C2    C55   S    
O11   V3    S    
C14   C26   S    
O12   V4    S    
C22   C26   S    
C35   C39   A    
C65   H15   S    
C36   C40   A    
O32   C72   S    
O10   C6    A    
C64   H11   S    
O26   C66   S    
O20   V2    S    
C26   C30   S    
N2    N6    A    
C64   H10   S    
C18   C30   T    
C47   C51   A    
C42   C46   A    
N4    N8    A    
C41   C45   A    
C71   H32   S    
C43   C60   S    
C12   C24   S    
C43   C47   A    
C70   H29   S    
C61   H1    S    
O4    V2    S    
C50   O34   S    
C34   C54   A    
C75   H43   S    
C37   C41   A    
C24   C28   S    
C62   H6    S    
C11   Br3   S    
C73   H39   S    
O22   C62   S    
C50   C54   A    
C4    O14   A    
O31   C71   S    
C15   O23   S    
C49   C53   A    
O30   C70   S    
C15   C24   S    
C37   O25   S    
C13   C22   S    
C68   H22   S    
C51   C55   A    
C63   H9    S    
N1    N5    A    
C28   C32   S    
C75   H44   S    
