data_mof_unit_9926.cif
_audit_creation_date              2012-12-10T18:51:35-0500
_audit_creation_method            fapswitch 2.2
_symmetry_space_group_name_H-M    P1
_symmetry_Int_Tables_number       1
_space_group_crystal_system       triclinic
_cell_length_a                    10.595241
_cell_length_b                    10.003435
_cell_length_c                    10.470007
_cell_angle_alpha                 90.663935
_cell_angle_beta                  91.596685
_cell_angle_gamma                 90.107815
_cell_volume                      1109.19548802

loop_
_atom_site_label
_atom_site_type_symbol
_atom_type_description
_atom_site_fract_x
_atom_site_fract_y
_atom_site_fract_z
_atom_type_partial_charge
C1    C     C_R   0.871662 0.500025 0.499327 -0.096169
C2    C     C_3   0.515423 0.373248 0.038384 -0.151477
C3    C     C_3   0.403900 0.423347 0.954062 -0.168253
C4    C     C_3   0.595132 0.576836 0.045781 -0.180073
C5    C     C_3   0.498565 0.502295 0.877385 0.035779
C6    C     C_3   0.500547 0.497834 0.122524 0.037813
C7    C     C_R   0.567990 0.072195 0.590552 0.139005
C8    C     C_R   0.432021 0.927806 0.409438 0.140400
C9    C     C_R   0.431657 0.069712 0.409787 0.130236
C10   C     C_R   0.568332 0.930290 0.590220 0.131271
C11   C     C_R   0.062606 0.459565 0.388247 0.052785
C12   C     C_R   0.128493 0.499772 0.499706 -0.083307
C13   C     C_R   0.937611 0.540338 0.610962 0.031135
C14   C     C_R   0.932106 0.459488 0.387746 0.022941
C15   C     C_R   0.068766 0.540380 0.611065 0.024297
C16   C     C_R   0.261014 0.499905 0.499630 0.958760
C17   C     C_R   0.739030 0.500046 0.499747 0.915067
C18   C     C_R   0.500372 0.499221 0.257775 0.852435
C19   C     C_R   0.499239 0.500799 0.742190 0.883472
C20   C     C_3   0.389118 0.547787 0.040911 -0.180875
C21   C     C_3   0.609953 0.452373 0.959013 -0.186525
C22   C     C_3   0.483625 0.626885 0.961484 -0.142173
H1    H     H_    0.325952 0.361346 0.911916 0.136306
H2    H     H_    0.426049 0.823570 0.242530 0.207368
H3    H     H_    0.303068 0.207428 0.349315 0.236775
H4    H     H_    0.422312 0.174688 0.246198 0.202119
H5    H     H_    0.696863 0.792548 0.650702 0.237263
H6    H     H_    0.577646 0.825339 0.753831 0.202626
H7    H     H_    0.102506 0.324133 0.249887 0.204505
H8    H     H_    0.101626 0.485187 0.201798 0.189434
H9    H     H_    0.895752 0.675940 0.749194 0.186150
H10   H     H_    0.896536 0.514423 0.797336 0.173974
H11   H     H_    0.807079 0.337622 0.292674 0.206039
H12   H     H_    0.672869 0.639403 0.087479 0.133007
H13   H     H_    0.803154 0.499732 0.246715 0.169657
H14   H     H_    0.119199 0.677173 0.748108 0.190459
H15   H     H_    0.119989 0.516063 0.797817 0.173105
H16   H     H_    0.299411 0.586542 0.079123 0.128706
H17   H     H_    0.699676 0.413623 0.920831 0.134448
H18   H     H_    0.469188 0.730475 0.927486 0.133840
H19   H     H_    0.529891 0.269652 0.072342 0.133742
H20   H     H_    0.692424 0.214980 0.655199 0.231171
H21   H     H_    0.574030 0.176464 0.757444 0.207981
H22   H     H_    0.307643 0.784993 0.344737 0.229767
N1    N     N_R   0.500000 0.857200 0.500000 -0.146007
N2    N     N_3   0.142452 0.579093 0.722811 -0.465891
N3    N     N_R   0.500000 0.142800 0.500000 -0.146611
N4    N     N_3   0.637429 0.138923 0.691652 -0.447268
N5    N     N_3   0.362622 0.861078 0.308311 -0.447214
N6    N     N_3   0.360132 0.133902 0.310447 -0.446380
N7    N     N_3   0.639835 0.866099 0.689573 -0.447146
N8    N     N_3   0.129292 0.421552 0.275941 -0.481220
N9    N     N_3   0.870259 0.578258 0.722943 -0.481354
N10   N     N_3   0.862643 0.421005 0.273331 -0.473532
O1    O     O_R   0.316770 0.614620 0.499990 -0.625734
O2    O     O_R   0.683230 0.385380 0.500010 -0.640787
O3    O     O_R   0.683230 0.614620 0.500010 -0.621520
O4    O     O_R   0.316770 0.385380 0.499990 -0.626525
O5    O     O_R   0.499970 0.614650 0.313950 -0.640951
O6    O     O_R   0.500030 0.385350 0.686050 -0.639638
O7    O     O_R   0.500030 0.614650 0.686050 -0.632913
O8    O     O_R   0.499970 0.385350 0.313950 -0.640665
Zn1   Zn    Zn3+2 0.500000 0.653120 0.500000 0.922164
Zn2   Zn    Zn3+2 0.500000 0.346880 0.500000 0.914208

loop_
_geom_bond_atom_site_label_1
_geom_bond_atom_site_label_2
_ccdc_geom_bond_type
H22   N5    S    
C7    C10   A    
O8    Zn2   S    
C11   C12   A    
O2    Zn2   S    
H14   N2    S    
C5    C19   S    
C19   O6    A    
C1    C14   A    
C20   H16   S    
H21   N4    S    
C18   O5    A    
C1    C17   S    
C21   H17   S    
C12   C15   A    
O6    Zn2   S    
H11   N10   S    
C22   H18   S    
C7    N4    S    
C2    C21   S    
C13   C15   A    
C2    C3    S    
C16   O1    A    
C5    C21   S    
C3    C20   S    
C16   O4    A    
H9    N9    S    
H13   N10   S    
C4    C21   S    
C17   O2    A    
C2    C6    S    
C6    C20   S    
C19   O7    A    
C10   N7    S    
O1    Zn1   S    
C11   C14   A    
H5    N7    S    
O3    Zn1   S    
C13   N9    S    
H4    N6    S    
O4    Zn2   S    
C6    C18   S    
H6    N7    S    
C4    H12   S    
C9    N3    A    
C1    C13   A    
C5    C22   S    
C2    H19   S    
H10   N9    S    
H2    N5    S    
C4    C22   S    
C4    C6    S    
C10   N1    A    
C17   O3    A    
N3    Zn2   S    
O7    Zn1   S    
C3    H1    S    
H8    N8    S    
H3    N6    S    
C18   O8    A    
H20   N4    S    
C11   N8    S    
C15   N2    S    
C14   N10   S    
H15   N2    S    
C8    N1    A    
O5    Zn1   S    
C8    N5    S    
N1    Zn1   S    
C9    N6    S    
C12   C16   S    
C20   C22   S    
C8    C9    A    
C3    C5    S    
H7    N8    S    
C7    N3    A    
