data_mof_unit_27115.cif
_audit_creation_date              2012-12-10T19:48:42-0500
_audit_creation_method            fapswitch 2.2
_symmetry_space_group_name_H-M    P1
_symmetry_Int_Tables_number       1
_space_group_crystal_system       triclinic
_cell_length_a                    26.035979
_cell_length_b                    25.946146
_cell_length_c                    22.200011
_cell_angle_alpha                 90.050113
_cell_angle_beta                  54.239512
_cell_angle_gamma                 90.060325
_cell_volume                      12169.439371

loop_
_atom_site_label
_atom_site_type_symbol
_atom_type_description
_atom_site_fract_x
_atom_site_fract_y
_atom_site_fract_z
_atom_type_partial_charge
C1    C     C_R   0.849478 0.750123 0.301134 0.825770
C2    C     C_R   0.446251 0.252781 0.499537 -0.106602
C3    C     C_R   0.302660 0.973456 0.441834 0.008158
C4    C     C_R   0.748514 0.554096 0.495583 -0.101752
C5    C     C_R   0.748509 0.445880 0.495509 -0.100386
C6    C     C_R   0.248508 0.054108 0.495369 -0.102197
C7    C     C_R   0.248608 0.945901 0.495517 -0.102726
C8    C     C_R   0.691799 0.526867 0.544100 -0.189137
C9    C     C_R   0.691799 0.473063 0.544078 -0.193033
C10   C     C_R   0.191615 0.026872 0.542921 -0.192307
C11   C     C_R   0.191662 0.973067 0.542974 -0.191553
C12   C     C_3   0.869322 0.470430 0.415495 0.213742
C13   C     C_R   0.943545 0.251994 0.504369 -0.146006
C14   C     C_3   0.869332 0.529525 0.415675 0.213594
C15   C     C_3   0.369125 0.970762 0.419042 0.223184
C16   C     C_3   0.369072 0.029820 0.418564 0.204194
C17   C     C_R   0.751509 0.889906 0.498852 0.878996
C18   C     C_R   0.750742 0.110009 0.499455 0.866195
C19   C     C_R   0.251272 0.389973 0.499130 0.860507
C20   C     C_R   0.251710 0.610073 0.498683 0.855152
C21   C     C_R   0.889211 0.749098 0.501658 0.846516
C22   C     C_R   0.889259 0.250878 0.501574 0.846685
C23   C     C_R   0.389797 0.249923 0.500796 0.865913
C24   C     C_R   0.943392 0.747812 0.504625 -0.144617
C25   C     C_R   0.389331 0.750760 0.501464 0.844807
C26   C     C_R   0.610042 0.750172 0.500089 0.874981
C27   C     C_R   0.610099 0.250003 0.499752 0.872734
C28   C     C_R   0.110086 0.250089 0.499986 0.878642
C29   C     C_R   0.110099 0.749897 0.499929 0.877999
C30   C     C_R   0.553762 0.771049 0.444056 -0.013729
C31   C     C_R   0.555763 0.229738 0.440207 -0.003949
C32   C     C_R   0.054478 0.268937 0.442575 -0.005922
C33   C     C_R   0.054422 0.731192 0.442426 -0.005989
C34   C     C_R   0.553538 0.751517 0.502351 -0.116233
C35   C     C_R   0.501609 0.770401 0.444518 -0.111418
C36   C     C_R   0.555843 0.252496 0.497142 -0.095478
C37   C     C_R   0.053637 0.251318 0.502109 -0.102996
C38   C     C_R   0.053602 0.748529 0.502119 -0.100040
C39   C     C_R   0.495628 0.733079 0.564879 -0.266404
C40   C     C_R   0.502484 0.281033 0.551148 -0.240009
C41   C     C_R   0.995165 0.234829 0.565757 -0.249769
C42   C     C_R   0.995055 0.764613 0.566066 -0.255786
C43   C     C_R   0.440332 0.853214 0.083838 0.121791
C44   C     C_R   0.445922 0.884868 0.131464 -0.123990
C45   C     C_R   0.404295 0.925947 0.169465 -0.085670
C46   C     C_R   0.502460 0.229702 0.441568 -0.155721
C47   C     C_R   0.356295 0.936043 0.160932 -0.123542
C48   C     C_R   0.350099 0.905325 0.113937 -0.099400
C49   C     C_R   0.391743 0.864336 0.075473 -0.141467
C50   C     C_R   0.419226 0.155895 0.086285 0.130146
C51   C     C_R   0.416870 0.119754 0.135341 -0.124827
C52   C     C_R   0.365429 0.086295 0.176704 -0.111758
C53   C     C_R   0.315566 0.088208 0.169767 -0.119573
C54   C     C_R   0.317138 0.123511 0.121329 -0.081004
C55   C     C_R   0.368457 0.157131 0.079790 -0.141010
C56   C     C_R   0.918787 0.344028 0.084706 0.124084
C57   C     C_R   0.002229 0.268558 0.443176 -0.118579
C58   C     C_R   0.915691 0.380204 0.134249 -0.126560
C59   C     C_R   0.864316 0.413797 0.174703 -0.100533
C60   C     C_R   0.815287 0.412034 0.166287 -0.127915
C61   C     C_R   0.817584 0.376688 0.117357 -0.106232
C62   C     C_R   0.868793 0.342891 0.076814 -0.140900
C63   C     C_R   0.879960 0.684757 0.083040 0.136039
C64   C     C_R   0.855953 0.643573 0.134136 -0.147282
C65   C     C_R   0.792535 0.628715 0.172993 -0.120421
C66   C     C_R   0.751998 0.654512 0.161454 -0.041041
C67   C     C_R   0.774824 0.695202 0.110992 -0.070946
C68   C     C_R   0.002052 0.731429 0.443295 -0.120214
C69   C     C_R   0.838221 0.710267 0.071940 -0.151168
C70   C     C_R   0.469675 0.671095 0.930342 0.184403
C71   C     C_R   0.456058 0.626980 0.975181 -0.088969
C72   C     C_R   0.459293 0.577362 0.948504 -0.092728
C73   C     C_R   0.476658 0.570221 0.876664 -0.113396
C74   C     C_R   0.492007 0.612601 0.830676 -0.117024
C75   C     C_R   0.488810 0.662287 0.856868 -0.047193
C76   C     C_R   0.498449 0.345079 0.931915 0.184861
C77   C     C_R   0.495650 0.384369 0.978347 -0.103347
C78   C     C_R   0.518355 0.434000 0.951127 -0.084384
C79   C     C_3   0.535344 0.792397 0.367731 0.228396
C80   C     C_R   0.544332 0.445955 0.877439 -0.108088
C81   C     C_R   0.546843 0.408544 0.830843 -0.134473
C82   C     C_R   0.524157 0.358892 0.857565 -0.050433
C83   C     C_R   0.994267 0.155234 0.931267 0.184816
C84   C     C_R   0.990886 0.115142 0.976976 -0.098419
C85   C     C_R   0.008817 0.064722 0.950309 -0.084991
C86   C     C_R   0.030755 0.052851 0.877778 -0.099942
C87   C     C_R   0.035447 0.091432 0.831306 -0.129615
C88   C     C_R   0.017618 0.141870 0.857449 -0.051598
C89   C     C_R   0.040000 0.852616 0.931597 0.189204
C90   C     C_3   0.518866 0.179361 0.400356 0.242544
C91   C     C_R   0.051991 0.880016 0.977613 -0.104869
C92   C     C_R   0.091325 0.923372 0.951377 -0.095233
C93   C     C_R   0.120243 0.940348 0.878838 -0.106076
C94   C     C_R   0.110116 0.913917 0.832058 -0.160133
C95   C     C_R   0.070674 0.870710 0.857865 -0.058740
C96   C     C_R   0.590097 0.050616 0.574753 0.182044
C97   C     C_R   0.531414 0.046382 0.585495 -0.045909
C98   C     C_R   0.477020 0.068406 0.647655 -0.092000
C99   C     C_R   0.480580 0.095038 0.699773 -0.095245
C100  C     C_R   0.538466 0.099391 0.690000 -0.163802
C101  C     C_3   0.036606 0.288846 0.365385 0.225553
C102  C     C_R   0.592939 0.077138 0.628185 -0.163501
C103  C     C_R   0.600580 0.937591 0.570365 0.146937
C104  C     C_R   0.592170 0.942814 0.638900 -0.130937
C105  C     C_R   0.546831 0.913243 0.700088 -0.155550
C106  C     C_R   0.509612 0.878055 0.693722 -0.099517
C107  C     C_R   0.517427 0.872584 0.626216 -0.148534
C108  C     C_R   0.562567 0.902199 0.564912 -0.142891
C109  C     C_R   0.111355 0.557348 0.514089 0.178331
C110  C     C_R   0.070679 0.564105 0.492504 -0.084838
C111  C     C_R   0.015024 0.592786 0.536374 -0.085385
C112  C     C_R   0.849585 0.249804 0.301091 0.816803
C113  C     C_3   0.036282 0.712106 0.365061 0.225688
C114  C     C_R   0.999201 0.614940 0.602502 -0.120594
C115  C     C_R   0.038617 0.607898 0.625295 -0.171195
C116  C     C_R   0.094243 0.579037 0.581762 -0.128017
C117  C     C_R   0.109432 0.444570 0.519967 0.175058
C118  C     C_R   0.091047 0.430473 0.591404 -0.141954
C119  C     C_R   0.033794 0.404718 0.640374 -0.161693
C120  C     C_R   0.994254 0.392873 0.618966 -0.116777
C121  C     C_R   0.011509 0.407319 0.548843 -0.101409
C122  C     C_R   0.068551 0.433273 0.499827 -0.092408
C123  C     C_R   0.539035 0.758230 0.309386 0.129542
C124  C     C_3   0.595777 0.791933 0.367055 0.600858
C125  C     C_R   0.511375 0.708746 0.325641 -0.125403
C126  C     C_R   0.515798 0.679095 0.270181 -0.132456
C127  C     C_R   0.548160 0.698016 0.197879 -0.127093
C128  C     C_R   0.576335 0.746658 0.180753 -0.167038
C129  C     C_R   0.572006 0.776518 0.236001 -0.025363
C130  C     C_R   0.529173 0.181455 0.325414 0.123094
C131  C     C_R   0.515829 0.225750 0.299982 -0.083274
C132  C     C_R   0.524065 0.225153 0.231819 -0.108423
C133  C     C_R   0.545643 0.180630 0.188264 -0.110559
C134  C     C_R   0.559611 0.136725 0.212417 -0.071568
C135  C     C_3   0.580150 0.180495 0.397097 0.604826
C136  C     C_R   0.551504 0.137086 0.280461 0.015201
C137  C     C_R   0.038875 0.254278 0.308386 0.126057
C138  C     C_R   0.006857 0.206627 0.326853 -0.111135
C139  C     C_R   0.009915 0.176850 0.272309 -0.124417
C140  C     C_R   0.045494 0.193711 0.198748 -0.121329
C141  C     C_R   0.078259 0.240367 0.179501 -0.139270
C142  C     C_R   0.074886 0.270509 0.233879 -0.018193
C143  C     C_R   0.037458 0.747554 0.309512 0.123994
C144  C     C_R   0.006304 0.795649 0.329534 -0.114529
C145  C     C_R   0.007626 0.826054 0.276676 -0.122469
C146  C     C_3   0.097247 0.287189 0.364240 0.598496
C147  C     C_R   0.040566 0.809395 0.203192 -0.121104
C148  C     C_R   0.072594 0.762372 0.182271 -0.129813
C149  C     C_R   0.071123 0.731664 0.234961 -0.016094
C150  C     C_R   0.579501 0.844815 0.914050 0.131124
C151  C     C_R   0.585548 0.879129 0.860905 -0.140012
C152  C     C_R   0.637850 0.911817 0.820137 -0.125142
C153  C     C_R   0.685011 0.911023 0.831734 -0.072633
C154  C     C_R   0.679925 0.877515 0.884115 -0.085353
C155  C     C_R   0.627733 0.844624 0.925061 -0.143496
C156  C     C_R   0.554715 0.149300 0.914953 0.134050
C157  C     C_3   0.097080 0.713735 0.363608 0.598857
C158  C     C_R   0.549489 0.120682 0.864651 -0.145242
C159  C     C_R   0.590574 0.079784 0.824271 -0.138943
C160  C     C_R   0.637452 0.066531 0.833507 -0.081200
C161  C     C_R   0.643195 0.094050 0.883303 -0.087326
C162  C     C_R   0.602291 0.135048 0.923849 -0.136251
C163  C     C_R   0.057289 0.348942 0.913269 0.128884
C164  C     C_R   0.056686 0.375251 0.858037 -0.139905
C165  C     C_R   0.100981 0.413749 0.815149 -0.136404
C166  C     C_R   0.146214 0.427223 0.827100 -0.085890
C167  C     C_R   0.147503 0.401902 0.881621 -0.087207
C168  C     C_3   0.464728 0.727363 0.957595 0.291990
C169  C     C_R   0.103717 0.362923 0.924268 -0.137743
C170  C     C_R   0.014811 0.653819 0.914573 0.125669
C171  C     C_R   0.006457 0.640138 0.859242 -0.143792
C172  C     C_R   0.032155 0.594572 0.818649 -0.137367
C173  C     C_R   0.066557 0.561792 0.832434 -0.092174
C174  C     C_R   0.074909 0.574240 0.887296 -0.092283
C175  C     C_R   0.049321 0.619750 0.928204 -0.136586
C176  C     C_3   0.477048 0.288438 0.957669 0.291793
C177  C     C_3   0.974719 0.212006 0.957651 0.293967
C178  C     C_3   0.996452 0.804283 0.957643 0.296768
C179  C     C_3   0.521252 0.809346 0.956662 -0.252828
C180  C     C_R   0.349595 0.250189 0.301146 0.824050
C181  C     C_3   0.508412 0.194070 0.957625 -0.255074
C182  C     C_3   0.008891 0.305539 0.956699 -0.254774
C183  C     C_3   0.986873 0.705124 0.956262 -0.256098
C184  C     C_3   0.487342 0.808751 0.042788 -0.175518
C185  C     C_3   0.476024 0.192576 0.043333 -0.177870
C186  C     C_3   0.975509 0.307241 0.042694 -0.177869
C187  C     C_3   0.949695 0.700282 0.042729 -0.173474
C188  C     C_1   0.388226 0.750979 0.221846 -0.090180
C189  C     C_1   0.389660 0.250405 0.221982 -0.105961
C190  C     C_1   0.889218 0.249787 0.221869 -0.095254
C191  C     C_R   0.349431 0.749989 0.301076 0.828218
C192  C     C_1   0.888839 0.750042 0.221945 -0.090159
C193  C     C_3   0.532232 0.752021 0.926364 0.082370
C194  C     C_3   0.535578 0.250204 0.926596 0.074948
C195  C     C_3   0.034328 0.249018 0.926411 0.080247
C196  C     C_3   0.035590 0.751683 0.926550 0.078623
C197  C     C_R   0.650380 0.750258 0.698877 0.823169
C198  C     C_R   0.650525 0.249810 0.698881 0.818039
C199  C     C_R   0.150559 0.250046 0.698871 0.814396
C200  C     C_R   0.150595 0.749959 0.698876 0.807976
C201  C     C_3   0.421719 0.733522 0.044840 -0.404784
C202  C     C_R   0.440629 0.733579 0.566887 0.402717
C203  C     C_3   0.431618 0.281420 0.044595 -0.407696
C204  C     C_3   0.929781 0.218732 0.044723 -0.410500
C205  C     C_3   0.948472 0.799183 0.044684 -0.415191
C206  C     C_3   0.460222 0.753358 0.073580 0.143859
C207  C     C_3   0.463305 0.249230 0.073785 0.142009
C208  C     C_3   0.961942 0.250683 0.073579 0.145070
C209  C     C_3   0.961300 0.749874 0.073702 0.147946
C210  C     C_3   0.517582 0.716688 0.043090 -0.495813
C211  C     C_3   0.528778 0.273845 0.043143 -0.494364
C212  C     C_3   0.026896 0.225386 0.043182 -0.495284
C213  C     C_R   0.447824 0.281342 0.553250 0.402878
C214  C     C_3   0.032206 0.750151 0.043949 -0.499371
C215  C     C_3   0.563888 0.721252 0.957439 0.196738
C216  C     C_3   0.574005 0.267188 0.957506 0.202984
C217  C     C_3   0.072203 0.231205 0.957544 0.199429
C218  C     C_3   0.075402 0.744440 0.958219 0.198739
C219  C     C_1   0.420716 0.752147 0.155166 -0.031501
C220  C     C_1   0.423298 0.250146 0.155321 -0.040127
C221  C     C_1   0.922277 0.250038 0.155175 -0.033915
C222  C     C_1   0.921637 0.749961 0.155272 -0.033160
C223  C     C_1   0.574401 0.751966 0.844623 0.027188
C224  C     C_R   0.940167 0.235426 0.567720 0.398055
C225  C     C_1   0.577021 0.249447 0.844801 0.035900
C226  C     C_1   0.076197 0.249493 0.844661 0.031224
C227  C     C_1   0.077290 0.750909 0.844766 0.033164
C228  C     C_1   0.609422 0.751455 0.777987 -0.089150
C229  C     C_1   0.610762 0.249330 0.778084 -0.087037
C230  C     C_1   0.110539 0.250065 0.778003 -0.087675
C231  C     C_1   0.111033 0.750162 0.778068 -0.081173
C232  C     C_R   0.710929 0.973526 0.495169 0.003388
C233  C     C_R   0.708453 0.025426 0.498842 -0.022412
C234  C     C_R   0.217859 0.474112 0.483344 -0.007470
C235  C     C_R   0.940005 0.764042 0.568111 0.396210
C236  C     C_R   0.218086 0.525982 0.482987 -0.008503
C237  C     C_R   0.755495 0.945331 0.495841 -0.216634
C238  C     C_R   0.753939 0.054427 0.497445 -0.223430
C239  C     C_R   0.254736 0.445511 0.497314 -0.235147
C240  C     C_R   0.255204 0.554583 0.496666 -0.232218
C241  C     C_R   0.803067 0.972791 0.494893 0.312033
C242  C     C_R   0.802652 0.027500 0.494982 0.320228
C243  C     C_R   0.294845 0.472793 0.510216 0.315037
C244  C     C_R   0.295077 0.527358 0.509884 0.315397
C245  C     C_R   0.749923 0.609873 0.499754 0.818065
C246  C     C_R   0.443498 0.751901 0.504518 -0.145584
C247  C     C_R   0.749935 0.390122 0.499716 0.814139
C248  C     C_R   0.249908 0.109876 0.499702 0.828938
C249  C     C_R   0.249950 0.890129 0.499749 0.817358
C250  C     C_3   0.648006 0.027567 0.504607 -0.194157
C251  C     C_3   0.651014 0.967586 0.501560 -0.221819
C252  C     C_3   0.173924 0.529841 0.460625 -0.209170
C253  C     C_3   0.172716 0.469856 0.462493 -0.212390
C254  C     C_R   0.802152 0.526563 0.441001 0.010884
C255  C     C_R   0.802133 0.473439 0.440939 0.005337
C256  C     C_R   0.302568 0.026594 0.441716 0.013300
Cl1   Cl    Cl    0.595905 0.659564 0.915136 -0.633861
Cl2   Cl    Cl    0.382439 0.314894 0.628394 -0.504401
Cl3   Cl    Cl    0.868761 0.217053 0.651757 -0.535386
Cl4   Cl    Cl    0.868551 0.782139 0.652263 -0.557200
Cl5   Cl    Cl    0.917920 0.439887 0.326572 -0.451151
Cl6   Cl    Cl    0.918138 0.560233 0.326952 -0.431709
Cl7   Cl    Cl    0.419920 0.939874 0.330786 -0.474695
Cl8   Cl    Cl    0.419150 0.060155 0.329737 -0.528635
Cl9   Cl    Cl    0.504060 0.855082 0.372371 -0.477361
Cl10  Cl    Cl    0.463058 0.129764 0.458670 -0.561724
Cl11  Cl    Cl    0.007965 0.352205 0.367275 -0.503281
Cl12  Cl    Cl    0.623809 0.322640 0.913626 -0.601861
Cl13  Cl    Cl    0.008081 0.648746 0.365715 -0.503916
Cl14  Cl    Cl    0.656299 0.746513 0.306251 -0.630607
Cl15  Cl    Cl    0.652965 0.191810 0.307999 -0.587992
Cl16  Cl    Cl    0.155005 0.238995 0.306696 -0.602740
Cl17  Cl    Cl    0.154330 0.762408 0.306721 -0.595212
Cl18  Cl    Cl    0.628309 0.853450 0.364073 -0.519433
Cl19  Cl    Cl    0.588109 0.129768 0.445532 -0.563959
Cl20  Cl    Cl    0.133530 0.347775 0.356158 -0.530414
Cl21  Cl    Cl    0.133873 0.653192 0.354150 -0.522996
Cl22  Cl    Cl    0.425352 0.763410 0.925338 -0.691938
Cl23  Cl    Cl    0.119934 0.174636 0.914743 -0.628821
Cl24  Cl    Cl    0.431055 0.270203 0.923504 -0.682913
Cl25  Cl    Cl    0.928681 0.232322 0.924391 -0.681217
Cl26  Cl    Cl    0.948285 0.813208 0.923785 -0.693756
Cl27  Cl    Cl    0.144697 0.784202 0.916576 -0.587681
Cl28  Cl    Cl    0.864524 0.939496 0.490232 -0.519485
Cl29  Cl    Cl    0.864430 0.061424 0.489042 -0.516356
Cl30  Cl    Cl    0.348107 0.439906 0.521836 -0.474160
Cl31  Cl    Cl    0.348771 0.560337 0.520805 -0.490238
Cl32  Cl    Cl    0.369958 0.712635 0.649819 -0.511952
H1    H     H_    0.492745 0.718794 0.612626 0.204186
H2    H     H_    0.511139 0.177264 0.051757 0.126076
H3    H     H_    0.120554 0.439068 0.609703 0.119577
H4    H     H_    0.020203 0.393748 0.694915 0.140691
H5    H     H_    0.950169 0.372624 0.656782 0.159529
H6    H     H_    0.980822 0.398215 0.532286 0.174937
H7    H     H_    0.081270 0.444156 0.445613 0.180422
H8    H     H_    0.486868 0.692401 0.380589 0.131304
H9    H     H_    0.494321 0.641233 0.283257 0.147654
H10   H     H_    0.551697 0.674793 0.155091 0.141955
H11   H     H_    0.601688 0.761230 0.124589 0.130677
H12   H     H_    0.594495 0.814030 0.221533 0.177758
H13   H     H_    0.010074 0.322440 0.052107 0.136572
H14   H     H_    0.498777 0.260776 0.332511 0.119605
H15   H     H_    0.513455 0.259231 0.212892 0.124446
H16   H     H_    0.551628 0.180094 0.135770 0.110935
H17   H     H_    0.576419 0.102248 0.178580 0.153894
H18   H     H_    0.562268 0.102562 0.298484 0.188750
H19   H     H_    0.979931 0.191818 0.382810 0.134578
H20   H     H_    0.984945 0.140461 0.287070 0.154943
H21   H     H_    0.048037 0.170435 0.156606 0.142872
H22   H     H_    0.106506 0.253210 0.122370 0.142541
H23   H     H_    0.100682 0.306572 0.217842 0.180645
H24   H     H_    0.971551 0.668808 0.054258 0.139659
H25   H     H_    0.981312 0.810313 0.385457 0.137440
H26   H     H_    0.983276 0.862745 0.292704 0.156801
H27   H     H_    0.041642 0.833124 0.162399 0.132624
H28   H     H_    0.098715 0.749698 0.125142 0.158104
H29   H     H_    0.096304 0.695319 0.217616 0.182382
H30   H     H_    0.549875 0.880348 0.850381 0.123793
H31   H     H_    0.641793 0.937746 0.779429 0.126242
H32   H     H_    0.725480 0.936413 0.800182 0.148522
H33   H     H_    0.716507 0.877067 0.893174 0.152877
H34   H     H_    0.625675 0.819848 0.965432 0.106438
H35   H     H_    0.606234 0.742563 0.943716 0.147168
H36   H     H_    0.513589 0.130162 0.856296 0.128043
H37   H     H_    0.586015 0.058307 0.785787 0.127226
H38   H     H_    0.669221 0.034839 0.802249 0.130757
H39   H     H_    0.679350 0.083470 0.890763 0.146335
H40   H     H_    0.608068 0.154448 0.962520 0.106965
H41   H     H_    0.022453 0.365355 0.847055 0.133992
H42   H     H_    0.100322 0.432970 0.772352 0.122087
H43   H     H_    0.180363 0.457205 0.793991 0.153459
H44   H     H_    0.182727 0.412363 0.890727 0.153947
H45   H     H_    0.106869 0.344421 0.965507 0.112464
H46   H     H_    0.608452 0.236675 0.944982 0.148366
H47   H     H_    0.980568 0.665107 0.846674 0.136978
H48   H     H_    0.025501 0.584669 0.776305 0.126854
H49   H     H_    0.086718 0.526745 0.800575 0.121754
H50   H     H_    0.101333 0.548539 0.898186 0.141259
H51   H     H_    0.056759 0.627346 0.970369 0.114815
H52   H     H_    0.107634 0.261088 0.944437 0.148151
H53   H     H_    0.095701 0.705258 0.944479 0.150527
H54   H     H_    0.500895 0.676395 0.060144 0.216309
H55   H     H_    0.523016 0.315067 0.059044 0.218671
H56   H     H_    0.020311 0.184261 0.059820 0.211593
H57   H     H_    0.501841 0.301271 0.594305 0.208865
H58   H     H_    0.043342 0.786119 0.061185 0.207978
H59   H     H_    0.395405 0.698173 0.074692 0.164604
H60   H     H_    0.412855 0.318149 0.075157 0.163179
H61   H     H_    0.911432 0.181887 0.075044 0.163498
H62   H     H_    0.946795 0.833572 0.075104 0.153510
H63   H     H_    0.543337 0.726771 0.067522 0.160554
H64   H     H_    0.550354 0.255188 0.068495 0.164226
H65   H     H_    0.048789 0.244210 0.068052 0.164648
H66   H     H_    0.041944 0.717807 0.068860 0.174624
H67   H     H_    0.656578 0.044611 0.453548 0.221861
H68   H     H_    0.991880 0.222004 0.614342 0.204315
H69   H     H_    0.660373 0.952192 0.449192 0.199506
H70   H     H_    0.199364 0.545402 0.403243 0.190960
H71   H     H_    0.196498 0.452317 0.406432 0.193249
H72   H     H_    0.648195 0.546862 0.584538 0.178807
H73   H     H_    0.648198 0.453037 0.584526 0.178031
H74   H     H_    0.147771 0.046865 0.582582 0.179561
H75   H     H_    0.147833 0.953026 0.582634 0.182730
H76   H     H_    0.873975 0.453298 0.457993 0.095726
H77   H     H_    0.873919 0.546508 0.458338 0.091943
H78   H     H_    0.372178 0.954054 0.462973 0.104139
H79   H     H_    0.991780 0.777178 0.614766 0.203553
H80   H     H_    0.372298 0.047200 0.462044 0.130511
H81   H     H_    0.382321 0.760605 0.063503 0.221542
H82   H     H_    0.387424 0.261667 0.061445 0.221465
H83   H     H_    0.885326 0.238362 0.062401 0.219669
H84   H     H_    0.899044 0.797781 0.062271 0.220716
H85   H     H_    0.482525 0.877802 0.139502 0.150322
H86   H     H_    0.409307 0.950079 0.205495 0.196485
H87   H     H_    0.324029 0.967776 0.190537 0.133055
H88   H     H_    0.313126 0.913464 0.106906 0.152315
H89   H     H_    0.385997 0.842438 0.038513 0.174575
H90   H     H_    0.487739 0.826901 0.947598 0.202211
H91   H     H_    0.454644 0.117688 0.142349 0.141071
H92   H     H_    0.364204 0.058937 0.214324 0.165484
H93   H     H_    0.275723 0.062293 0.201864 0.139855
H94   H     H_    0.278502 0.124802 0.115824 0.155162
H95   H     H_    0.368019 0.183308 0.042382 0.163501
H96   H     H_    0.952838 0.382209 0.142329 0.156671
H97   H     H_    0.862502 0.441168 0.212741 0.177837
H98   H     H_    0.775539 0.438101 0.197619 0.140803
H99   H     H_    0.779598 0.375500 0.110699 0.152937
H100  H     H_    0.868898 0.316653 0.039048 0.170656
H101  H     H_    0.470537 0.188084 0.950085 0.201974
H102  H     H_    0.886181 0.623056 0.144641 0.142846
H103  H     H_    0.774798 0.597187 0.212237 0.143343
H104  H     H_    0.702865 0.643021 0.191664 0.153899
H105  H     H_    0.743309 0.715121 0.102017 0.150928
H106  H     H_    0.853892 0.741428 0.032802 0.174578
H107  H     H_    0.444748 0.629337 0.030102 0.120318
H108  H     H_    0.448588 0.544258 0.983691 0.133093
H109  H     H_    0.478613 0.531809 0.856407 0.137357
H110  H     H_    0.506141 0.607038 0.774566 0.147547
H111  H     H_    0.500648 0.693967 0.819227 0.170234
H112  H     H_    0.971832 0.312899 0.948198 0.203469
H113  H     H_    0.478571 0.377713 0.034987 0.115717
H114  H     H_    0.516605 0.463146 0.987213 0.138007
H115  H     H_    0.562755 0.484192 0.856380 0.146250
H116  H     H_    0.566733 0.417906 0.773626 0.139520
H117  H     H_    0.527064 0.331235 0.819260 0.173278
H118  H     H_    0.976609 0.121677 0.032632 0.116934
H119  H     H_    0.006101 0.034769 0.986003 0.135927
H120  H     H_    0.044360 0.013787 0.857438 0.141783
H121  H     H_    0.052829 0.082272 0.774777 0.141537
H122  H     H_    0.021739 0.170373 0.819364 0.173931
H123  H     H_    0.952090 0.715888 0.945245 0.203445
H124  H     H_    0.033704 0.867967 0.033105 0.112064
H125  H     H_    0.099919 0.943582 0.987381 0.138076
H126  H     H_    0.150686 0.973911 0.858791 0.148538
H127  H     H_    0.132706 0.927026 0.775582 0.137021
H128  H     H_    0.064012 0.851717 0.819545 0.172087
H129  H     H_    0.527961 0.026190 0.545254 0.166495
H130  H     H_    0.432160 0.065042 0.655181 0.156359
H131  H     H_    0.438500 0.112307 0.747728 0.153070
H132  H     H_    0.541208 0.120175 0.730272 0.135433
H133  H     H_    0.636616 0.080662 0.623063 0.123616
H134  H     H_    0.523996 0.814218 0.052850 0.133342
H135  H     H_    0.620847 0.969480 0.645008 0.131401
H136  H     H_    0.540700 0.917534 0.752414 0.132295
H137  H     H_    0.474702 0.855046 0.741108 0.169557
H138  H     H_    0.488540 0.845335 0.621317 0.160831
H139  H     H_    0.567900 0.897393 0.513121 0.191603
H140  H     H_    0.082787 0.547909 0.440726 0.171012
H141  H     H_    0.984534 0.598319 0.518631 0.177084
H142  H     H_    0.956434 0.637604 0.636043 0.154568
H143  H     H_    0.026263 0.625227 0.676503 0.129437
H144  H     H_    0.123666 0.574298 0.601024 0.114970
O1    O     O_3   0.750020 0.750020 0.500000 -0.523670
O2    O     O_R   0.741140 0.134170 0.457020 -0.620940
O3    O     O_R   0.241140 0.365830 0.457020 -0.638599
O4    O     O_R   0.241140 0.634170 0.457020 -0.639085
O5    O     O_R   0.862350 0.719680 0.336040 -0.612124
O6    O     O_R   0.862350 0.280320 0.336040 -0.611997
O7    O     O_R   0.362350 0.219680 0.336040 -0.627456
O8    O     O_R   0.362350 0.780320 0.336040 -0.613568
O9    O     O_R   0.698420 0.780360 0.663960 -0.610436
O10   O     O_R   0.698420 0.219640 0.663960 -0.609528
O11   O     O_R   0.198420 0.280360 0.663960 -0.610194
O12   O     O_3   0.750020 0.249980 0.500000 -0.524099
O13   O     O_R   0.198420 0.719640 0.663960 -0.602563
O14   O     O_R   0.801620 0.780400 0.336040 -0.607320
O15   O     O_R   0.801620 0.219600 0.336040 -0.615037
O16   O     O_R   0.301620 0.280400 0.336040 -0.604899
O17   O     O_R   0.301620 0.719600 0.336040 -0.610710
O18   O     O_R   0.637700 0.719640 0.663960 -0.650318
O19   O     O_R   0.637700 0.280360 0.663960 -0.646654
O20   O     O_R   0.137700 0.219640 0.663960 -0.649356
O21   O     O_R   0.137700 0.780360 0.663960 -0.647882
O22   O     O_R   0.801870 0.634220 0.457010 -0.600719
O23   O     O_3   0.250020 0.250020 0.500000 -0.523219
O24   O     O_R   0.801870 0.365780 0.457010 -0.600843
O25   O     O_R   0.301870 0.134220 0.457010 -0.591953
O26   O     O_R   0.301870 0.865780 0.457010 -0.597111
O27   O     O_R   0.758890 0.865820 0.542980 -0.603806
O28   O     O_R   0.758890 0.134180 0.542980 -0.606310
O29   O     O_R   0.258890 0.365820 0.542980 -0.594356
O30   O     O_R   0.258890 0.634180 0.542980 -0.594719
O31   O     O_R   0.887320 0.719660 0.457000 -0.608169
O32   O     O_R   0.887320 0.280340 0.457000 -0.608044
O33   O     O_R   0.387320 0.219660 0.457000 -0.619178
O34   O     O_3   0.250020 0.749980 0.500000 -0.525704
O35   O     O_R   0.387320 0.780340 0.457000 -0.606790
O36   O     O_R   0.655700 0.780400 0.457020 -0.587383
O37   O     O_R   0.655700 0.219600 0.457020 -0.577163
O38   O     O_R   0.155700 0.280400 0.457020 -0.584406
O39   O     O_R   0.155700 0.719600 0.457020 -0.585004
O40   O     O_R   0.844340 0.780370 0.542980 -0.576825
O41   O     O_R   0.844340 0.219630 0.542980 -0.575436
O42   O     O_R   0.344340 0.280370 0.542980 -0.576678
O43   O     O_R   0.344340 0.719630 0.542980 -0.575319
O44   O     O_R   0.612730 0.719670 0.543000 -0.655363
O45   O     O_R   0.698170 0.634220 0.542990 -0.649721
O46   O     O_R   0.612730 0.280330 0.543000 -0.660299
O47   O     O_R   0.112730 0.219670 0.543000 -0.654180
O48   O     O_R   0.112730 0.780330 0.543000 -0.652112
O49   O     O_R   0.698170 0.365780 0.542990 -0.652476
O50   O     O_R   0.198170 0.134220 0.542990 -0.651400
O51   O     O_R   0.198170 0.865780 0.542990 -0.649378
O52   O     O_R   0.741140 0.865830 0.457020 -0.636419
Zn1   Zn    Zn3+2 0.675940 0.706640 0.561420 0.977320
Zn2   Zn    Zn3+2 0.762700 0.206610 0.561410 1.056278
Zn3   Zn    Zn3+2 0.262700 0.293390 0.561410 1.060889
Zn4   Zn    Zn3+2 0.262700 0.706610 0.561410 1.060210
Zn5   Zn    Zn3+2 0.737340 0.793410 0.438590 1.041484
Zn6   Zn    Zn3+2 0.737340 0.206590 0.438590 1.047052
Zn7   Zn    Zn3+2 0.237340 0.293410 0.438590 1.038933
Zn8   Zn    Zn3+2 0.237340 0.706590 0.438590 1.036896
Zn9   Zn    Zn3+2 0.675940 0.293360 0.561420 0.976195
Zn10  Zn    Zn3+2 0.175940 0.206640 0.561420 0.982402
Zn11  Zn    Zn3+2 0.175940 0.793360 0.561420 0.981802
Zn12  Zn    Zn3+2 0.824100 0.706650 0.438580 1.050459
Zn13  Zn    Zn3+2 0.824100 0.293350 0.438580 1.045813
Zn14  Zn    Zn3+2 0.324100 0.206650 0.438580 1.038111
Zn15  Zn    Zn3+2 0.324100 0.793350 0.438580 1.051708
Zn16  Zn    Zn3+2 0.762700 0.793390 0.561410 1.054509

loop_
_geom_bond_atom_site_label_1
_geom_bond_atom_site_label_2
_ccdc_geom_bond_type
O40   Zn16  S    
C191  O17   A    
C126  C127  A    
O50   Zn10  S    
C96   C102  A    
C185  C207  S    
C131  H14   S    
C49   H89   S    
O36   Zn5   S    
C168  Cl22  S    
C100  H132  S    
C155  H34   S    
O20   Zn10  S    
C188  C191  S    
C99   H131  S    
C6    C248  S    
C22   O41   A    
C55   H95   S    
C146  Cl20  S    
C134  H17   S    
O1    Zn1   S    
C25   O43   A    
C164  H41   S    
C143  C144  A    
C240  C244  A    
C16   H80   S    
C110  C111  A    
O12   Zn9   S    
C204  C208  S    
C201  C206  S    
C105  H136  S    
C83   C88   A    
C59   C60   A    
C104  H135  S    
C209  C222  S    
C176  C203  S    
C234  C236  A    
C32   C57   A    
O12   Zn2   S    
C104  C105  A    
C233  C250  S    
C114  C115  A    
C217  H52   S    
C45   C47   A    
C82   H117  S    
O30   Zn4   S    
C51   C52   A    
C200  O13   A    
C72   H108  S    
C140  C141  A    
O3    Zn7   S    
C27   O37   A    
C101  C137  S    
C144  C145  A    
O1    Zn5   S    
C174  H50   S    
C84   H118  S    
C43   C44   A    
C242  Cl29  S    
C175  H51   S    
C196  C218  S    
C140  H21   S    
C36   C40   A    
C208  C212  S    
C135  Cl15  S    
C183  C196  S    
C177  C204  S    
C73   H109  S    
C76   C77   A    
C181  C194  S    
C54   H94   S    
C154  C155  A    
C199  O20   A    
O1    Zn12  S    
C197  O18   A    
C158  C159  A    
C27   C36   S    
C133  H16   S    
C56   C62   A    
C118  H3    S    
C13   C224  A    
O37   Zn6   S    
O12   Zn6   S    
C179  C193  S    
C188  C219  T    
C177  C195  S    
C147  H27   S    
C245  O45   A    
C43   C49   A    
C72   C73   A    
C18   O28   A    
C139  C140  A    
C206  C219  S    
C97   H129  S    
C33   C38   A    
C180  O7    A    
C186  C208  S    
C103  C251  S    
C156  C158  A    
C130  C131  A    
C208  C221  S    
C215  H35   S    
C226  C230  T    
O34   Zn11  S    
C127  H10   S    
C157  Cl17  S    
C15   H78   S    
C79   C123  S    
C178  Cl26  S    
C203  H82   S    
O8    Zn15  S    
C152  H31   S    
C135  Cl19  S    
C28   O38   A    
C187  H24   S    
C4    C245  S    
C15   Cl7   S    
C243  Cl30  S    
C157  Cl21  S    
C95   H128  S    
C1    C192  S    
C136  H18   S    
C143  C149  A    
O1    Zn16  S    
C98   C99   A    
C180  O16   A    
C21   C24   S    
C60   H98   S    
C31   C36   A    
C239  C243  A    
C113  C157  S    
O24   Zn13  S    
C24   C235  A    
C243  C244  A    
C150  C179  S    
C227  C231  T    
C42   H79   S    
C213  Cl2   S    
C39   H1    S    
C16   C256  S    
C147  C148  A    
C4    C254  A    
O43   Zn4   S    
C81   H116  S    
C128  C129  A    
C97   C98   A    
C184  C206  S    
C167  C169  A    
C85   C86   A    
C248  O25   A    
C124  Cl14  S    
C194  C225  S    
C113  Cl13  S    
C102  H133  S    
C180  C189  S    
C11   H75   S    
C78   C80   A    
C13   C57   A    
C170  C171  A    
C161  H39   S    
C210  C215  S    
C77   H113  S    
C241  C242  A    
C174  C175  A    
C216  Cl12  S    
C27   O46   A    
C14   Cl6   S    
C111  H141  S    
C117  C253  S    
C187  C209  S    
C235  Cl4   S    
C31   C46   A    
C249  O51   A    
C29   C38   S    
C165  H42   S    
C89   C91   A    
C26   O44   A    
C202  Cl32  S    
O11   Zn3   S    
C25   C246  S    
C66   C67   A    
C207  C211  S    
C44   H85   S    
C236  C252  S    
C28   O47   A    
C193  C215  S    
O42   Zn3   S    
C30   C34   A    
C34   C39   A    
C247  O49   A    
C214  C218  S    
C217  Cl23  S    
C76   C82   A    
C91   C92   A    
C19   O29   A    
C139  H20   S    
C20   C240  S    
C178  C196  S    
C151  H30   S    
C199  O11   A    
C107  H138  S    
C45   H86   S    
C117  C122  A    
C5    C9    A    
C94   H127  S    
C19   C239  S    
C148  H28   S    
C51   H91   S    
C42   C235  A    
C206  C210  S    
C149  H29   S    
C83   C84   A    
C14   C254  S    
C20   O30   A    
C145  H26   S    
C142  H23   S    
C20   O4    A    
C32   C37   A    
C224  Cl3   S    
C63   C187  S    
C168  C193  S    
O29   Zn3   S    
C232  C237  A    
C17   O52   A    
C39   C202  A    
C172  H48   S    
C120  C121  A    
O16   Zn7   S    
C179  C184  S    
C184  H134  S    
C25   O35   A    
C54   C55   A    
C160  H38   S    
C80   H115  S    
C12   C14   S    
C153  H32   S    
O33   Zn14  S    
O10   Zn2   S    
C57   C101  S    
C79   C124  S    
C237  C241  A    
C150  C155  A    
C1    O14   A    
C215  Cl1   S    
C47   H87   S    
C74   H110  S    
C23   O42   A    
C192  C222  T    
C71   C72   A    
C117  C118  A    
C183  H123  S    
C90   C135  S    
C28   C37   S    
C35   C79   S    
C56   C58   A    
C37   C41   A    
C61   C62   A    
O48   Zn11  S    
C41   C224  A    
C89   C178  S    
C10   C11   A    
C116  H144  S    
C112  C190  S    
C63   C64   A    
C197  C228  S    
C162  H40   S    
C91   H124  S    
C152  C153  A    
C2    C23   S    
C1    O5    A    
C150  C151  A    
C252  C253  S    
C71   H107  S    
C210  H63   S    
C23   O33   A    
C200  O21   A    
C18   C238  S    
C33   C68   A    
C198  O19   A    
C87   C88   A    
C85   H119  S    
C86   H120  S    
O49   Zn9   S    
C73   C74   A    
O38   Zn7   S    
C96   C250  S    
C137  C142  A    
C161  C162  A    
C198  C229  S    
C126  H9    S    
C77   C78   A    
C52   C53   A    
C8    H72   S    
C207  C220  S    
C93   C94   A    
C75   H111  S    
O44   Zn1   S    
C7    C249  S    
C211  H64   S    
C92   C93   A    
C164  C165  A    
C3    C7    A    
C176  Cl24  S    
C194  C216  S    
C214  H66   S    
C106  H137  S    
C123  C125  A    
C32   C146  S    
C212  C217  S    
C247  O24   A    
C19   O3    A    
C159  H37   S    
C181  H101  S    
C182  C186  S    
O23   Zn3   S    
C3    C256  A    
C59   H97   S    
C109  C116  A    
C158  H36   S    
C211  H55   S    
C151  C152  A    
C70   C71   A    
O7    Zn14  S    
O17   Zn8   S    
C68   C113  S    
C21   O31   A    
C196  C227  S    
C12   C255  S    
C52   H92   S    
O12   Zn13  S    
C212  H65   S    
C145  C147  A    
C33   C157  S    
O9    Zn16  S    
C170  C175  A    
C202  C246  A    
C21   O40   A    
C78   H114  S    
C197  O9    A    
C76   C176  S    
C204  H83   S    
C201  H81   S    
O32   Zn13  S    
C31   C135  S    
C108  H139  S    
O2    Zn6   S    
C83   C177  S    
C86   C87   A    
C26   O36   A    
O27   Zn16  S    
C248  O50   A    
C250  C251  S    
C53   C54   A    
O47   Zn10  S    
C218  H53   S    
C225  C229  T    
O25   Zn14  S    
C113  C143  S    
C60   C61   A    
C119  H4    S    
C89   C95   A    
C14   H77   S    
C233  C238  A    
C58   H96   S    
C254  C255  A    
C183  C187  S    
C205  H84   S    
C205  H62   S    
C159  C160  A    
C50   C51   A    
C6    C256  A    
C48   H88   S    
C232  C251  S    
C84   C85   A    
O52   Zn5   S    
O31   Zn12  S    
O5    Zn12  S    
C48   C49   A    
C56   C186  S    
C166  H43   S    
C133  C134  A    
C241  Cl28  S    
C9    H73   S    
C131  C132  A    
O23   Zn10  S    
C125  H8    S    
C44   C45   A    
C128  H11   S    
C17   O27   A    
C35   C246  A    
O46   Zn9   S    
C210  H54   S    
O19   Zn9   S    
C185  H2    S    
C253  H71   S    
C6    C10   A    
C182  H112  S    
C119  C120  A    
C87   H121  S    
C46   C90   S    
C204  H61   S    
C105  C106  A    
O39   Zn8   S    
C209  C214  S    
C64   C65   A    
C58   C59   A    
C109  C110  A    
O21   Zn11  S    
C5    C255  A    
C232  C233  A    
C98   H130  S    
C13   C22   S    
C111  C114  A    
C12   Cl5   S    
C94   C95   A    
C163  C169  A    
C64   H102  S    
C138  C139  A    
C24   C68   A    
C90   C130  S    
C62   H100  S    
C193  C223  S    
O4    Zn8   S    
C2    C213  A    
C103  C104  A    
C12   H76   S    
O34   Zn4   S    
C176  C194  S    
C167  H44   S    
C115  C116  A    
O23   Zn14  S    
C171  C172  A    
C109  C252  S    
C165  C166  A    
C170  C183  S    
C163  C164  A    
C251  H69   S    
C4    C8    A    
C81   C82   A    
C41   H68   S    
C22   O32   A    
C173  C174  A    
C2    C46   A    
O15   Zn6   S    
C7    C11   A    
C212  H56   S    
C65   H103  S    
C53   H93   S    
C30   C35   A    
C66   H104  S    
O34   Zn15  S    
C90   Cl10  S    
C199  C230  S    
C120  H5    S    
C38   C42   A    
C70   C168  S    
C144  H25   S    
C10   H74   S    
O26   Zn15  S    
C15   C16   S    
C178  C205  S    
C43   C184  S    
C168  C201  S    
C69   H106  S    
C179  H90   S    
C118  C119  A    
C124  Cl18  S    
C26   C34   S    
C132  C133  A    
C40   C213  A    
C103  C108  A    
C200  C231  S    
O34   Zn8   S    
C189  C220  T    
C101  Cl11  S    
C156  C162  A    
C123  C129  A    
C112  O15   A    
C121  H6    S    
O18   Zn1   S    
C5    C247  S    
C169  H45   S    
C93   H126  S    
C67   H105  S    
C101  C146  S    
C74   C75   A    
C61   H99   S    
C171  H47   S    
C47   C48   A    
O35   Zn15  S    
C114  H142  S    
O13   Zn4   S    
C148  C149  A    
C18   O2    A    
C190  C221  T    
C181  C185  S    
C223  C228  T    
C8    C9    A    
C134  C136  A    
C191  O8    A    
C218  Cl27  S    
C203  C207  S    
C132  H15   S    
C252  H70   S    
O23   Zn7   S    
C236  C240  A    
C67   C69   A    
C110  H140  S    
C29   O48   A    
O41   Zn2   S    
C99   C100  A    
C205  C209  S    
C107  C108  A    
O51   Zn11  S    
C96   C97   A    
C100  C102  A    
C121  C122  A    
O14   Zn5   S    
C106  C107  A    
C234  C253  S    
O22   Zn12  S    
C138  H19   S    
C177  Cl25  S    
C30   C124  S    
C65   C66   A    
C166  C167  A    
C29   O39   A    
C186  H13   S    
C198  O10   A    
O6    Zn13  S    
C70   C75   A    
C3    C15   S    
C172  C173  A    
C201  H59   S    
C214  H58   S    
C115  H143  S    
C195  C226  S    
C130  C136  A    
C245  O22   A    
C216  H46   S    
C80   C81   A    
C112  O6    A    
C156  C181  S    
C182  C195  S    
C40   H57   S    
C137  C138  A    
C238  C242  A    
C129  H12   S    
C50   C55   A    
C160  C161  A    
C146  Cl16  S    
C63   C69   A    
O28   Zn2   S    
C141  C142  A    
C154  H33   S    
C125  C126  A    
C203  H60   S    
C250  H67   S    
C79   Cl9   S    
C249  O26   A    
C211  C216  S    
C234  C239  A    
C195  C217  S    
C16   Cl8   S    
C244  Cl31  S    
C141  H22   S    
O45   Zn1   S    
C122  H7    S    
C153  C154  A    
C50   C185  S    
C173  H49   S    
C127  C128  A    
C17   C237  S    
C92   H125  S    
C163  C182  S    
C88   H122  S    
