data_mof_unit_45258.cif
_audit_creation_date              2012-12-11T21:12:05-0500
_audit_creation_method            fapswitch 2.2
_symmetry_space_group_name_H-M    P1
_symmetry_Int_Tables_number       1
_space_group_crystal_system       triclinic
_cell_length_a                    8.31568
_cell_length_b                    18.786542
_cell_length_c                    26.905384
_cell_angle_alpha                 99.503633
_cell_angle_beta                  92.766056
_cell_angle_gamma                 88.488291
_cell_volume                      4139.99414888

loop_
_atom_site_label
_atom_site_type_symbol
_atom_type_description
_atom_site_fract_x
_atom_site_fract_y
_atom_site_fract_z
_atom_type_partial_charge
Ba1   Ba    Ba6+2 0.160810 0.465630 0.521640 1.650614
Ba2   Ba    Ba6+2 0.649380 0.534380 0.478400 1.631627
C1    C     C_3   0.453166 0.239433 0.692579 -0.314410
C2    C     C_R   0.065898 0.096369 0.450626 -0.089117
C3    C     C_R   0.207357 0.954925 0.461971 -0.108465
C4    C     C_3   0.972213 0.273640 0.629319 0.412730
C5    C     C_R   0.055277 0.978272 0.480357 0.021355
C6    C     C_R   0.263570 0.884552 0.461698 -0.098803
C7    C     C_R   0.170858 0.833753 0.479538 -0.028873
C8    C     C_R   0.024095 0.856966 0.502227 0.000719
C9    C     C_R   0.966594 0.929652 0.503125 0.023136
C10   C     C_R   0.220051 0.760316 0.475284 0.010022
C11   C     C_R   0.122889 0.711245 0.492688 -0.294716
C12   C     C_3   0.484633 0.266978 0.644018 0.293086
C13   C     C_R   0.985237 0.733833 0.518867 0.036092
C14   C     C_R   0.935890 0.807714 0.524535 -0.046661
C15   C     C_R   0.846957 0.072597 0.501712 0.023585
C16   C     C_3   0.995049 0.204010 0.650891 -0.366336
C17   C     C_R   0.788798 0.145075 0.501898 0.003420
C18   C     C_R   0.875268 0.193575 0.478299 -0.045052
C19   C     C_R   0.007570 0.166351 0.450318 -0.024198
C20   C     C_R   0.802225 0.834203 0.552079 -0.027040
C21   C     C_R   0.745019 0.904602 0.552741 -0.089098
C22   C     C_R   0.820879 0.952958 0.526665 0.009052
C23   C     C_3   0.470051 0.313559 0.398897 0.307413
C24   C     C_R   0.758848 0.024206 0.524942 0.019589
C25   C     C_R   0.608246 0.048221 0.544249 -0.102828
C26   C     C_R   0.642223 0.168518 0.524628 -0.030408
C27   C     C_R   0.551648 0.118448 0.544004 -0.101280
C28   C     C_3   0.840151 0.619645 0.631033 0.294343
C29   C     C_R   0.590002 0.241266 0.526931 -0.025481
C30   C     C_R   0.685343 0.289889 0.508030 -0.291856
C31   C     C_R   0.824941 0.267271 0.482715 0.045390
C32   C     C_R   0.267482 0.444140 0.170609 0.589990
C33   C     C_R   0.213666 0.571430 0.177676 0.583217
C34   C     C_3   0.471240 0.231935 0.383590 -0.386462
C35   C     C_2   0.041707 0.533005 0.269130 -0.079476
C36   C     C_3   0.005136 0.525467 0.322628 -0.035467
C37   C     C_1   0.282705 0.489834 0.335659 0.010812
C38   C     C_2   0.315283 0.488031 0.287727 -0.097434
C39   C     C_2   0.188721 0.511607 0.251737 0.212259
C40   C     C_3   0.837209 0.636057 0.688262 -0.353590
C41   C     C_R   0.299913 0.503602 0.097714 -0.080426
C42   C     C_R   0.305990 0.440483 0.119756 -0.033730
C43   C     C_R   0.351582 0.374960 0.090698 -0.061247
C44   C     C_R   0.253526 0.569534 0.126998 -0.028260
C45   C     C_3   0.821142 0.723445 0.382518 0.341249
C46   C     C_2   0.156907 0.526060 0.355512 -0.283681
C47   C     C_2   0.642875 0.469337 0.635864 -0.273578
C48   C     C_R   0.412366 0.429913 0.964880 0.020597
C49   C     C_R   0.388196 0.562568 0.974593 0.020361
C50   C     C_R   0.420796 0.494723 0.944388 0.049514
C51   C     C_R   0.435197 0.363518 0.932358 -0.101600
C52   C     C_3   0.978769 0.370220 0.365843 0.293981
C53   C     C_R   0.471962 0.360993 0.882285 -0.062562
C54   C     C_R   0.487925 0.424460 0.862241 -0.027205
C55   C     C_R   0.462170 0.491547 0.893102 -0.081152
C56   C     C_3   0.807663 0.800872 0.372158 -0.380003
C57   C     C_R   0.477436 0.555335 0.872650 -0.033176
C58   C     C_R   0.521112 0.551151 0.822032 0.592103
C59   C     C_R   0.527583 0.421883 0.811660 0.591674
C60   C     C_2   0.719569 0.441138 0.722483 -0.088154
C61   C     C_3   0.741194 0.422116 0.666453 -0.073104
C62   C     C_1   0.519958 0.508813 0.655583 0.040829
C63   C     C_2   0.482599 0.514346 0.703501 -0.083155
C64   C     C_3   0.004331 0.341749 0.310360 -0.364591
C65   C     C_2   0.589173 0.480447 0.739899 0.216252
C66   C     C_R   0.380084 0.433290 0.016768 0.020606
C67   C     C_3   0.358653 0.732512 0.347091 0.397653
C68   C     C_R   0.340111 0.500713 0.046350 0.049374
C69   C     C_R   0.340023 0.565215 0.025140 0.020268
C70   C     C_R   0.387932 0.371324 0.040460 -0.101147
C71   C     C_R   0.248012 0.632210 0.105070 -0.061911
C72   C     C_R   0.406289 0.625599 0.953040 -0.099744
C73   C     C_R   0.450155 0.621935 0.903331 -0.059783
C74   C     C_R   0.290467 0.630263 0.055415 -0.100559
C75   C     C_3   0.331508 0.686196 0.592955 0.315238
C76   C     C_3   0.337955 0.767606 0.609420 -0.379833
C77   C     C_3   0.181989 0.723957 0.356461 -0.330114
C78   C     C_3   0.366727 0.789614 0.312150 -0.337767
C79   C     C_3   0.425771 0.661377 0.319738 -0.298285
C80   C     C_R   0.992172 0.049056 0.477986 0.009841
H1    H     H_    0.507140 0.325706 0.652932 0.037480
H2    H     H_    0.204394 0.670424 0.585631 0.004821
H3    H     H_    0.399580 0.671571 0.558086 0.068024
H4    H     H_    0.351662 0.270393 0.711748 0.165734
H5    H     H_    0.269388 0.783783 0.644033 0.125950
H6    H     H_    0.284621 0.795911 0.579408 0.060388
H7    H     H_    0.464974 0.784361 0.617322 0.119949
H8    H     H_    0.592252 0.237255 0.627998 -0.026421
H9    H     H_    0.562882 0.245564 0.717967 0.122551
H10   H     H_    0.595811 0.331199 0.408056 0.021394
H11   H     H_    0.397601 0.327378 0.432905 0.062676
H12   H     H_    0.744309 0.678318 0.699854 0.136118
H13   H     H_    0.545070 0.215940 0.350102 0.131282
H14   H     H_    0.523269 0.205924 0.415033 0.058806
H15   H     H_    0.346340 0.212850 0.374387 0.116812
H16   H     H_    0.423037 0.181307 0.684196 0.089240
H17   H     H_    0.939816 0.158767 0.624258 0.068982
H18   H     H_    0.715331 0.711293 0.402372 0.132781
H19   H     H_    0.925825 0.719376 0.408812 -0.013960
H20   H     H_    0.823399 0.839138 0.408083 0.086409
H21   H     H_    0.899311 0.811471 0.345851 0.116439
H22   H     H_    0.688525 0.811517 0.355021 0.144044
H23   H     H_    0.808830 0.586705 0.703444 0.075862
H24   H     H_    0.283971 0.776675 0.278309 0.113554
H25   H     H_    0.489125 0.792403 0.298129 0.105190
H26   H     H_    0.030173 0.267176 0.592457 0.088977
H27   H     H_    0.332679 0.843778 0.332714 0.108419
H28   H     H_    0.159926 0.654975 0.488133 0.067838
H29   H     H_    0.380883 0.870839 0.447032 0.122605
H30   H     H_    0.069177 0.198630 0.427806 0.099997
H31   H     H_    0.738679 0.800990 0.573448 0.101979
H32   H     H_    0.435542 0.132732 0.559495 0.106337
H33   H     H_    0.645329 0.345597 0.510604 0.069706
H34   H     H_    0.956851 0.655237 0.704399 0.132064
H35   H     H_    0.288249 0.990415 0.448285 0.072825
H36   H     H_    0.167777 0.080347 0.427807 0.060100
H37   H     H_    0.641586 0.919756 0.574989 0.060921
H38   H     H_    0.840652 0.281877 0.622655 -0.125765
H39   H     H_    0.528599 0.013522 0.559172 0.071810
H40   H     H_    0.434203 0.471560 0.274686 0.106531
H41   H     H_    0.359729 0.325714 0.106799 0.122400
H42   H     H_    0.798129 0.415480 0.747977 0.101024
H43   H     H_    0.488360 0.308536 0.859198 0.117253
H44   H     H_    0.421986 0.311947 0.944035 0.068379
H45   H     H_    0.095095 0.388583 0.384546 0.021573
H46   H     H_    0.425625 0.318942 0.021569 0.069065
H47   H     H_    0.946194 0.548059 0.243696 0.098095
H48   H     H_    0.211099 0.683589 0.126424 0.118922
H49   H     H_    0.390754 0.679168 0.973946 0.068924
H50   H     H_    0.124909 0.191551 0.656739 0.142492
H51   H     H_    0.462537 0.671995 0.888942 0.121368
H52   H     H_    0.372979 0.542536 0.716594 0.110935
H53   H     H_    0.279932 0.680866 0.041585 0.068878
H54   H     H_    0.159417 0.551404 0.394856 0.075295
H55   H     H_    0.659283 0.460681 0.595542 0.082124
H56   H     H_    0.890534 0.415931 0.369096 0.045844
H57   H     H_    0.935942 0.209274 0.687499 0.109752
H58   H     H_    0.718730 0.603663 0.615465 0.010126
H59   H     H_    0.927207 0.574550 0.620531 0.084368
H60   H     H_    0.165582 0.678254 0.376882 0.043466
H61   H     H_    0.137026 0.775004 0.378316 0.080848
H62   H     H_    0.111247 0.712382 0.320054 0.142602
H63   H     H_    0.428059 0.620949 0.345278 0.135454
H64   H     H_    0.350242 0.641343 0.285519 0.109099
H65   H     H_    0.548462 0.668696 0.307528 0.157061
H66   H     H_    0.087673 0.294168 0.306842 0.145661
H67   H     H_    0.057291 0.383267 0.291756 0.082171
H68   H     H_    0.887403 0.325491 0.290598 0.121252
N1    N     N_R   0.222914 0.509203 0.199069 -0.426434
N2    N     N_R   0.546280 0.484787 0.792154 -0.423777
O1    O     O_2   0.106080 0.324280 0.466820 -0.466757
O2    O     O_2   0.679101 0.554793 0.330144 -0.500785
O3    O     O_3   0.836650 0.674376 0.337212 -0.617661
O4    O     O_3   0.859130 0.413620 0.470620 -0.483719
O5    O     O_3   0.459240 0.537930 0.559910 -0.491168
O6    O     O_2   0.583120 0.462390 0.379940 -0.454862
O7    O     O_3   0.403054 0.345471 0.358786 -0.633802
O8    O     O_2   0.545748 0.757104 0.484576 -0.493789
O9    O     O_3   0.455514 0.756748 0.391422 -0.617837
O10   O     O_2   0.272041 0.389166 0.189487 -0.595573
O11   O     O_2   0.544161 0.363363 0.784724 -0.625852
O12   O     O_3   0.399298 0.652906 0.631966 -0.629029
O13   O     O_2   0.172170 0.628571 0.202870 -0.612432
O14   O     O_2   0.538204 0.606552 0.804744 -0.598041
O15   O     O_3   0.376230 0.370290 0.556910 -0.464274
O16   O     O_2   0.257007 0.243202 0.516954 -0.488303
O17   O     O_3   0.918663 0.314032 0.387059 -0.642687
O18   O     O_3   0.349562 0.254200 0.610815 -0.590630
O19   O     O_2   0.227190 0.537650 0.620070 -0.460319
O20   O     O_3   0.971110 0.406970 0.583250 -0.481671
O21   O     O_2   0.063661 0.472737 0.675811 -0.482264
O22   O     O_3   0.042360 0.331338 0.662926 -0.573196
O23   O     O_2   0.704230 0.675760 0.533200 -0.462230
O24   O     O_3   0.951180 0.586390 0.529420 -0.491323
O25   O     O_3   0.434080 0.629720 0.443130 -0.474573
O26   O     O_3   0.885783 0.681672 0.613205 -0.638754
O27   O     O_3   0.351080 0.462080 0.440130 -0.478122
O28   O     O_3   0.839200 0.593040 0.416790 -0.488036
P1    P     P_3+3 0.929380 0.335110 0.452880 0.977327
P2    P     P_3+3 0.398530 0.559060 0.613740 0.995616
P3    P     P_3+3 0.955538 0.411473 0.648131 0.968025
P4    P     P_3+3 0.880940 0.664900 0.547160 0.973409
P5    P     P_3+3 0.842440 0.586380 0.351416 0.936555
P6    P     P_3+3 0.395517 0.276666 0.552651 0.945974
P7    P     P_3+3 0.401934 0.439360 0.377008 0.957742
P8    P     P_3+3 0.410216 0.724157 0.447337 0.914201

loop_
_geom_bond_atom_site_label_1
_geom_bond_atom_site_label_2
_ccdc_geom_bond_type
C76   H5    S    
C53   C54   A    
Ba1   O24   S    
C23   H11   S    
C47   C61   S    
C47   H55   S    
C25   C27   A    
O19   P2    D    
C16   H50   S    
C17   C18   A    
O20   P3    S    
C49   C72   A    
C27   H32   S    
O6    P7    D    
C60   H42   S    
Ba2   O27   S    
C25   H39   S    
C75   C76   S    
C43   H41   S    
C5    C9    A    
C78   H25   S    
C24   C25   A    
C35   C36   S    
C28   H59   S    
C33   N1    Am   
C60   C65   D    
C70   H46   S    
C45   H19   S    
C15   C24   A    
C26   C27   A    
C67   O9    S    
Ba1   Ba2   S    
O9    P8    S    
C21   H37   S    
C69   C74   A    
C55   C57   A    
C77   H60   S    
O27   P7    S    
Ba1   O15   S    
C13   C14   A    
C10   P8    S    
C78   H24   S    
C9    C22   A    
C54   C55   A    
C1    H9    S    
C15   C80   A    
C58   N2    Am   
O7    P7    S    
C12   H8    S    
Ba2   O24   S    
C20   H31   S    
C77   H61   S    
C53   H43   S    
C6    C7    A    
C79   H65   S    
C78   H27   S    
C23   O7    S    
C48   C50   A    
C21   C22   A    
C34   H13   S    
C68   C69   A    
C56   H20   S    
Ba2   O25   S    
C7    C8    A    
C64   H66   S    
C63   H52   S    
C66   C70   A    
C62   P2    S    
C75   O12   S    
C75   H3    S    
C57   C58   A    
C47   C62   D    
C59   O11   D    
C72   H49   S    
C1    H4    S    
C52   O17   S    
C2    H36   S    
C49   C69   A    
C12   H1    S    
C4    H38   S    
C7    C10   A    
C74   H53   S    
C43   C70   A    
C51   C53   A    
C76   H7    S    
C4    C16   S    
O2    P5    D    
C48   C51   A    
C61   P3    S    
C72   C73   A    
C49   C50   A    
C28   H58   S    
C64   H67   S    
O3    P5    S    
C6    H29   S    
C37   C38   D    
C3    C5    A    
Ba1   P1    S    
C15   C17   A    
C4    O22   S    
C75   H2    S    
C63   C65   S    
O15   P6    S    
Ba1   O19   S    
C58   O14   D    
C45   H18   S    
C3    H35   S    
Ba1   O4    S    
C41   C42   A    
C11   H28   S    
Ba2   O23   S    
C34   H14   S    
C29   C30   A    
Ba2   O6    S    
C13   P4    S    
O18   P6    S    
C60   C61   S    
C28   O26   S    
C32   C42   A    
C51   H44   S    
C54   C59   A    
Ba2   P4    S    
C10   C11   A    
Ba1   O1    S    
C17   C26   A    
O25   P8    S    
O17   P1    S    
C59   N2    Am   
C34   H15   S    
C1    C12   S    
C67   C79   S    
C52   C64   S    
C18   C31   A    
C32   N1    Am   
C40   H34   S    
C38   C39   S    
O1    P1    D    
C79   H64   S    
C41   C68   A    
C79   H63   S    
C8    C9    A    
C11   C13   A    
C31   P1    S    
C71   C74   A    
C67   C77   S    
C56   H22   S    
C16   H17   S    
O8    P8    D    
C50   C55   A    
C57   C73   A    
C19   H30   S    
C42   C43   A    
C76   H6    S    
O24   P4    S    
C71   H48   S    
C23   H10   S    
C14   C20   A    
C65   N2    S    
C40   H12   S    
C36   C46   S    
C46   H54   S    
C26   C29   A    
C22   C24   A    
C32   O10   D    
O22   P3    S    
C3    C6    A    
O4    P1    S    
C73   H51   S    
C64   H68   S    
C39   N1    S    
C36   P5    S    
C38   H40   S    
C52   H45   S    
Ba1   O20   S    
Ba2   O28   S    
C77   H62   S    
C62   C63   D    
O16   P6    D    
Ba1   O5    S    
C37   P7    S    
C8    C14   A    
C30   C31   A    
C45   C56   S    
C2    C19   A    
Ba1   O27   S    
C1    H16   S    
C52   H56   S    
C45   O3    S    
C12   O18   S    
Ba2   O5    S    
C29   P6    S    
C33   O13   D    
C35   H47   S    
C30   H33   S    
C35   C39   D    
C16   H57   S    
C41   C44   A    
Ba1   P2    S    
O12   P2    S    
O28   P5    S    
C23   C34   S    
C5    C80   A    
C2    C80   A    
C18   C19   A    
O21   P3    D    
C66   C68   A    
C40   H23   S    
O5    P2    S    
C4    H26   S    
C20   C21   A    
C28   C40   S    
C67   C78   S    
C56   H21   S    
C33   C44   A    
C48   C66   A    
C44   C71   A    
O26   P4    S    
Ba2   O4    S    
C37   C46   D    
O23   P4    D    
