data_mof_unit_67941.cif
_audit_creation_date              2012-12-10T19:24:06-0500
_audit_creation_method            fapswitch 2.2
_symmetry_space_group_name_H-M    P1
_symmetry_Int_Tables_number       1
_space_group_crystal_system       triclinic
_cell_length_a                    10.598619
_cell_length_b                    10.754337
_cell_length_c                    9.888621
_cell_angle_alpha                 89.106954
_cell_angle_beta                  89.235107
_cell_angle_gamma                 89.206981
_cell_volume                      1126.77401065

loop_
_atom_site_label
_atom_site_type_symbol
_atom_type_description
_atom_site_fract_x
_atom_site_fract_y
_atom_site_fract_z
_atom_type_partial_charge
C1    C     C_R   0.504681 0.258061 0.500559 0.876429
C2    C     C_R   0.495296 0.741936 0.499442 0.876487
C3    C     C_3   0.412944 0.962892 0.590669 0.188603
C4    C     C_3   0.587009 0.037104 0.409342 0.188552
C5    C     C_3   0.451256 0.400798 0.049742 0.271898
C6    C     C_3   0.548744 0.599200 0.950261 0.271878
C7    C     C_3   0.563706 0.408048 0.953871 0.275195
C8    C     C_3   0.436294 0.591948 0.046129 0.275194
C9    C     C_3   0.385112 0.492632 0.952699 -0.270875
C10   C     C_3   0.614888 0.507365 0.047302 -0.270854
C11   C     C_R   0.258558 0.495838 0.500222 0.881093
C12   C     C_R   0.741441 0.504188 0.499776 0.881127
C13   C     C_3   0.039077 0.458259 0.620296 0.231755
C14   C     C_3   0.960923 0.541806 0.379691 0.231771
C15   C     C_3   0.955559 0.386693 0.524543 0.006464
C16   C     C_3   0.044446 0.613375 0.475442 0.006451
C17   C     C_3   0.875829 0.505420 0.501097 -0.228982
C18   C     C_3   0.124171 0.494643 0.498891 -0.228947
C19   C     C_3   0.960778 0.577380 0.597488 0.161600
C20   C     C_3   0.039222 0.422686 0.402499 0.161631
C21   C     C_3   0.531222 0.036074 0.623012 0.068102
C22   C     C_3   0.468733 0.963923 0.376991 0.068032
C23   C     C_3   0.612715 0.951472 0.532156 0.156470
C24   C     C_3   0.387231 0.048519 0.467851 0.156476
C25   C     C_3   0.494238 0.876766 0.499349 -0.236085
C26   C     C_3   0.505710 0.123229 0.500656 -0.236176
H1    H     H_    0.289083 0.488074 0.909899 0.171054
H2    H     H_    0.710917 0.511924 0.090105 0.171056
N1    N     N_3   0.499910 0.500030 0.863290 -0.151777
N2    N     N_3   0.500090 0.499970 0.136710 -0.151776
O1    O     O_R   0.500010 0.313960 0.616610 -0.601132
O2    O     O_R   0.499990 0.686040 0.383390 -0.601161
O3    O     O_R   0.500060 0.313950 0.383350 -0.614122
O4    O     O_R   0.499940 0.686050 0.616650 -0.614123
O5    O     O_R   0.313930 0.499970 0.616610 -0.621826
O6    O     O_R   0.686070 0.500030 0.383390 -0.621811
O7    O     O_R   0.313980 0.499960 0.383350 -0.632719
O8    O     O_R   0.686020 0.500040 0.616650 -0.632706
Zn1   Zn    Zn3+2 0.499970 0.500010 0.655740 0.943751
Zn2   Zn    Zn3+2 0.500030 0.499990 0.344260 0.943744
N3    N     N_3   0.903334 0.266760 0.559808 -0.465063
H3    H     H_    0.977481 0.202230 0.553661 0.184541
H4    H     H_    0.836984 0.247017 0.486820 0.169722
N4    N     N_3   0.096679 0.733302 0.440148 -0.465065
H5    H     H_    0.022524 0.797829 0.446207 0.184526
H6    H     H_    0.162995 0.753093 0.513154 0.169790
N5    N     N_2   0.086949 0.410165 0.747491 -0.296015
H7    H     H_    0.153789 0.340495 0.735540 0.221218
C27   C     C_3   0.993348 0.380262 0.849961 -0.800116
H8    H     H_    0.040664 0.371341 0.948739 0.240675
H9    H     H_    0.947871 0.290770 0.827127 0.250535
H10   H     H_    0.920269 0.454692 0.858080 0.276580
N6    N     N_2   0.913049 0.589896 0.252496 -0.296025
H11   H     H_    0.846205 0.659562 0.264444 0.221209
C28   C     C_3   0.006649 0.619795 0.150023 -0.800190
H12   H     H_    0.959339 0.628703 0.051244 0.240674
H13   H     H_    0.079730 0.545372 0.141912 0.276593
H14   H     H_    0.052119 0.709290 0.172845 0.250525
N7    N     N_2   0.914265 0.656298 0.704521 -0.299872
H15   H     H_    0.841283 0.713585 0.675878 0.245242
C29   C     C_3   0.008828 0.716468 0.783295 -0.818563
H16   H     H_    0.962094 0.770765 0.864777 0.241884
H17   H     H_    0.064489 0.781430 0.719473 0.231078
H18   H     H_    0.072805 0.646146 0.829833 0.272902
N8    N     N_2   0.085728 0.343756 0.295472 -0.299862
H19   H     H_    0.158682 0.286440 0.324132 0.245159
C30   C     C_3   0.991156 0.283619 0.216678 -0.818650
H20   H     H_    0.037885 0.229291 0.135217 0.241879
H21   H     H_    0.927222 0.353962 0.170112 0.272924
H22   H     H_    0.935446 0.218690 0.280492 0.231104
N9    N     N_2   0.730833 0.889813 0.564511 -0.302475
H23   H     H_    0.757384 0.825651 0.492746 0.211027
C31   C     C_3   0.832696 0.969456 0.601402 -0.858293
H24   H     H_    0.921156 0.914770 0.610846 0.238675
H25   H     H_    0.813685 0.012647 0.700430 0.251997
H26   H     H_    0.847734 0.040109 0.521593 0.248484
N10   N     N_2   0.269098 0.110153 0.435495 -0.302431
H27   H     H_    0.242604 0.174394 0.507200 0.211001
C32   C     C_3   0.167179 0.030486 0.398812 -0.858053
H28   H     H_    0.078809 0.085269 0.388962 0.238718
H29   H     H_    0.151914 0.960149 0.478931 0.248314
H30   H     H_    0.186256 0.986866 0.300015 0.251987
N11   N     N_3   0.561967 0.078038 0.756753 -0.420619
H31   H     H_    0.579485 0.999306 0.816718 0.213450
H32   H     H_    0.646057 0.126057 0.745683 0.214092
N12   N     N_3   0.438024 0.921965 0.243238 -0.420642
H33   H     H_    0.420476 0.000696 0.183287 0.213474
H34   H     H_    0.353965 0.873902 0.254284 0.214048
N13   N     N_2   0.323844 0.922194 0.693822 -0.284353
H35   H     H_    0.279461 0.840173 0.674335 0.218584
C33   C     C_3   0.243410 0.017642 0.752396 -0.819310
H36   H     H_    0.217477 0.990606 0.857554 0.248697
H37   H     H_    0.155041 0.028745 0.694553 0.232982
H38   H     H_    0.291887 0.108394 0.753823 0.263344
N14   N     N_2   0.676118 0.077837 0.306213 -0.284347
H39   H     H_    0.720419 0.159903 0.325701 0.218621
C34   C     C_3   0.756692 0.982443 0.247762 -0.819433
H40   H     H_    0.782791 0.009522 0.142660 0.248690
H41   H     H_    0.708253 0.891674 0.246203 0.263321
H42   H     H_    0.844960 0.971368 0.305789 0.233072
N15   N     N_2   0.639833 0.308349 0.899116 -0.288125
H43   H     H_    0.705628 0.339733 0.829431 0.250828
C35   C     C_3   0.693166 0.224378 0.999266 -0.828644
H44   H     H_    0.759822 0.158242 0.949745 0.220448
H45   H     H_    0.617252 0.170284 0.049867 0.297393
H46   H     H_    0.745313 0.276446 0.075949 0.247807
N16   N     N_2   0.360159 0.691640 0.100884 -0.288163
H47   H     H_    0.294354 0.660249 0.170554 0.250819
C36   C     C_3   0.306843 0.775621 0.000734 -0.828653
H48   H     H_    0.240158 0.841733 0.050247 0.220444
H49   H     H_    0.254733 0.723559 0.924017 0.247830
H50   H     H_    0.382765 0.829737 0.950178 0.297397
N17   N     N_2   0.393616 0.291979 0.110302 -0.271882
H51   H     H_    0.335206 0.314537 0.190307 0.263743
C37   C     C_3   0.333451 0.211208 0.016185 -0.842124
H52   H     H_    0.285708 0.134628 0.072108 0.237223
H53   H     H_    0.405000 0.170747 0.946505 0.288395
H54   H     H_    0.260663 0.263019 0.957570 0.239088
N18   N     N_2   0.606375 0.708034 0.889722 -0.271905
H55   H     H_    0.664763 0.685502 0.809690 0.263753
C38   C     C_3   0.666570 0.788767 0.983855 -0.842028
H56   H     H_    0.714212 0.865428 0.927956 0.237196
H57   H     H_    0.739451 0.736948 0.042341 0.239049
H58   H     H_    0.595057 0.829118 0.053660 0.288412

loop_
_geom_bond_atom_site_label_1
_geom_bond_atom_site_label_2
_ccdc_geom_bond_type
C7    C10   S    
C21   C26   S    
C11   C18   S    
N15   H43   S    
C7    N1    S    
C31   H25   S    
N3    H3    S    
N14   H39   S    
C28   H12   S    
C34   H40   S    
C1    O3    A    
N5    C27   S    
N10   H27   S    
C14   N6    S    
C13   C18   S    
C21   N11   S    
C22   C24   S    
C24   C26   S    
N17   H51   S    
O7    Zn2   S    
C36   H49   S    
O8    Zn1   S    
N12   H34   S    
N8    C30   S    
C37   H52   S    
C1    O1    A    
C2    O2    A    
C31   H24   S    
C11   O7    A    
C38   H58   S    
C13   N5    S    
N5    H7    S    
C8    C9    S    
C37   H53   S    
C22   C25   S    
C12   C17   S    
N16   H47   S    
N13   C33   S    
C16   N4    S    
C9    N1    S    
C2    O4    A    
N10   C32   S    
N7    H15   S    
N15   C35   S    
N3    H4    S    
C14   C17   S    
C3    C24   S    
C34   H41   S    
N4    H6    S    
N6    C28   S    
C15   C20   S    
N7    C29   S    
O3    Zn2   S    
C13   C19   S    
C30   H20   S    
C23   N9    S    
C20   N8    S    
C3    C25   S    
C15   N3    S    
C36   H50   S    
C33   H36   S    
C5    C7    S    
C4    C23   S    
N12   H33   S    
C6    C8    S    
C27   H9    S    
N6    H11   S    
O4    Zn1   S    
C30   H21   S    
C35   H46   S    
C29   H18   S    
O5    Zn1   S    
C5    C9    S    
C14   C20   S    
C33   H37   S    
C4    N14   S    
C4    C22   S    
C10   N2    S    
N11   H31   S    
C13   C15   S    
O6    Zn2   S    
C37   H54   S    
N1    Zn1   S    
C29   H17   S    
N2    Zn2   S    
C35   H45   S    
C38   H56   S    
N18   C38   S    
N11   H32   S    
N8    H19   S    
O2    Zn2   S    
C28   H13   S    
C1    C26   S    
C31   H26   S    
C14   C16   S    
C3    C21   S    
C12   O6    A    
C8    N16   S    
C6    N18   S    
C34   H42   S    
N4    H5    S    
C9    H1    S    
N9    C31   S    
C5    N2    S    
C10   H2    S    
C15   C17   S    
C5    N17   S    
C27   H10   S    
C6    C10   S    
C32   H30   S    
C4    C26   S    
N18   H55   S    
N14   C34   S    
C32   H29   S    
C3    N13   S    
C30   H22   S    
C19   N7    S    
C21   C23   S    
C8    N2    S    
N9    H23   S    
C36   H48   S    
C33   H38   S    
N16   C36   S    
C23   C25   S    
C16   C19   S    
C11   O5    A    
C17   C19   S    
O1    Zn1   S    
C2    C25   S    
C18   C20   S    
C22   N12   S    
C12   O8    A    
C29   H16   S    
C38   H57   S    
C32   H28   S    
C24   N10   S    
C6    N1    S    
C16   C18   S    
C27   H8    S    
C7    N15   S    
C28   H14   S    
C35   H44   S    
N13   H35   S    
N17   C37   S    
