data_mof_unit_26816.cif
_audit_creation_date              2012-12-10T17:13:34-0500
_audit_creation_method            fapswitch 2.2
_symmetry_space_group_name_H-M    P1
_symmetry_Int_Tables_number       1
_space_group_crystal_system       triclinic
_cell_length_a                    10.721241
_cell_length_b                    12.967026
_cell_length_c                    11.729431
_cell_angle_alpha                 99.373764
_cell_angle_beta                  93.495024
_cell_angle_gamma                 91.355985
_cell_volume                      1604.95478541

loop_
_atom_site_label
_atom_site_type_symbol
_atom_type_description
_atom_site_fract_x
_atom_site_fract_y
_atom_site_fract_z
_atom_type_partial_charge
C1    C     C_R   0.495337 0.299252 0.478841 0.845343
C2    C     C_3   0.878010 0.498736 0.498735 0.022467
C3    C     C_3   0.935028 0.605512 0.561863 -0.537886
C4    C     C_3   0.919684 0.481235 0.372723 -0.334004
C5    C     C_R   0.506360 0.813770 0.533089 -0.053789
C6    C     C_R   0.485291 0.185728 0.466748 -0.149469
C7    C     C_R   0.416451 0.016082 0.359200 -0.301145
C8    C     C_R   0.423921 0.124558 0.367481 0.500729
C9    C     C_R   0.534131 0.138110 0.557664 -0.371493
C10   C     C_R   0.523740 0.030362 0.550633 0.177930
C11   C     C_R   0.465110 0.968896 0.450322 0.094148
C12   C     C_R   0.259859 0.498608 0.500081 0.819186
C13   C     C_R   0.456457 0.860946 0.442421 -0.252123
C14   C     C_R   0.562506 0.874917 0.633613 -0.211921
C15   C     C_R   0.571521 0.983011 0.642230 -0.199666
C16   C     C_R   0.357551 0.427608 0.028477 -0.321123
C17   C     C_R   0.375173 0.429966 0.148295 0.005123
C18   C     C_R   0.562625 0.532511 0.154868 0.659821
C19   C     C_R   0.552127 0.526503 0.031936 -0.077421
C20   C     C_R   0.447862 0.473427 0.968055 -0.080807
C21   C     C_R   0.437178 0.467680 0.845158 0.666621
C22   C     C_R   0.624826 0.570059 0.851733 -0.042985
C23   C     C_R   0.502205 0.700598 0.521085 0.808146
C24   C     C_R   0.642430 0.572361 0.971555 -0.318735
C25   C     C_R   0.740043 0.499941 0.499443 0.827889
C26   C     C_3   0.073340 0.409983 0.561115 -0.539981
C27   C     C_3   0.928887 0.410210 0.562326 0.373608
C28   C     C_3   0.079792 0.605686 0.564219 0.377078
C29   C     C_3   0.062266 0.479915 0.373218 -0.372579
C30   C     C_3   0.121709 0.498905 0.499728 0.032850
Cu1   Cu    Cu3+1 0.509350 0.507730 0.615930 0.958159
Cu2   Cu    Cu3+1 0.490650 0.492270 0.384070 0.996427
H1    H     H_    0.114345 0.420170 0.651839 0.182182
H2    H     H_    0.885891 0.545035 0.326927 0.209066
H3    H     H_    0.898677 0.669471 0.517584 0.206746
H4    H     H_    0.410537 0.813707 0.365923 0.151403
H5    H     H_    0.601589 0.839035 0.704372 0.151075
H6    H     H_    0.371532 0.969187 0.281980 0.153803
H7    H     H_    0.616429 0.029338 0.719763 0.129976
H8    H     H_    0.581208 0.184873 0.633806 0.160487
H9    H     H_    0.103880 0.333308 0.516426 0.191965
H10   H     H_    0.694363 0.607322 0.807560 0.144615
H11   H     H_    0.272527 0.390752 0.984490 0.175211
H12   H     H_    0.727379 0.609299 0.015645 0.177514
H13   H     H_    0.305486 0.393078 0.192543 0.151817
H14   H     H_    0.903845 0.429115 0.654493 0.078363
H15   H     H_    0.117375 0.613151 0.656482 0.077959
H16   H     H_    0.905741 0.621455 0.652320 0.126512
H17   H     H_    0.095790 0.541110 0.324792 0.212505
H18   H     H_    0.090299 0.403023 0.326590 0.156256
H19   H     H_    0.878894 0.406117 0.323497 0.208456
N1    N     N_R   0.523430 0.519360 0.790130 -0.212799
N2    N     N_R   0.476570 0.480640 0.209880 -0.214066
O1    O     O_R   0.506640 0.354460 0.582000 -0.584230
O2    O     O_R   0.490840 0.341410 0.386200 -0.533770
O3    O     O_R   0.325590 0.506510 0.597900 -0.547661
O4    O     O_R   0.309790 0.493450 0.402100 -0.602939
O5    O     O_R   0.509160 0.658590 0.613800 -0.595123
O6    O     O_R   0.493360 0.645540 0.418000 -0.571305
O7    O     O_R   0.690210 0.506550 0.597900 -0.616572
O8    O     O_R   0.674410 0.493490 0.402100 -0.537043
O9    O     O_3   0.125092 0.687632 0.509134 -0.573701
C31   C     C_3   0.156307 0.778111 0.591186 -0.346553
H20   H     H_    0.238566 0.764846 0.648867 0.169767
H21   H     H_    0.075595 0.803386 0.643016 0.157078
H22   H     H_    0.182339 0.842477 0.544507 0.198171
O10   O     O_3   0.374316 0.169679 0.276577 -0.562115
C32   C     C_3   0.246410 0.185663 0.292122 -0.328983
H23   H     H_    0.233450 0.241009 0.373214 0.137336
H24   H     H_    0.193882 0.110545 0.292087 0.160780
H25   H     H_    0.205840 0.220928 0.218806 0.176374
O11   O     O_3   0.338313 0.412040 0.779968 -0.588423
C33   C     C_3   0.358139 0.303397 0.768489 -0.310870
H26   H     H_    0.305949 0.268369 0.832195 0.150197
H27   H     H_    0.458450 0.283281 0.777269 0.151172
H28   H     H_    0.319708 0.265481 0.681372 0.183927
O12   O     O_3   0.660588 0.589257 0.220233 -0.588847
C34   C     C_3   0.639114 0.697605 0.230885 -0.302107
H29   H     H_    0.678493 0.736539 0.317270 0.190072
H30   H     H_    0.538334 0.716606 0.223473 0.147523
H31   H     H_    0.689234 0.732560 0.165846 0.149036
O13   O     O_3   0.875818 0.312178 0.506422 -0.571049
C35   C     C_3   0.865003 0.242885 0.586664 -0.348274
H32   H     H_    0.796291 0.270989 0.651054 0.160576
H33   H     H_    0.957118 0.231783 0.631264 0.157968
H34   H     H_    0.829974 0.165568 0.539249 0.200142

loop_
_geom_bond_atom_site_label_1
_geom_bond_atom_site_label_2
_ccdc_geom_bond_type
C23   O5    A    
C31   H21   S    
C28   H15   S    
C33   H26   S    
C2    C4    S    
C19   C20   A    
Cu1   N1    S    
C6    C9    A    
C7    C8    A    
C29   H17   S    
O12   C34   S    
C7    C11   A    
C26   C27   S    
O9    C31   S    
Cu1   O5    S    
C3    C28   S    
C17   H13   S    
Cu2   O8    S    
C10   C15   A    
C18   O12   S    
C34   H30   S    
C3    H16   S    
C18   C19   A    
C18   N2    A    
C35   H32   S    
C32   H23   S    
C2    C27   S    
C25   O7    A    
Cu1   O3    S    
C9    C10   A    
Cu2   O2    S    
C5    C13   A    
C4    C29   S    
C31   H22   S    
C33   H27   S    
Cu2   O4    S    
C29   H18   S    
C4    H2    S    
C4    H19   S    
O10   C32   S    
C13   H4    S    
C34   H29   S    
C16   C17   A    
C6    C8    A    
C21   O11   S    
C9    H8    S    
C1    C6    S    
Cu1   O7    S    
C23   O6    A    
C1    O1    A    
C29   C30   S    
C26   H1    S    
Cu1   Cu2   S    
C5    C23   S    
C3    H3    S    
C16   C20   A    
C25   O8    A    
C16   H11   S    
C15   H7    S    
C5    C14   A    
C12   O3    A    
C12   O4    A    
C27   H14   S    
C35   H33   S    
C26   C30   S    
C24   H12   S    
C33   H28   S    
C22   C24   A    
C17   N2    A    
Cu2   N2    S    
C22   N1    A    
C12   C30   S    
C27   O13   S    
O11   C33   S    
C28   C30   S    
C2    C3    S    
C1    O2    A    
C14   H5    S    
C11   C13   A    
C34   H31   S    
C22   H10   S    
C32   H25   S    
C7    H6    S    
C19   C24   A    
C2    C25   S    
Cu1   O1    S    
C10   C11   A    
C31   H20   S    
C35   H34   S    
C20   C21   A    
C8    O10   S    
C32   H24   S    
O13   C35   S    
C14   C15   A    
Cu2   O6    S    
C21   N1    A    
C26   H9    S    
C28   O9    S    
