data_mof_unit_44873.cif
_audit_creation_date              2012-12-10T16:51:15-0500
_audit_creation_method            fapswitch 2.2
_symmetry_space_group_name_H-M    P1
_symmetry_Int_Tables_number       1
_space_group_crystal_system       triclinic
_cell_length_a                    27.529629
_cell_length_b                    8.772731
_cell_length_c                    7.508741
_cell_angle_alpha                 102.635413
_cell_angle_beta                  95.817027
_cell_angle_gamma                 94.630214
_cell_volume                      1750.48923775

loop_
_atom_site_label
_atom_site_type_symbol
_atom_type_description
_atom_site_fract_x
_atom_site_fract_y
_atom_site_fract_z
_atom_type_partial_charge
C1    C     C_R   0.497767 0.200368 0.454275 0.840726
C2    C     C_R   0.502233 0.799632 0.545725 0.840726
C3    C     C_R   0.101924 0.479477 0.570024 -0.157514
C4    C     C_R   0.898075 0.520525 0.429964 -0.157514
C5    C     C_R   0.121139 0.333531 0.517826 -0.103513
C6    C     C_R   0.878860 0.666472 0.482163 -0.103513
C7    C     C_R   0.088129 0.195630 0.456613 0.448729
C8    C     C_R   0.911871 0.804373 0.543374 0.448729
C9    C     C_R   0.134008 0.612307 0.665436 -0.166679
C10   C     C_R   0.865991 0.387696 0.334553 -0.166678
C11   C     C_R   0.353915 0.494437 0.497224 -0.263864
C12   C     C_R   0.646085 0.505564 0.502776 -0.263864
C13   C     C_R   0.968409 0.365950 0.396512 -0.050930
C14   C     C_R   0.031591 0.634053 0.603475 -0.050930
C15   C     C_R   0.981085 0.646285 0.551744 0.059678
C16   C     C_R   0.018914 0.353719 0.448243 0.059678
C17   C     C_R   0.949257 0.510185 0.461602 0.045347
C18   C     C_R   0.050743 0.489818 0.538385 0.045348
C19   C     C_R   0.936687 0.243510 0.272306 0.285117
C20   C     C_R   0.063312 0.756494 0.727680 0.285118
C21   C     C_R   0.885720 0.249577 0.252309 0.432582
C22   C     C_R   0.114279 0.750426 0.747679 0.432582
C23   C     C_R   0.407373 0.496712 0.499143 0.855970
C24   C     C_R   0.592627 0.503288 0.500857 0.855972
C25   C     C_R   0.037900 0.207330 0.428997 -0.136671
C26   C     C_R   0.962099 0.792673 0.570989 -0.136671
C27   C     C_2   0.491959 0.033347 0.430823 0.114995
C28   C     C_2   0.508041 0.966653 0.569177 0.114996
C29   C     C_R   0.172785 0.333781 0.534077 0.693082
C30   C     C_R   0.827214 0.666221 0.465913 0.693082
C31   C     C_R   0.184801 0.597333 0.680320 0.702078
C32   C     C_R   0.815198 0.402669 0.319672 0.702078
C33   C     C_R   0.282093 0.632639 0.554420 0.372539
C34   C     C_R   0.717907 0.367362 0.445578 0.372539
C35   C     C_R   0.333288 0.634239 0.562321 0.077035
C36   C     C_R   0.666712 0.365761 0.437679 0.077035
C37   C     C_R   0.322721 0.358296 0.407924 0.065745
C38   C     C_R   0.677279 0.641705 0.592074 0.065745
C39   C     C_R   0.271579 0.358810 0.403719 0.377889
C40   C     C_R   0.728420 0.641192 0.596276 0.377889
C41   C     C_R   0.251933 0.486915 0.513440 0.025678
C42   C     C_R   0.748067 0.513087 0.486555 0.025677
Cu1   Cu    Cu3+1 0.505380 0.517380 0.684380 1.125659
Cu2   Cu    Cu3+1 0.494620 0.482620 0.315620 1.125659
H1    H     H_    0.013804 0.099208 0.397245 0.208029
H2    H     H_    0.986195 0.900795 0.602740 0.208029
N1    N     N_R   0.202093 0.473763 0.568220 -0.451400
N2    N     N_R   0.797906 0.526239 0.431772 -0.451400
N3    N     N_2   0.486510 0.456430 0.038510 0.017699
N4    N     N_2   0.513490 0.543570 0.961490 0.017699
O1    O     O_R   0.503500 0.286120 0.619780 -0.563659
O2    O     O_R   0.496500 0.713880 0.380220 -0.563659
O3    O     O_R   0.494410 0.256780 0.308360 -0.530303
O4    O     O_R   0.505590 0.743220 0.691640 -0.530303
O5    O     O_R   0.434810 0.514700 0.655690 -0.573042
O6    O     O_R   0.565190 0.485300 0.344310 -0.573042
O7    O     O_R   0.425720 0.485350 0.344280 -0.561349
O8    O     O_R   0.574280 0.514650 0.655720 -0.561349
O9    O     O_2   0.193332 0.199343 0.531457 -0.360254
O10   O     O_2   0.806667 0.800659 0.468533 -0.360254
O11   O     O_2   0.784100 0.304810 0.185392 -0.396180
O12   O     O_2   0.215898 0.695191 0.814602 -0.396179
I1    I     I_    0.351857 0.149038 0.281415 -0.015215
I2    I     I_    0.648143 0.850962 0.718584 -0.015215
I3    I     I_    0.429815 0.290031 0.897399 -0.006866
I4    I     I_    0.570185 0.709969 0.102601 -0.006867
Cl1   Cl    Cl    0.234336 0.226901 0.218463 -0.357812
Cl2   Cl    Cl    0.765664 0.773103 0.781529 -0.357811
Cl3   Cl    Cl    0.106397 0.004075 0.405149 -0.413406
Cl4   Cl    Cl    0.893602 0.995928 0.594838 -0.413405
I5    I     I_    0.621283 0.149417 0.335437 -0.071926
I6    I     I_    0.378717 0.850582 0.664567 -0.071926
Cl5   Cl    Cl    0.743327 0.190369 0.460630 -0.359238
Cl6   Cl    Cl    0.256674 0.809634 0.539369 -0.359239
Cl7   Cl    Cl    0.847989 0.078008 0.128287 -0.274500
Cl8   Cl    Cl    0.152010 0.921995 0.871702 -0.274500
Cl9   Cl    Cl    0.959165 0.099620 0.105879 -0.444517
Cl10  Cl    Cl    0.040834 0.900384 0.894107 -0.444518
Cl11  Cl    Cl    0.458633 0.929139 0.217312 -0.489743
Cl12  Cl    Cl    0.541367 0.070861 0.782688 -0.489743

loop_
_geom_bond_atom_site_label_1
_geom_bond_atom_site_label_2
_ccdc_geom_bond_type
Cu2   N3    S    
C8    C26   A    
C14   C18   A    
C34   C42   A    
C22   Cl8   S    
C39   C41   A    
N3    I3    S    
C29   N1    A    
C30   N2    A    
C19   C21   A    
C32   O11   S    
C27   Cl11  S    
C9    C22   A    
C3    C18   A    
C23   O7    A    
C11   C37   A    
C1    O3    A    
Cu1   O8    S    
Cu2   O3    S    
C29   O9    S    
C30   O10   S    
C12   C36   A    
C5    C29   A    
C36   I5    S    
Cu2   O2    S    
C40   C42   A    
C31   N1    A    
C32   N2    A    
C31   O12   S    
C37   I1    S    
C38   I2    S    
C10   C21   A    
C13   C19   A    
C24   O8    A    
C14   C20   A    
C4    C6    A    
C2    O4    A    
C5    C7    A    
C26   H2    S    
C15   C26   A    
C6    C8    A    
Cu1   Cu2   S    
C3    C9    A    
C19   Cl9   S    
Cu2   O6    S    
Cu1   O4    S    
Cu2   O7    S    
C41   N1    S    
C42   N2    S    
N4    I4    S    
C2    O2    A    
C4    C17   A    
Cu1   O5    S    
C6    C30   A    
C20   C22   A    
C35   I6    S    
C4    C10   A    
C25   H1    S    
C16   C25   A    
C15   C17   A    
C21   Cl7   S    
C1    O1    A    
C39   Cl1   S    
C3    C5    A    
C7    Cl3   S    
Cu1   N4    S    
C23   O5    A    
C13   C17   A    
C24   O6    A    
C12   C24   S    
C8    Cl4   S    
C7    C25   A    
C20   Cl10  S    
C33   C41   A    
C11   C35   A    
C37   C39   A    
C38   C40   A    
Cu1   O1    S    
C11   C23   S    
C33   C35   A    
C34   C36   A    
C12   C38   A    
C28   Cl12  S    
C9    C31   A    
C34   Cl5   S    
C10   C32   A    
C33   Cl6   S    
C16   C18   A    
N3    N4    D    
C40   Cl2   S    
C13   C16   A    
C27   C28   D    
C1    C27   S    
C14   C15   A    
C2    C28   S    
