data_mof_unit_11316.cif
_audit_creation_date              2012-12-10T17:11:06-0500
_audit_creation_method            fapswitch 2.2
_symmetry_space_group_name_H-M    P1
_symmetry_Int_Tables_number       1
_space_group_crystal_system       triclinic
_cell_length_a                    10.028241
_cell_length_b                    10.716195
_cell_length_c                    16.683238
_cell_angle_alpha                 90.565432
_cell_angle_beta                  84.019671
_cell_angle_gamma                 90.682801
_cell_volume                      1782.90634047

loop_
_atom_site_label
_atom_site_type_symbol
_atom_type_description
_atom_site_fract_x
_atom_site_fract_y
_atom_site_fract_z
_atom_type_partial_charge
C1    C     C_R   0.501498 0.737552 0.499705 0.941175
C2    C     C_R   0.534519 0.505627 0.259570 -0.044321
C3    C     C_2   0.612081 0.067912 0.479628 -0.390732
C4    C     C_R   0.480064 0.504504 0.653267 0.899871
C5    C     C_2   0.502562 0.134151 0.469938 -0.191542
C6    C     C_2   0.614677 0.933199 0.467787 0.530363
C7    C     C_2   0.506915 0.870081 0.501593 -0.396909
C8    C     C_2   0.080113 0.420929 0.458891 0.023801
C9    C     C_2   0.933311 0.435698 0.449025 -0.091412
C10   C     C_R   0.500158 0.262797 0.493898 0.922180
C11   C     C_R   0.519922 0.499480 0.346686 0.864563
C12   C     C_R   0.353185 0.500343 0.789568 0.470669
C13   C     C_R   0.464779 0.540647 0.737783 -0.116289
C14   C     C_R   0.555493 0.628840 0.764011 -0.259518
C15   C     C_R   0.540100 0.672397 0.842725 -0.219886
C16   C     C_R   0.434870 0.626880 0.896192 -0.020235
C17   C     C_R   0.340668 0.542736 0.869760 -0.293288
C18   C     C_1   0.392387 0.085955 0.427928 0.168017
C19   C     C_3   0.814272 0.946414 0.381688 0.096148
C20   C     C_3   0.918741 0.865102 0.334431 -0.765915
C21   C     C_3   0.101667 0.653381 0.587615 0.198955
C22   C     C_3   0.033636 0.779167 0.600225 -0.891392
C23   C     C_R   0.438482 0.473049 0.134279 0.091534
C24   C     C_1   0.335503 0.415378 0.091437 0.191528
C25   C     C_3   0.133683 0.441912 0.778635 0.103924
C26   C     C_3   0.050083 0.359505 0.727852 -0.816216
C27   C     C_3   0.267075 0.777818 0.003163 0.108029
C28   C     C_3   0.173807 0.839281 0.069369 -0.809834
C29   C     C_R   0.433525 0.455420 0.216836 -0.258547
C30   C     C_R   0.644742 0.568266 0.219195 -0.191854
C31   C     C_R   0.649125 0.588271 0.136882 -0.192893
C32   C     C_R   0.543806 0.545366 0.094986 0.183012
C33   C     C_2   0.443496 0.638989 0.983024 0.476615
C34   C     C_2   0.545283 0.577694 0.010411 -0.329415
H1    H     H_    0.638801 0.663864 0.723538 0.168606
H2    H     H_    0.627882 0.542614 0.969186 0.130627
H3    H     H_    0.264113 0.503429 0.913019 0.162393
H4    H     H_    0.614638 0.735588 0.863459 0.143019
H5    H     H_    0.867859 0.013953 0.418345 0.142221
H6    H     H_    0.758656 0.997180 0.337845 0.143902
H7    H     H_    0.868944 0.796947 0.296404 0.241749
H8    H     H_    0.988942 0.924315 0.294932 0.203865
H9    H     H_    0.976611 0.813630 0.376538 0.284810
H10   H     H_    0.205939 0.664032 0.602452 0.185950
H11   H     H_    0.048732 0.586039 0.630351 0.091296
H12   H     H_    0.731826 0.641242 0.106453 0.140320
H13   H     H_    0.927330 0.771273 0.587392 0.270595
H14   H     H_    0.036745 0.810851 0.663589 0.202514
H15   H     H_    0.086165 0.849384 0.559364 0.271063
H16   H     H_    0.118445 0.541161 0.762635 0.108824
H17   H     H_    0.096812 0.427146 0.843034 0.145068
H18   H     H_    0.056364 0.260545 0.746126 0.257725
H19   H     H_    0.943620 0.388696 0.736506 0.200196
H20   H     H_    0.087558 0.367505 0.663056 0.253750
H21   H     H_    0.204735 0.738333 0.957490 0.138769
H22   H     H_    0.336409 0.850908 0.975048 0.138887
H23   H     H_    0.698422 0.110499 0.503851 0.176215
H24   H     H_    0.232927 0.880573 0.115938 0.263481
H25   H     H_    0.116600 0.914357 0.043434 0.203874
H26   H     H_    0.102040 0.769118 0.098010 0.254837
H27   H     H_    0.420813 0.916678 0.533111 0.123011
H28   H     H_    0.131074 0.340597 0.430655 0.092789
H29   H     H_    0.892996 0.386481 0.399633 0.131813
H30   H     H_    0.886305 0.525845 0.552482 0.202619
H31   H     H_    0.350477 0.403529 0.247998 0.153014
H32   H     H_    0.723925 0.606651 0.251801 0.162400
N1    N     N_2   0.147950 0.498670 0.499150 0.053518
N2    N     N_2   0.852290 0.498640 0.499130 -0.165606
N3    N     N_1   0.304707 0.047857 0.394505 -0.212816
N4    N     N_1   0.252939 0.368923 0.057362 -0.223043
O1    O     O_R   0.386960 0.680940 0.500010 -0.611216
O2    O     O_3   0.095251 0.613994 0.507205 -0.518432
O3    O     O_3   0.269620 0.407482 0.763526 -0.604692
O4    O     O_3   0.338458 0.682386 0.037173 -0.599903
O5    O     O_R   0.613100 0.680900 0.499990 -0.550407
O6    O     O_R   0.373570 0.500040 0.615810 -0.614753
O7    O     O_R   0.599710 0.500000 0.615790 -0.634272
O8    O     O_R   0.386900 0.319100 0.500010 -0.624205
O9    O     O_R   0.613040 0.319060 0.499990 -0.622829
O10   O     O_R   0.400290 0.500000 0.384210 -0.603789
O11   O     O_R   0.626430 0.499960 0.384190 -0.615172
O12   O     O_3   0.727022 0.869591 0.432108 -0.580526
Zn1   Zn    Zn3+2 0.349000 0.500030 0.500020 0.986111
Zn2   Zn    Zn3+2 0.651000 0.499970 0.499980 0.961643

loop_
_geom_bond_atom_site_label_1
_geom_bond_atom_site_label_2
_ccdc_geom_bond_type
C22   H14   S    
N1    Zn1   S    
C6    O12   S    
C19   C20   S    
C3    C6    S    
O11   Zn2   S    
C20   H7    S    
C10   O8    A    
C24   N4    T    
C11   O11   A    
C1    O1    A    
C2    C29   A    
C23   C29   A    
C21   C22   S    
O9    Zn2   S    
C27   H21   S    
O5    Zn2   S    
C15   C16   A    
N1    O2    S    
C4    C13   S    
C25   H16   S    
C7    H27   S    
O8    Zn1   S    
C8    C9    S    
C31   H12   S    
C12   C17   A    
C23   C24   S    
C27   O4    S    
C25   O3    S    
C18   N3    T    
C22   H13   S    
C9    H29   S    
C13   C14   A    
O10   Zn1   S    
C2    C11   S    
C26   H20   S    
O6    Zn1   S    
O1    Zn1   S    
C28   H26   S    
C21   O2    S    
C1    O5    A    
C11   O10   A    
C14   H1    S    
C27   H22   S    
C16   C17   A    
C5    C18   S    
O7    Zn2   S    
C25   C26   S    
C21   H11   S    
N2    Zn2   S    
C25   H17   S    
C15   H4    S    
C26   H18   S    
C16   C33   S    
C21   H10   S    
C31   C32   A    
C33   C34   D    
C17   H3    S    
C30   H32   S    
C19   H5    S    
C22   H15   S    
C29   H31   S    
C3    H23   S    
C19   O12   S    
C26   H19   S    
H30   N2    S    
C20   H9    S    
C28   H25   S    
C1    C7    S    
C3    C5    D    
C20   H8    S    
C10   O9    A    
C6    C7    D    
C28   H24   S    
C2    C30   A    
C23   C32   A    
C9    N2    D    
C4    O7    A    
C30   C31   A    
C34   H2    S    
C4    O6    A    
C19   H6    S    
C33   O4    S    
C5    C10   S    
C12   C13   A    
C8    N1    D    
C8    H28   S    
C27   C28   S    
C14   C15   A    
C12   O3    S    
C32   C34   S    
