data_mof_unit_52635.cif
_audit_creation_date              2013-03-05T15:41:44-0500
_audit_creation_method            fapswitch 2.2
_symmetry_space_group_name_H-M    P1
_symmetry_Int_Tables_number       1
_space_group_crystal_system       triclinic
_cell_length_a                    6.943195
_cell_length_b                    13.677491
_cell_length_c                    20.434118
_cell_angle_alpha                 102.270887
_cell_angle_beta                  90.743815
_cell_angle_gamma                 90.099824
_cell_volume                      1896.0219843

loop_
_atom_site_label
_atom_site_type_symbol
_atom_site_description
_atom_site_fract_x
_atom_site_fract_y
_atom_site_fract_z
_atom_type_partial_charge
O1    O     O_R   0.506860 0.599390 0.449240 -0.572133
O2    O     O_R   0.180220 0.594600 0.586780 -0.580433
O3    O     O_R   0.004500 0.400610 0.550760 -0.568576
C1    C     C_R   0.350295 0.618937 0.612433 0.771420
O4    O     O_R   0.177490 0.611290 0.451970 -0.560338
O5    O     O_R   0.001750 0.417420 0.414990 -0.535317
C2    C     C_R   0.345299 0.637617 0.435391 0.842210
O6    O     O_R   0.509610 0.582580 0.585010 -0.512745
O7    O     O_3   0.337420 0.436370 0.488020 -0.243815
V1    V     V_3+5 0.064680 0.511800 0.502220 1.262096
O8    O     O_R   0.671710 0.405400 0.413220 -0.518775
C3    C     C_R   0.839586 0.383791 0.386600 0.843681
O9    O     O_R   0.674440 0.388710 0.548030 -0.528762
C4    C     C_R   0.844205 0.362125 0.564862 0.995680
V2    V     V_3+5 0.564010 0.488200 0.497780 1.304904
O10   O     O_3   0.841140 0.563630 0.511980 -0.279165
C5    C     C_R   0.958634 0.116034 0.612810 0.310833
H1    H     H_    0.973793 0.990898 0.698601 0.151144
C6    C     C_R   0.858610 0.282844 0.603305 -0.260038
C7    C     C_R   0.827129 0.312671 0.927183 -0.155487
C8    C     C_R   0.820828 0.388464 0.891514 0.664220
C9    C     C_R   0.838714 0.366202 0.822050 -0.049073
C10   C     C_R   0.857071 0.266157 0.785774 0.001525
C11   C     C_R   0.875020 0.189722 0.823303 -0.009154
C12   C     C_R   0.868065 0.239994 0.714029 -0.027870
C13   C     C_R   0.924702 0.141169 0.682652 -0.125073
C14   C     C_R   0.941478 0.067933 0.721216 0.030686
C15   C     C_R   0.912930 0.091183 0.789759 -0.051219
C16   C     C_R   0.821807 0.307371 0.672065 0.494625
C17   C     C_R   0.930484 0.187979 0.573524 0.196448
C18   C     C_R   0.857241 0.213738 0.894019 -0.166999
H2    H     H_    0.813115 0.331434 0.981168 0.092741
H3    H     H_    0.847037 0.429580 0.798799 0.204149
H4    H     H_    0.926114 0.031148 0.816550 0.068390
C19   C     C_2   0.000205 0.297253 0.281788 0.485823
C20   C     C_2   0.843317 0.310817 0.321596 0.405889
C21   C     C_2   0.010822 0.223054 0.216917 -0.085860
C22   C     C_2   0.858129 0.191179 0.176853 -0.197403
H5    H     H_    0.153524 0.197876 0.200244 0.176997
H6    H     H_    0.715824 0.220249 0.190375 0.178542
C23   C     C_2   0.212119 0.795386 0.780026 -0.082736
C24   C     C_2   0.359544 0.805943 0.824382 0.540584
H7    H     H_    0.083161 0.840081 0.792085 0.066022
C25   C     C_2   0.212135 0.719321 0.715916 -0.059940
C26   C     C_2   0.364620 0.699256 0.674203 0.255291
H8    H     H_    0.078375 0.678236 0.702732 0.135735
C27   C     C_R   0.381905 0.888024 0.391017 0.028734
H9    H     H_    0.382833 0.835927 0.482793 0.131544
H10   H     H_    0.440098 0.010153 0.310405 0.161212
H11   H     H_    0.403628 0.965219 0.416720 0.150900
C28   C     C_R   0.350932 0.714798 0.396444 -0.101161
C29   C     C_R   0.315492 0.687441 0.073242 0.318986
C30   C     C_R   0.274332 0.615726 0.110470 -0.059312
C31   C     C_R   0.279427 0.639428 0.179956 -0.118867
C32   C     C_R   0.330058 0.736348 0.215646 0.031334
C33   C     C_R   0.370193 0.811611 0.178690 -0.103991
C34   C     C_R   0.342129 0.760569 0.287182 0.054123
C35   C     C_R   0.371827 0.861456 0.320810 -0.024706
C36   C     C_R   0.404662 0.934396 0.284409 -0.060249
C37   C     C_R   0.417709 0.909544 0.215062 0.329208
C38   C     C_R   0.333380 0.687610 0.326715 -0.100556
C39   C     C_R   0.371518 0.814851 0.428675 -0.039946
C40   C     C_R   0.359372 0.786576 0.106932 -0.177436
H12   H     H_    0.320664 0.608772 0.304997 0.082785
H13   H     H_    0.239440 0.580056 0.204368 0.096018
H14   H     H_    0.237369 0.539953 0.085323 0.124260
O11   O     O_R   0.203230 0.917310 0.915020 -0.598435
O12   O     O_R   0.535500 0.888690 0.048040 -0.503734
O13   O     O_R   0.711080 0.082610 0.085000 -0.507047
C41   C     C_R   0.367808 0.864427 0.066913 0.946497
O14   O     O_R   0.532630 0.905370 0.913230 -0.513915
O15   O     O_R   0.708190 0.099410 0.949230 -0.576687
C42   C     C_R   0.363443 0.882358 0.887342 0.795598
O16   O     O_R   0.206120 0.900510 0.050790 -0.553574
O17   O     O_3   0.375360 0.063570 0.011990 -0.285196
V3    V     V_3+5 0.648170 0.988200 0.997780 1.287554
O18   O     O_R   0.038240 0.111390 0.951940 -0.574312
C43   C     C_R   0.868702 0.136939 0.934405 0.818524
O19   O     O_R   0.041120 0.094710 0.086750 -0.567417
C44   C     C_R   0.872607 0.118468 0.112329 0.901887
V4    V     V_3+5 0.148810 0.011930 0.002180 1.212285
O20   O     O_3   0.871750 0.936430 0.988010 -0.252111
N1    N     N_R   0.975517 0.164527 0.503404 0.115787
O21   O     O_R   0.853649 0.184789 0.459275 -0.350346
O22   O     O_R   0.138795 0.122816 0.483379 -0.299842
F1    F     F_    0.682776 0.253438 0.304629 -0.666077
F2    F     F_    0.513680 0.743570 0.812377 -0.619238
N2    N     N_R   0.534519 0.761903 0.684595 0.122770
O23   O     O_R   0.704238 0.723165 0.671329 -0.310217
O24   O     O_R   0.518225 0.858867 0.699957 -0.358139
N3    N     N_R   0.308483 0.658696 0.001176 0.090168
O25   O     O_R   0.193477 0.587188 0.971537 -0.284021
O26   O     O_R   0.433269 0.694328 0.965294 -0.308074
N4    N     N_R   0.515642 0.979483 0.184876 0.068690
O27   O     O_R   0.700759 0.968828 0.177609 -0.367968
O28   O     O_R   0.438677 0.066517 0.186203 -0.357379
N5    N     N_R   0.021978 0.017466 0.581390 0.113337
O29   O     O_R   0.186250 0.984164 0.598707 -0.346168
O30   O     O_R   0.924567 0.964761 0.531252 -0.305993
F3    F     F_    0.732225 0.395670 0.695725 -0.698626
F4    F     F_    0.800129 0.484827 0.924625 -0.613216
F5    F     F_    0.163704 0.350908 0.301790 -0.686973

loop_
_geom_bond_atom_site_label_1
_geom_bond_atom_site_label_2
_geom_bond_distance
_ccdc_geom_bond_type
C32   C33   1.429165 A    
C23   C24   1.345325 D    
C19   C20   1.357294 D    
C28   C38   1.397651 A    
O15   V3    2.030149 S    
C19   F5    1.360833 S    
C27   C39   1.388372 A    
N5    O29   1.301319 A    
C31   H13   1.077193 S    
C30   C31   1.387601 A    
C25   C26   1.359324 D    
C13   C14   1.404098 A    
C5    C13   1.418065 A    
C19   C21   1.491137 S    
O5    C3    1.297558 A    
O14   V3    2.010183 S    
V2    O10   2.168489 S    
O13   V3    2.008546 S    
C17   N1    1.438853 S    
O15   C43   1.292345 A    
O8    V2    2.008011 S    
O2    V1    2.010178 S    
C41   O16   1.293772 A    
C10   C11   1.426638 A    
O11   C42   1.299648 A    
C3    C20   1.482800 S    
O7    V1    2.151387 S    
C1    O6    1.297849 A    
C8    F4    1.356351 S    
C15   H4    1.082771 S    
C36   C37   1.389400 A    
C8    C9    1.394258 A    
C5    C17   1.408315 A    
C23   H7    1.086158 S    
C28   C39   1.393083 A    
N5    O30   1.301199 A    
C25   H8    1.085457 S    
V4    O20   2.168474 S    
C27   H11   1.083999 S    
O4    C2    1.289417 A    
C1    C26   1.488923 S    
C12   C16   1.420385 A    
C26   N2    1.443418 S    
V3    O20   1.703774 S    
N3    O25   1.301517 A    
O14   C42   1.292528 A    
O17   V4    1.714957 S    
C20   F1    1.360097 S    
C12   C13   1.425753 A    
O18   C43   1.296090 A    
C33   C37   1.422792 A    
C38   H12   1.078299 S    
O2    C1    1.299390 A    
O17   V3    2.151454 S    
C21   C22   1.344776 D    
N3    O26   1.301045 A    
H9    C39   1.083658 S    
N1    O21   1.301203 A    
C40   C41   1.475507 S    
O18   V4    2.017597 S    
C33   C40   1.434100 A    
N2    O23   1.300856 A    
N4    O28   1.300869 A    
C30   H14   1.083194 S    
O3    C4    1.292110 A    
O1    V2    2.021675 S    
N1    O22   1.301221 A    
N2    O24   1.301807 A    
O11   V4    2.007273 S    
O6    V2    2.006826 S    
O9    V2    2.017687 S    
C23   C25   1.489705 S    
O16   V4    2.025510 S    
C6    C16   1.400448 A    
C29   C30   1.394383 A    
C18   C43   1.468953 S    
O19   V4    2.008030 S    
C7    H2    1.083858 S    
C9    H3    1.075219 S    
C31   C32   1.411908 A    
C24   C42   1.475025 S    
C16   F3    1.356985 S    
O1    C2    1.291694 A    
C4    C6    1.470831 S    
H1    C14   1.081943 S    
C11   C15   1.403151 A    
C29   N3    1.441347 S    
C29   C40   1.414770 A    
O5    V1    2.008541 S    
O8    C3    1.300451 A    
C34   C38   1.412710 A    
O12   V3    2.032366 S    
H10   C36   1.085413 S    
C32   C34   1.429848 A    
C35   C36   1.385487 A    
C11   C18   1.419244 A    
C2    C28   1.451581 S    
O4    V1    2.032402 S    
C21   H5    1.084641 S    
O3    V1    2.030017 S    
V1    O10   1.703834 S    
C27   C35   1.403840 A    
C22   H6    1.082794 S    
C34   C35   1.418116 A    
C22   C44   1.477831 S    
C10   C12   1.436387 A    
O7    V2    1.716198 S    
N4    O27   1.300654 A    
O19   C44   1.301053 A    
C7    C8    1.388643 A    
O12   C41   1.295842 A    
C14   C15   1.385722 A    
C9    C10   1.417759 A    
O13   C44   1.294443 A    
C24   F2    1.361744 S    
O9    C4    1.297695 A    
C6    C17   1.406215 A    
C5    N5    1.436892 S    
C7    C18   1.396007 A    
C37   N4    1.420328 S    
