data_mof_unit_29217.cif
_audit_creation_date              2012-12-11T18:06:53-0500
_audit_creation_method            fapswitch 2.2
_symmetry_space_group_name_H-M    P1
_symmetry_Int_Tables_number       1
_space_group_crystal_system       triclinic
_cell_length_a                    8.331563
_cell_length_b                    12.761964
_cell_length_c                    27.129035
_cell_angle_alpha                 96.681851
_cell_angle_beta                  93.304301
_cell_angle_gamma                 80.680576
_cell_volume                      2824.92789091

loop_
_atom_site_label
_atom_site_type_symbol
_atom_type_description
_atom_site_fract_x
_atom_site_fract_y
_atom_site_fract_z
_atom_type_partial_charge
Ba1   Ba    Ba6+2 0.859560 0.448380 0.523550 1.619209
Ba2   Ba    Ba6+2 0.330270 0.551530 0.476440 1.650363
C1    C     C_3   0.720169 0.081123 0.682977 -0.368800
C2    C     C_R   0.940597 0.615715 0.183878 0.589860
C3    C     C_2   0.766585 0.584585 0.274515 -0.091660
C4    C     C_3   0.149001 0.224683 0.656582 0.328822
C5    C     C_3   0.738433 0.612910 0.329394 -0.069911
C6    C     C_1   0.987151 0.486851 0.344782 0.058340
C7    C     C_2   0.027840 0.479613 0.297450 -0.076285
C8    C     C_2   0.910782 0.528827 0.259028 0.213560
C9    C     C_R   0.027493 0.513203 0.105490 -0.079493
C10   C     C_R   0.045155 0.419384 0.129405 -0.034702
C11   C     C_R   0.099019 0.321363 0.101908 -0.060249
C12   C     C_3   0.672836 0.178980 0.655173 0.318411
C13   C     C_R   0.974643 0.611871 0.133102 -0.028928
C14   C     C_2   0.853594 0.546360 0.362398 -0.268583
C15   C     C_2   0.361942 0.511589 0.651475 -0.241619
C16   C     C_3   0.152927 0.196664 0.709535 -0.311736
C17   C     C_R   0.161747 0.404635 0.976045 0.019677
C18   C     C_R   0.068905 0.598561 0.978304 0.020102
C19   C     C_R   0.132766 0.499336 0.951717 0.049881
C20   C     C_R   0.231839 0.308894 0.948355 -0.101675
C21   C     C_R   0.268789 0.305890 0.898700 -0.059855
C22   C     C_R   0.237333 0.397963 0.873929 -0.024832
C23   C     C_3   0.501756 0.731353 0.627536 0.297677
C24   C     C_R   0.168561 0.494808 0.900261 -0.079511
C25   C     C_R   0.136594 0.587198 0.875215 -0.035635
C26   C     C_R   0.173320 0.581581 0.824375 0.596553
C27   C     C_R   0.274522 0.394681 0.823391 0.575880
C28   C     C_3   0.194433 0.211836 0.408429 0.260627
C29   C     C_2   0.430512 0.433892 0.730266 -0.081319
C30   C     C_3   0.456867 0.419772 0.675140 -0.058690
C31   C     C_1   0.207422 0.538759 0.661989 0.017676
C32   C     C_2   0.160504 0.531014 0.707805 -0.091743
C33   C     C_2   0.281231 0.481280 0.746231 0.203820
C34   C     C_3   0.511242 0.769179 0.682718 -0.365239
C35   C     C_R   0.121234 0.408657 0.026964 0.020272
C36   C     C_R   0.062855 0.508491 0.053998 0.050105
C37   C     C_R   0.039511 0.603751 0.030132 0.019613
C38   C     C_R   0.136324 0.315943 0.052077 -0.099696
C39   C     C_R   0.957388 0.705301 0.109517 -0.061972
C40   C     C_3   0.168946 0.097457 0.392967 -0.340112
C41   C     C_R   0.035900 0.689434 0.951737 -0.100128
C42   C     C_R   0.068937 0.683695 0.901577 -0.060495
C43   C     C_R   0.988591 0.701534 0.059385 -0.100721
C44   C     C_R   0.747751 0.818361 0.473830 -0.268445
C45   C     C_3   0.941190 0.858671 0.343838 0.290101
C46   C     C_R   0.413830 0.185266 0.510107 -0.080179
C47   C     C_R   0.401037 0.007806 0.529687 -0.131811
C48   C     C_R   0.333422 0.114521 0.530959 0.018543
C49   C     C_R   0.565134 0.150411 0.488429 0.046999
C50   C     C_R   0.629223 0.039329 0.483323 -0.074653
C51   C     C_R   0.545456 0.967666 0.504571 -0.063007
C52   C     C_3   0.979554 0.771350 0.575658 0.295068
C53   C     C_R   0.608865 0.857539 0.500472 0.069821
C54   C     C_R   0.836204 0.887725 0.455553 -0.036722
C55   C     C_R   0.775871 0.997399 0.459074 -0.092392
C56   C     C_3   0.973681 0.886421 0.292772 -0.300867
C57   C     C_3   0.937619 0.891960 0.586377 -0.390136
C58   C     C_3   0.699093 0.319228 0.378014 0.296543
C59   C     C_3   0.716943 0.293492 0.322238 -0.357525
C60   C     C_3   0.386570 0.357658 0.557353 0.036641
C61   C     C_3   0.463858 0.827507 0.343818 0.381138
C62   C     C_3   0.455720 0.901016 0.303196 -0.392771
C63   C     C_R   0.006760 0.425268 0.180148 0.593161
H1    H     H_    0.702007 0.156951 0.615429 0.044233
H2    H     H_    0.813901 0.342135 0.395043 0.013472
H3    H     H_    0.598538 0.386955 0.384817 0.091479
H4    H     H_    0.645734 0.018814 0.668252 0.092267
H5    H     H_    0.822607 0.229530 0.314514 0.131054
H6    H     H_    0.736078 0.365467 0.305521 0.072906
H7    H     H_    0.604814 0.266228 0.304795 0.135127
H8    H     H_    0.539345 0.203414 0.658263 -0.033486
H9    H     H_    0.697862 0.102722 0.723120 0.137466
H10   H     H_    0.374399 0.719458 0.617196 0.021688
H11   H     H_    0.588255 0.655624 0.620805 0.065085
H12   H     H_    0.232795 0.066163 0.358293 0.118728
H13   H     H_    0.426383 0.845124 0.690832 0.128312
H14   H     H_    0.477081 0.707977 0.704351 0.087714
H15   H     H_    0.637232 0.782285 0.694225 0.133548
H16   H     H_    0.850795 0.048547 0.678363 0.125988
H17   H     H_    0.125216 0.271148 0.734989 0.122120
H18   H     H_    0.906225 0.777772 0.339817 0.020041
H19   H     H_    0.839253 0.918958 0.358885 -0.027122
H20   H     H_    0.072304 0.826474 0.275664 0.168249
H21   H     H_    0.861315 0.887138 0.268654 0.114697
H22   H     H_    0.010572 0.966841 0.295909 0.095783
H23   H     H_    0.218470 0.047167 0.422701 0.093989
H24   H     H_    0.592707 0.813624 0.358099 -0.113352
H25   H     H_    0.389888 0.868987 0.375100 0.082790
H26   H     H_    0.532253 0.860932 0.272147 0.125984
H27   H     H_    0.501897 0.975743 0.318223 0.076070
H28   H     H_    0.037082 0.282763 0.650671 0.111367
H29   H     H_    0.328276 0.921305 0.288937 0.128975
H30   H     H_    0.147327 0.439318 0.286380 0.121034
H31   H     H_    0.112706 0.247535 0.118918 0.120528
H32   H     H_    0.524476 0.399206 0.755592 0.116465
H33   H     H_    0.322728 0.230117 0.879636 0.121932
H34   H     H_    0.037071 0.093823 0.386471 0.120268
H35   H     H_    0.262797 0.234329 0.964146 0.068702
H36   H     H_    0.174394 0.236815 0.034077 0.067739
H37   H     H_    0.678216 0.620923 0.248048 0.101167
H38   H     H_    0.918694 0.782688 0.129856 0.118854
H39   H     H_    0.981722 0.766804 0.968396 0.068051
H40   H     H_    0.257068 0.262636 0.651810 -0.059375
H41   H     H_    0.041118 0.756123 0.883421 0.121509
H42   H     H_    0.037528 0.564561 0.718270 0.127030
H43   H     H_    0.973976 0.777704 0.044937 0.068179
H44   H     H_    0.837761 0.563396 0.402097 0.078975
H45   H     H_    0.872390 0.738171 0.558638 0.008594
H46   H     H_    0.410415 0.539747 0.620337 -0.009180
H47   H     H_    0.336700 0.957452 0.547940 0.122993
H48   H     H_    0.846284 0.048230 0.443469 0.096130
H49   H     H_    0.795858 0.733972 0.471390 0.051998
H50   H     H_    0.059688 0.145760 0.713725 0.133932
H51   H     H_    0.274946 0.153360 0.719554 0.132000
H52   H     H_    0.326795 0.212018 0.414762 -0.000019
H53   H     H_    0.124738 0.240416 0.442341 0.066155
H54   H     H_    0.314204 0.332052 0.481838 0.197040
H55   H     H_    0.283000 0.404087 0.574640 0.096106
H56   H     H_    0.079925 0.753024 0.549565 0.088901
H57   H     H_    0.452290 0.421051 0.548939 0.138741
H58   H     H_    0.439462 0.305516 0.585924 -0.029579
H59   H     H_    0.821970 0.912544 0.606047 0.118757
H60   H     H_    0.923250 0.929709 0.551466 0.099990
H61   H     H_    0.036446 0.924241 0.609587 0.151609
N1    N     N_R   0.953920 0.522872 0.206954 -0.421946
N2    N     N_R   0.241280 0.485774 0.798625 -0.423017
N3    N     N_2   0.342026 0.294117 0.513212 -0.426876
O1    O     O_2   0.907040 0.557650 0.617910 -0.447321
O2    O     O_2   0.169506 0.883953 0.467746 -0.490734
O3    O     O_3   0.082792 0.860821 0.374310 -0.582075
O4    O     O_3   0.139040 0.557570 0.557730 -0.522587
O5    O     O_3   0.571310 0.369620 0.475470 -0.508653
O6    O     O_2   0.348200 0.764910 0.523260 -0.474244
O7    O     O_3   0.545221 0.809004 0.600868 -0.649995
O8    O     O_2   0.444416 0.525732 0.324980 -0.484874
O9    O     O_3   0.400387 0.734079 0.324637 -0.561868
O10   O     O_2   0.018388 0.343238 0.200148 -0.596878
O11   O     O_2   0.336287 0.310027 0.801466 -0.622286
O12   O     O_3   0.664491 0.228569 0.397259 -0.640657
O13   O     O_2   0.899948 0.702344 0.207671 -0.626036
O14   O     O_2   0.147452 0.662738 0.803418 -0.596520
O15   O     O_3   0.684960 0.360550 0.588460 -0.495388
O16   O     O_2   0.781290 0.460941 0.675881 -0.485593
O17   O     O_3   0.025920 0.729147 0.620493 -0.618679
O18   O     O_3   0.759795 0.260077 0.676296 -0.597135
O19   O     O_2   0.841490 0.235060 0.476710 -0.467126
O20   O     O_3   0.099640 0.305100 0.564190 -0.490286
O21   O     O_2   0.995994 0.118174 0.536920 -0.480090
O22   O     O_3   0.149025 0.131468 0.623525 -0.616488
O23   O     O_2   0.282660 0.442310 0.382060 -0.456195
O24   O     O_3   0.050670 0.442340 0.442260 -0.513316
O25   O     O_3   0.504750 0.639360 0.411530 -0.468971
O26   O     O_3   0.140193 0.272787 0.369631 -0.626666
O27   O     O_3   0.618400 0.630290 0.524520 -0.485602
O28   O     O_3   0.090070 0.694820 0.435810 -0.462512
P1    P     P_3+3 0.072810 0.589830 0.610360 0.972397
P2    P     P_3+3 0.661990 0.251250 0.462170 0.973109
P3    P     P_3+3 0.142244 0.165825 0.562735 0.968005
P4    P     P_3+3 0.116900 0.410080 0.389630 0.973563
P5    P     P_3+3 0.041938 0.833119 0.433528 0.953956
P6    P     P_3+3 0.670409 0.379796 0.653795 0.940207
P7    P     P_3+3 0.533460 0.765455 0.537326 0.934470
P8    P     P_3+3 0.522585 0.623736 0.347095 0.978144

loop_
_geom_bond_atom_site_label_1
_geom_bond_atom_site_label_2
_ccdc_geom_bond_type
C59   H5    S    
C19   C24   A    
C9    C36   A    
O6    P7    D    
C56   H22   S    
O8    P8    D    
O26   P4    S    
C57   H61   S    
C24   C25   A    
Ba2   O5    S    
O21   P3    D    
O9    P8    S    
C32   H42   S    
C63   N1    Am   
Ba1   P1    S    
C1    H4    S    
C22   C24   A    
C53   P7    S    
O4    P1    S    
C35   C38   A    
C6    P4    S    
C2    O13   D    
C36   C37   A    
C30   P6    S    
C54   P5    S    
C54   C55   A    
C52   H45   S    
C32   C33   S    
C1    H9    S    
C23   O7    S    
C22   C27   A    
C11   C38   A    
C17   C35   A    
C16   H17   S    
C38   H36   S    
C41   H39   S    
C9    C13   A    
C25   C42   A    
O12   P2    S    
C46   C49   A    
C58   H2    S    
C6    C7    D    
C44   C53   A    
C1    H16   S    
C21   C22   A    
O25   P8    S    
Ba1   O20   S    
C45   H18   S    
C7    C8    S    
C7    H30   S    
C60   H55   S    
O23   P4    D    
C43   H43   S    
C37   C43   A    
C59   H6    S    
C46   C48   A    
O5    P2    S    
C5    P8    S    
C6    C14   D    
C60   N3    S    
C15   C31   D    
Ba1   O4    S    
C15   H46   S    
Ba2   P4    S    
C60   H58   S    
C14   H44   S    
C52   C57   S    
C51   C53   A    
Ba2   O23   S    
C4    C16   S    
Ba2   O4    S    
C20   H35   S    
C44   H49   S    
C11   H31   S    
C49   C50   A    
C12   H8    S    
Ba1   P2    S    
C17   C20   A    
C13   C39   A    
Ba1   O1    S    
C34   H15   S    
C16   H51   S    
C3    C5    S    
C18   C37   A    
C55   H48   S    
O16   P6    D    
O2    P5    D    
C48   P3    S    
C12   O18   S    
C39   H38   S    
O24   P4    S    
C58   C59   S    
C23   H10   S    
O19   P2    D    
Ba1   O27   S    
C41   C42   A    
C35   C36   A    
C56   H21   S    
C58   O12   S    
C29   C30   S    
C4    H28   S    
C61   H24   S    
C31   C32   D    
C12   H1    S    
C26   O14   D    
C45   H19   S    
C18   C19   A    
Ba1   O24   S    
C58   H3    S    
C1    C12   S    
C47   H47   S    
C4    O22   S    
C59   H7    S    
C5    C14   S    
C52   H56   S    
Ba2   O24   S    
O15   P6    S    
C61   O9    S    
C29   C33   D    
C46   N3    S    
C40   H23   S    
C62   H27   S    
C8    N1    S    
C56   H20   S    
C60   H57   S    
C18   C41   A    
C31   P1    S    
O7    P7    S    
C57   H59   S    
C27   O11   D    
C3    H37   S    
C28   O26   S    
Ba2   O27   S    
C2    N1    Am   
C17   C19   A    
C34   H14   S    
C16   H50   S    
C9    C10   A    
O17   P1    S    
C28   H52   S    
C42   H41   S    
C57   H60   S    
C28   H53   S    
C10   C63   A    
Ba2   O6    S    
C52   O17   S    
C45   O3    S    
O1    P1    D    
C23   H11   S    
O22   P3    S    
C2    C13   A    
C62   H29   S    
C3    C8    D    
Ba1   O15   S    
C34   H13   S    
C40   H34   S    
C45   C56   S    
Ba2   O28   S    
C47   C51   A    
Ba1   Ba2   S    
C61   H25   S    
C49   P2    S    
H54   N3    S    
C4    H40   S    
C29   H32   S    
C33   N2    S    
O20   P3    S    
O3    P5    S    
C50   C55   A    
C23   C34   S    
C61   C62   S    
C63   O10   D    
C26   N2    Am   
C21   H33   S    
C10   C11   A    
O27   P7    S    
C40   H12   S    
Ba2   O25   S    
C47   C48   A    
C27   N2    Am   
C44   C54   A    
C25   C26   A    
C15   C30   S    
C39   C43   A    
C20   C21   A    
C28   C40   S    
Ba1   O19   S    
O18   P6    S    
C62   H26   S    
O28   P5    S    
Ba1   O5    S    
C50   C51   A    
