data_mof_unit_55038.cif
_audit_creation_date              2012-12-11T14:24:48-0500
_audit_creation_method            fapswitch 2.2
_symmetry_space_group_name_H-M    P1
_symmetry_Int_Tables_number       1
_space_group_crystal_system       triclinic
_cell_length_a                    19.098901
_cell_length_b                    11.059152
_cell_length_c                    18.673164
_cell_angle_alpha                 89.920592
_cell_angle_beta                  91.966706
_cell_angle_gamma                 89.6381
_cell_volume                      3941.69478331

loop_
_atom_site_label
_atom_site_type_symbol
_atom_type_description
_atom_site_fract_x
_atom_site_fract_y
_atom_site_fract_z
_atom_type_partial_charge
C1    C     C_R   0.728779 0.375940 0.146113 0.533113
C2    C     C_R   0.252592 0.921240 0.077325 -0.000085
C3    C     C_R   0.685298 0.625351 0.389619 -0.052987
C4    C     C_R   0.893478 0.130292 0.585642 -0.101984
C5    C     C_R   0.081052 0.070495 0.443531 -0.128364
C6    C     C_R   0.445518 0.519028 0.518494 -0.154222
C7    C     C_R   0.626531 0.686786 0.411779 -0.117126
C8    C     C_R   0.912023 0.088451 0.518686 -0.159641
C9    C     C_R   0.119832 0.144500 0.487914 -0.126523
C10   C     C_R   0.444848 0.481423 0.447720 -0.128716
C11   C     C_R   0.609456 0.681716 0.483187 -0.168475
C12   C     C_R   0.860663 0.055083 0.467430 -0.115360
C13   C     C_R   0.258578 0.406714 0.928716 -0.004467
C14   C     C_R   0.174035 0.098245 0.531247 -0.071995
C15   C     C_R   0.384553 0.430868 0.417281 -0.057114
C16   C     C_R   0.654943 0.626582 0.533754 -0.113426
C17   C     C_R   0.734121 0.000419 0.442598 -0.006298
C18   C     C_R   0.242563 0.918629 0.572853 0.012337
C19   C     C_R   0.256496 0.412661 0.422402 0.024702
C20   C     C_R   0.764182 0.499721 0.559131 -0.003404
C21   C     C_R   0.733285 0.385177 0.350556 0.553229
C22   C     C_R   0.271627 0.378329 0.644455 0.572276
C23   C     C_R   0.208409 0.823206 0.359692 0.572681
C24   C     C_R   0.741785 0.409844 0.072048 0.001870
C25   C     C_R   0.765660 0.888464 0.650640 0.539481
C26   C     C_R   0.533734 0.158421 0.353456 0.560186
C27   C     C_R   0.467177 0.154566 0.646564 0.557929
C28   C     C_R   0.029573 0.657448 0.351511 0.553796
C29   C     C_R   0.966140 0.657504 0.645704 0.569142
C30   C     C_R   0.730115 0.019924 0.364325 0.552154
C31   C     C_R   0.257831 0.973353 0.642306 0.532541
C32   C     C_R   0.244281 0.466102 0.353319 0.542078
C33   C     C_R   0.770217 0.522455 0.636097 0.554035
C34   C     C_3   0.534824 0.251265 0.970151 -0.120594
C35   C     C_R   0.695980 0.861037 0.961566 -0.025388
C36   C     C_3   0.478473 0.268541 0.026909 -0.119165
C37   C     C_3   0.991776 0.780521 0.977177 -0.102875
C38   C     C_3   0.945603 0.717277 0.032462 -0.133881
C39   C     C_3   0.567614 0.145431 0.014066 -0.121116
C40   C     C_3   0.430453 0.177187 0.986710 -0.122019
C41   C     C_3   0.058483 0.727855 0.015131 -0.115574
C42   C     C_3   0.941989 0.603793 0.984511 -0.113896
C43   C     C_3   0.510481 0.162500 0.069517 0.048297
C44   C     C_3   0.487583 0.160123 0.931410 0.046265
C45   C     C_3   0.011652 0.663890 0.068786 0.045139
C46   C     C_R   0.303809 0.857912 0.038486 -0.030029
C47   C     C_3   0.988899 0.666104 0.930595 0.048924
C48   C     C_2   0.509055 0.869028 0.613534 0.589733
C49   C     C_2   0.394359 0.035568 0.339634 0.616140
C50   C     C_2   0.068878 0.446607 0.636882 0.590531
C51   C     C_2   0.928520 0.435644 0.355895 0.602829
C52   C     C_R   0.194384 0.381821 0.959591 -0.037857
C53   C     C_R   0.805829 0.383816 0.041047 -0.034170
C54   C     C_R   0.701867 0.856835 0.037325 0.001842
C55   C     C_R   0.297707 0.854892 0.962751 -0.001071
C56   C     C_R   0.191952 0.368559 0.034872 0.008382
C57   C     C_R   0.271428 0.374909 0.854209 0.532757
C58   C     C_R   0.807642 0.367923 0.965919 -0.007195
C59   C     C_R   0.796650 0.001364 0.033369 -0.150628
C60   C     C_R   0.205786 0.006758 0.967510 -0.148022
C61   C     C_R   0.313071 0.429472 0.046767 -0.145747
C62   C     C_R   0.687703 0.438030 0.954422 -0.151961
C63   C     C_R   0.795976 0.994968 0.959931 -0.155568
C64   C     C_R   0.206284 0.999229 0.040941 -0.162195
C65   C     C_R   0.318041 0.425576 0.973502 -0.155257
C66   C     C_R   0.682516 0.432442 0.027509 -0.147994
C67   C     C_R   0.640092 0.799859 0.926907 -0.064851
C68   C     C_R   0.231155 0.878688 0.147760 0.573912
C69   C     C_R   0.359035 0.792949 0.072737 -0.059696
C70   C     C_R   0.135263 0.353390 0.916392 -0.063087
C71   C     C_R   0.865257 0.356133 0.084168 -0.059249
C72   C     C_R   0.086677 0.273914 0.941355 0.214593
C73   C     C_R   0.912904 0.273000 0.060129 0.201411
C74   C     C_R   0.601183 0.716612 0.963839 0.241541
C75   C     C_R   0.396743 0.707888 0.035436 0.246081
C76   C     C_R   0.613929 0.699916 0.037089 -0.067326
C77   C     C_R   0.383348 0.692352 0.962235 -0.055935
C78   C     C_R   0.089243 0.242517 0.013814 -0.124975
C79   C     C_R   0.768991 0.878441 0.852344 0.534109
C80   C     C_R   0.910189 0.239896 0.987933 -0.108556
C81   C     C_R   0.661934 0.772159 0.074253 -0.128700
C82   C     C_R   0.336285 0.768099 0.925417 -0.125552
C83   C     C_R   0.137238 0.298603 0.061866 -0.124769
C84   C     C_R   0.862197 0.296124 0.939372 -0.116757
C85   C     C_R   0.531532 0.155691 0.144938 0.571014
C86   C     C_R   0.467397 0.154829 0.855718 0.548027
C87   C     C_R   0.032745 0.655669 0.144206 0.562425
C88   C     C_R   0.967469 0.655783 0.855526 0.562873
C89   C     C_R   0.749584 0.934025 0.073306 -0.001950
C90   C     C_3   0.463129 0.071349 0.030463 -0.101254
C91   C     C_R   0.251178 0.935678 0.927194 0.006240
C92   C     C_R   0.249404 0.411216 0.078339 0.004971
C93   C     C_R   0.750647 0.413285 0.922387 -0.007286
C94   C     C_R   0.495257 0.149651 0.573840 0.030848
C95   C     C_R   0.505537 0.170684 0.425106 0.017640
C96   C     C_R   0.990974 0.665405 0.571324 0.024370
C97   C     C_R   0.991740 0.661971 0.420228 0.029664
C98   C     C_R   0.479123 0.048328 0.527327 0.008403
C99   C     C_R   0.467901 0.074362 0.453703 -0.005697
C100  C     C_R   0.004044 0.556779 0.533714 0.006247
C101  C     C_3   0.519680 0.054182 0.974263 -0.101639
C102  C     C_R   0.986606 0.553725 0.459563 0.011044
C103  C     C_R   0.535405 0.257890 0.471452 -0.151207
C104  C     C_R   0.524205 0.253210 0.544601 -0.143707
C105  C     C_R   0.979056 0.770283 0.456303 -0.162961
C106  C     C_R   0.976994 0.771598 0.531258 -0.148616
C107  C     C_R   0.471920 0.923980 0.548942 0.026774
C108  C     C_R   0.426650 0.995804 0.409661 0.025852
C109  C     C_R   0.024824 0.447690 0.568628 0.018108
C110  C     C_R   0.966869 0.442530 0.427215 0.027786
C111  C     C_R   0.006361 0.339056 0.535944 -0.199607
C112  C     C_3   0.008444 0.550667 0.021472 -0.095525
C113  C     C_R   0.976959 0.336929 0.466591 -0.192470
C114  C     C_R   0.437151 0.843928 0.501830 -0.195155
C115  C     C_R   0.412212 0.880599 0.434761 -0.162634
C116  C     C_R   0.736159 0.962622 0.590594 0.014027
C117  C     C_R   0.207681 0.824328 0.438681 -0.015000
C118  C     C_R   0.264325 0.416506 0.570249 0.018982
C119  C     C_R   0.760190 0.447823 0.413666 0.040656
C120  C     C_R   0.778763 0.051602 0.561604 0.029866
C121  C     C_R   0.163253 0.908942 0.471183 0.041072
C122  C     C_R   0.324586 0.449304 0.529957 0.025256
C123  C     C_3   0.054888 0.614288 0.967109 -0.126268
C124  C     C_R   0.723210 0.549102 0.437993 0.038003
C125  C     C_R   0.790604 0.041882 0.487899 0.022728
C126  C     C_R   0.192157 0.974853 0.527374 0.038380
C127  C     C_R   0.322594 0.424769 0.456457 0.024801
C128  C     C_R   0.714817 0.561074 0.512116 0.014834
C129  C     C_R   0.675788 0.950538 0.475478 -0.153921
C130  C     C_R   0.274765 0.810845 0.550794 -0.130965
C131  C     C_R   0.196805 0.397286 0.462229 -0.160916
C132  C     C_R   0.812136 0.417754 0.530645 -0.152727
C133  C     C_R   0.741450 0.971306 0.147928 0.538541
C134  C     C_R   0.748209 0.921132 0.923058 -0.001262
C135  C     C_R   0.258741 0.971406 0.852260 0.533720
C136  C     C_R   0.241221 0.467436 0.149064 0.546908
C137  C     C_R   0.758865 0.467408 0.851095 0.541399
C138  C     C_R   0.680979 0.919569 0.547747 -0.122058
C139  C     C_R   0.260669 0.768243 0.481120 -0.153802
C140  C     C_R   0.202124 0.391022 0.535033 -0.167541
C141  C     C_R   0.806041 0.385097 0.459836 -0.141576
C142  C     C_R   0.824886 0.118846 0.605801 -0.071741
C143  C     C_R   0.100175 0.951364 0.438885 -0.084045
C144  C     C_R   0.385960 0.506293 0.558765 -0.087530
Cl1   Cl    Cl    0.034820 0.196757 0.877013 -0.660874
Cl2   Cl    Cl    0.963829 0.194448 0.125288 -0.652857
Cl3   Cl    Cl    0.541530 0.626982 0.915340 -0.669697
Cl4   Cl    Cl    0.456069 0.615441 0.083406 -0.705346
Cr1   Cr    Cr6+3 0.772820 0.169820 0.252640 1.094696
Cr2   Cr    Cr6+3 0.383280 0.011130 0.749340 1.070846
Cr3   Cr    Cr6+3 0.116720 0.511130 0.250660 1.057813
Cr4   Cr    Cr6+3 0.883280 0.511130 0.749340 1.049305
Cr5   Cr    Cr6+3 0.227180 0.169820 0.747360 1.098439
Cr6   Cr    Cr6+3 0.272820 0.669820 0.252640 1.036184
Cr7   Cr    Cr6+3 0.727180 0.669820 0.747360 1.069032
Cr8   Cr    Cr6+3 0.615040 0.323610 0.249150 1.032992
Cr9   Cr    Cr6+3 0.384960 0.323610 0.750850 1.051094
Cr10  Cr    Cr6+3 0.115040 0.823610 0.249150 1.045980
Cr11  Cr    Cr6+3 0.884960 0.823610 0.750850 1.044875
Cr12  Cr    Cr6+3 0.616720 0.011130 0.250660 1.020933
H1    H     H_    0.624388 0.132584 0.027027 0.126040
H2    H     H_    0.962471 0.252610 0.442353 0.107878
H3    H     H_    0.429571 0.751016 0.516012 0.111797
H4    H     H_    0.383274 0.816855 0.401675 0.144361
H5    H     H_    0.629595 0.924392 0.444382 0.151405
H6    H     H_    0.313858 0.765900 0.584813 0.115571
H7    H     H_    0.144821 0.395767 0.437304 0.153922
H8    H     H_    0.850692 0.370435 0.564056 0.163547
H9    H     H_    0.812431 0.138456 0.660805 0.129785
H10   H     H_    0.072911 0.902201 0.399048 0.164726
H11   H     H_    0.388417 0.548314 0.610823 0.152447
H12   H     H_    0.373659 0.188093 0.973455 0.125194
H13   H     H_    0.696862 0.627350 0.333213 0.139336
H14   H     H_    0.646152 0.854466 0.568504 0.177603
H15   H     H_    0.292729 0.696897 0.459606 0.139978
H16   H     H_    0.158333 0.361426 0.563938 0.143369
H17   H     H_    0.834396 0.306390 0.442089 0.150791
H18   H     H_    0.932737 0.161335 0.624268 0.109326
H19   H     H_    0.039142 0.106130 0.409140 0.096998
H20   H     H_    0.491994 0.559983 0.542258 0.133887
H21   H     H_    0.593616 0.736542 0.373514 0.123103
H22   H     H_    0.966310 0.082088 0.506813 0.115226
H23   H     H_    0.106666 0.779322 0.029526 0.137212
H24   H     H_    0.107545 0.237042 0.487393 0.116532
H25   H     H_    0.490709 0.493163 0.416023 0.128163
H26   H     H_    0.563056 0.727724 0.500283 0.117600
H27   H     H_    0.878729 0.027108 0.416013 0.155156
H28   H     H_    0.204500 0.160160 0.563528 0.150986
H29   H     H_    0.385138 0.403000 0.361706 0.165485
H30   H     H_    0.639212 0.635179 0.588057 0.182359
H31   H     H_    0.561743 0.323595 0.941498 0.145031
H32   H     H_    0.463342 0.355949 0.050701 0.172544
H33   H     H_    0.985624 0.874752 0.957211 0.154021
H34   H     H_    0.893405 0.555050 0.969394 0.140051
H35   H     H_    0.900944 0.758273 0.060452 0.131036
H36   H     H_    0.433855 0.999287 0.057357 0.140958
H37   H     H_    0.536064 0.966754 0.951121 0.150804
H38   H     H_    0.014065 0.456248 0.040668 0.172231
H39   H     H_    0.100177 0.579073 0.938157 0.122635
H40   H     H_    0.834398 0.061132 0.058786 0.191134
H41   H     H_    0.169367 0.069968 0.942335 0.190581
H42   H     H_    0.359064 0.448236 0.079580 0.196770
H43   H     H_    0.642282 0.463545 0.922207 0.199406
H44   H     H_    0.626205 0.815019 0.871008 0.178352
H45   H     H_    0.567233 0.330116 0.451108 0.143994
H46   H     H_    0.373598 0.807030 0.128527 0.181268
H47   H     H_    0.130915 0.380033 0.860627 0.190854
H48   H     H_    0.869340 0.383489 0.139790 0.192502
H49   H     H_    0.836042 0.042944 0.932120 0.148807
H50   H     H_    0.167189 0.049548 0.069177 0.152819
H51   H     H_    0.369852 0.432092 0.952314 0.164893
H52   H     H_    0.630782 0.441763 0.048673 0.167213
H53   H     H_    0.057324 0.169488 0.031500 0.188924
H54   H     H_    0.941845 0.165275 0.970965 0.183468
H55   H     H_    0.588110 0.629950 0.065723 0.201283
H56   H     H_    0.540285 0.328042 0.578590 0.139095
H57   H     H_    0.408385 0.621207 0.933334 0.202166
H58   H     H_    0.670387 0.755913 0.131038 0.141590
H59   H     H_    0.327622 0.753476 0.868543 0.146464
H60   H     H_    0.137147 0.273215 0.117827 0.172226
H61   H     H_    0.862151 0.269933 0.883570 0.165416
H62   H     H_    0.434742 0.744500 0.633371 0.279029
H63   H     H_    0.413985 0.877776 0.288669 0.290428
H64   H     H_    0.024034 0.297564 0.678865 0.295584
H65   H     H_    0.975477 0.279808 0.325065 0.292870
H66   H     H_    0.969185 0.852855 0.426633 0.112401
H67   H     H_    0.962996 0.854839 0.557705 0.157685
H68   H     H_    0.018336 0.254705 0.562646 0.110915
O1    O     O_R   0.788190 0.043000 0.172520 -0.484171
O2    O     O_R   0.454170 0.051610 0.669840 -0.481453
O3    O     O_R   0.045830 0.551610 0.330160 -0.503004
O4    O     O_R   0.954170 0.551610 0.669840 -0.512466
O5    O     O_R   0.681920 0.959720 0.327070 -0.512373
O6    O     O_R   0.318080 0.959720 0.672930 -0.511634
O7    O     O_R   0.181920 0.459720 0.327070 -0.510546
O8    O     O_R   0.818080 0.459720 0.672930 -0.517110
O9    O     O_3   0.668190 0.168190 0.250820 -0.289955
O10   O     O_3   0.331810 0.168190 0.749180 -0.283713
O11   O     O_3   0.168190 0.668190 0.250820 -0.298525
O12   O     O_R   0.211810 0.043000 0.827480 -0.488823
O13   O     O_3   0.831810 0.668190 0.749180 -0.288650
O14   O     O_R   0.766240 0.292300 0.176860 -0.481075
O15   O     O_R   0.233760 0.292300 0.823140 -0.484743
O16   O     O_R   0.266240 0.792300 0.176860 -0.493923
O17   O     O_R   0.733760 0.792300 0.823140 -0.504287
O18   O     O_R   0.670310 0.409160 0.168720 -0.526129
O19   O     O_R   0.329690 0.409160 0.831280 -0.518600
O20   O     O_R   0.170310 0.909160 0.168720 -0.506487
O21   O     O_R   0.829690 0.909160 0.831280 -0.517811
O22   O     O_R   0.556160 0.251900 0.173380 -0.491693
O23   O     O_R   0.288190 0.543000 0.172520 -0.491869
O24   O     O_R   0.443840 0.251900 0.826620 -0.494455
O25   O     O_R   0.056160 0.751900 0.173380 -0.493032
O26   O     O_R   0.943840 0.751900 0.826620 -0.495152
O27   O     O_R   0.545410 0.050140 0.168240 -0.497453
O28   O     O_R   0.454590 0.050140 0.831760 -0.498988
O29   O     O_R   0.045410 0.550140 0.168240 -0.489953
O30   O     O_R   0.954590 0.550140 0.831760 -0.482529
O31   O     O_R   0.681530 0.958350 0.176970 -0.506644
O32   O     O_R   0.318470 0.958350 0.823030 -0.506444
O33   O     O_R   0.181530 0.458350 0.176970 -0.505914
O34   O     O_R   0.711810 0.543000 0.827480 -0.483137
O35   O     O_R   0.818470 0.458350 0.823030 -0.508751
O36   O     O_R   0.788610 0.044480 0.334450 -0.517401
O37   O     O_R   0.211390 0.044480 0.665550 -0.514719
O38   O     O_R   0.288610 0.544480 0.334450 -0.545288
O39   O     O_R   0.711390 0.544480 0.665550 -0.523509
O40   O     O_R   0.766630 0.293670 0.326970 -0.486720
O41   O     O_R   0.233370 0.293670 0.673030 -0.479423
O42   O     O_R   0.266630 0.793670 0.326970 -0.489304
O43   O     O_R   0.733370 0.793670 0.673030 -0.507619
O44   O     O_R   0.670730 0.410640 0.330640 -0.540563
O45   O     O_R   0.556550 0.253260 0.323480 -0.505467
O46   O     O_R   0.329270 0.410640 0.669360 -0.537098
O47   O     O_R   0.170730 0.910640 0.330640 -0.501492
O48   O     O_R   0.829270 0.910640 0.669360 -0.520452
O49   O     O_2   0.559770 0.919585 0.641075 -0.492615
O50   O     O_R   0.485089 0.764286 0.646607 -0.679481
O51   O     O_2   0.372106 0.138881 0.333062 -0.495734
O52   O     O_R   0.388524 0.957527 0.280842 -0.645726
O53   O     O_2   0.109370 0.529687 0.649249 -0.492401
O54   O     O_R   0.065122 0.353517 0.687448 -0.635303
O55   O     O_2   0.890194 0.518946 0.336228 -0.497325
O56   O     O_R   0.443450 0.253260 0.676520 -0.503328
O57   O     O_R   0.935886 0.336634 0.310079 -0.636285
O58   O     O_R   0.056550 0.753260 0.323480 -0.551864
O59   O     O_R   0.943450 0.753260 0.676520 -0.501704
O60   O     O_R   0.545830 0.051610 0.330160 -0.532926

loop_
_geom_bond_atom_site_label_1
_geom_bond_atom_site_label_2
_ccdc_geom_bond_type
C57   O19   A    
C114  C115  A    
C135  O32   A    
C45   C87   S    
C84   H61   S    
C4    C142  A    
C95   C99   A    
C5    C143  A    
C10   H25   S    
C38   H35   S    
C5    H19   S    
C38   C45   S    
C131  C140  A    
C23   O47   A    
H64   O54   S    
C46   C55   A    
C138  H14   S    
Cr1   O9    S    
C97   C105  A    
C137  O34   A    
C94   C104  A    
C100  C109  A    
C15   C127  A    
C17   C30   S    
C64   H50   S    
C117  C139  A    
C20   C132  A    
C118  C140  A    
C19   C32   S    
C35   C134  A    
C112  H38   S    
C31   O6    A    
C85   O27   A    
C50   O53   D    
C43   C85   S    
C74   Cl3   S    
C104  H56   S    
Cr9   O46   S    
C71   C73   A    
C7    H21   S    
C120  C125  A    
C49   O52   S    
Cr2   O6    S    
C37   H33   S    
C37   C38   S    
C47   C123  S    
C53   C58   A    
C69   H46   S    
C34   C44   S    
C111  C113  A    
C67   C74   A    
C33   O8    A    
C20   C33   S    
Cr4   O35   S    
C119  C141  A    
C18   C130  A    
C111  H68   S    
C66   H52   S    
C53   C71   A    
C56   C83   A    
C22   C118  S    
C136  O33   A    
C29   O4    A    
C14   C126  A    
C80   H54   S    
C44   C101  S    
Cr4   O8    S    
Cr8   O9    S    
C59   C63   A    
Cr2   O2    S    
C60   C64   A    
C21   C119  S    
C9    H24   S    
C76   H55   S    
C77   H57   S    
C77   C82   A    
C30   O5    A    
C61   C65   A    
Cr9   O10   S    
C98   C99   A    
C62   C93   A    
C49   O51   D    
C106  H67   S    
C18   C31   S    
Cr11  O26   S    
Cr6   O42   S    
C54   C81   A    
C21   O44   A    
C28   C97   S    
C23   O42   A    
C87   O29   A    
Cr10  O47   S    
C68   O20   A    
C99   C108  A    
C144  H11   S    
C74   C76   A    
C108  C115  A    
C123  H39   S    
C25   O48   A    
C2    C68   S    
C109  C111  A    
C93   C137  S    
C101  H37   S    
C48   C107  S    
C13   C57   S    
C86   O28   A    
C72   Cl1   S    
C118  C122  A    
C122  C127  A    
C42   C112  S    
C72   C78   A    
Cr3   O3    S    
C82   H59   S    
C37   C47   S    
C28   O58   A    
C15   H29   S    
C131  H7    S    
C95   C103  A    
C49   C108  S    
Cr7   O17   S    
C89   C133  S    
Cr12  O9    S    
C62   C66   A    
C34   C39   S    
Cr11  O21   S    
C25   C116  S    
C27   O56   A    
C70   H47   S    
C12   H27   S    
Cr12  O31   S    
C116  C120  A    
C5    C9    A    
C61   H42   S    
C110  C113  A    
C35   C67   A    
C59   H40   S    
C8    C12   A    
Cr3   O7    S    
C75   C77   A    
C25   O43   A    
C22   O41   A    
Cr5   O15   S    
C6    C144  A    
Cr3   O29   S    
C132  C141  A    
C79   C134  S    
C41   C45   S    
C6    H20   S    
C36   H32   S    
C103  H45   S    
C143  H10   S    
C4    H18   S    
C27   C94   S    
C23   C117  S    
C29   C96   S    
C24   C66   A    
Cr1   O1    S    
Cr4   O13   S    
Cr8   O18   S    
C18   C126  A    
C96   C100  A    
C34   C36   S    
C37   C41   S    
C1    O14   A    
C40   C44   S    
C90   H36   S    
C1    C24   S    
Cr4   O4    S    
C31   O37   A    
C11   H26   S    
C80   C84   A    
C48   O49   D    
Cr5   O10   S    
C50   O54   S    
C141  H17   S    
Cr11  O48   S    
C79   O17   A    
C58   C93   A    
C3    C7    A    
Cr8   O22   S    
C94   C98   A    
C135  O12   A    
C55   C91   A    
C21   O40   A    
C78   C83   A    
Cr1   O14   S    
C97   C102  A    
C61   C92   A    
C88   O30   A    
Cr10  O11   S    
C124  C128  A    
C29   O59   A    
C35   C54   A    
C92   C136  S    
C63   H49   S    
C130  C139  A    
C78   H53   S    
C86   O24   A    
Cr6   O16   S    
C43   C90   S    
C63   C134  A    
C112  C123  S    
C88   O26   A    
C12   C125  A    
C24   C53   A    
C50   C109  S    
C98   C107  A    
Cr5   O37   S    
C9    C14   A    
C107  C114  A    
C26   O60   A    
C26   O45   A    
C13   C52   A    
C14   H28   S    
C11   C16   A    
C130  H6    S    
C27   O2    A    
Cr9   O19   S    
Cr8   O45   S    
C16   H30   S    
C142  H9    S    
Cr7   O13   S    
C71   H48   S    
C51   C110  S    
Cr12  O5    S    
C102  C110  A    
C40   H12   S    
C3    C124  A    
Cr12  O27   S    
C8    H22   S    
Cr5   O12   S    
C51   O57   S    
C6    C10   A    
Cr7   O43   S    
C38   C42   S    
Cr8   O44   S    
Cr3   O11   S    
C105  C106  A    
C129  H5    S    
C1    O18   A    
C57   O15   A    
C75   Cl4   S    
C69   C75   A    
C133  O1    A    
Cr3   O33   S    
Cr4   O30   S    
C60   H41   S    
C133  O31   A    
C91   C135  S    
C103  C104  A    
C41   H23   S    
C36   C43   S    
Cr1   O40   S    
C40   C90   S    
Cr11  O13   S    
C22   O46   A    
C32   O7    A    
C121  C143  A    
C139  H15   S    
C122  C144  A    
C4    C8    A    
C45   C112  S    
C13   C65   A    
C119  C124  A    
C2    C46   A    
C7    C11   A    
C33   O39   A    
C34   H31   S    
C20   C128  A    
C10   C15   A    
C59   C89   A    
Cr6   O23   S    
C115  H4    S    
C42   H34   S    
C117  C121  A    
C46   C69   A    
C67   H44   S    
Cr2   O32   S    
C113  H2    S    
Cr7   O34   S    
C3    H13   S    
C129  C138  A    
Cr2   O10   S    
C136  O23   A    
C32   O38   A    
C39   H1    S    
Cr1   O36   S    
C140  H16   S    
C85   O22   A    
C79   O21   A    
C51   O55   D    
Cr10  O20   S    
C44   C86   S    
C2    C64   A    
C39   C101  S    
C116  C138  A    
C19   C131  A    
C17   C129  A    
C36   C40   S    
C120  C142  A    
C54   C89   A    
C87   O25   A    
C39   C43   S    
H63   O52   S    
Cr6   O11   S    
Cr11  O59   S    
Cr12  O60   S    
H65   O57   S    
C90   C101  S    
C58   C84   A    
Cr2   O28   S    
C100  C102  A    
C105  H66   S    
C55   C82   A    
C16   C128  A    
C28   O3    A    
Cr9   O56   S    
H62   O50   S    
Cr9   O24   S    
C137  O35   A    
C60   C91   A    
C26   C95   S    
Cr10  O58   S    
C96   C106  A    
Cr5   O41   S    
C132  H8    S    
Cr6   O38   S    
C76   C81   A    
C48   O50   S    
C73   Cl2   S    
C47   C88   S    
C41   C123  S    
Cr10  O25   S    
C121  C126  A    
C83   H60   S    
C17   C125  A    
C114  H3    S    
C68   O16   A    
C81   H58   S    
C19   C127  A    
C73   C80   A    
C30   O36   A    
C42   C47   S    
C62   H43   S    
C65   H51   S    
C52   C70   A    
C56   C92   A    
C70   C72   A    
Cr7   O39   S    
C52   C56   A    
