data_mof_unit_31346.cif
_audit_creation_date              2012-12-11T17:37:49-0500
_audit_creation_method            fapswitch 2.2
_symmetry_space_group_name_H-M    P1
_symmetry_Int_Tables_number       1
_space_group_crystal_system       triclinic
_cell_length_a                    13.018475
_cell_length_b                    13.051511
_cell_length_c                    15.442648
_cell_angle_alpha                 116.420888
_cell_angle_beta                  63.61712
_cell_angle_gamma                 97.144444
_cell_volume                      2096.24461305

loop_
_atom_site_label
_atom_site_type_symbol
_atom_type_description
_atom_site_fract_x
_atom_site_fract_y
_atom_site_fract_z
_atom_type_partial_charge
C1    C     C_R   0.001303 0.832777 0.052145 -0.120963
C2    C     C_R   0.303638 0.586830 0.788709 -0.161946
C3    C     C_R   0.259368 0.417265 0.048231 -0.156647
C4    C     C_R   0.678833 0.473568 0.219599 -0.081520
C5    C     C_R   0.049879 0.278447 0.685040 -0.141666
C6    C     C_R   0.362058 0.435955 0.976043 0.151225
C7    C     C_R   0.038031 0.169907 0.680932 0.051369
C8    C     C_R   0.303839 0.550910 0.690612 0.068562
C9    C     C_R   0.008809 0.152471 0.044043 0.042691
C10   C     C_R   0.426834 0.800207 0.135935 -0.152873
C11   C     C_R   0.335383 0.826354 0.237342 -0.124306
C12   C     C_R   0.671923 0.550193 0.319740 0.034856
C13   C     C_R   0.266846 0.931309 0.295328 0.133891
C14   C     C_R   0.291653 0.010112 0.251440 -0.232886
C15   C     C_R   0.381231 0.982449 0.149093 -0.079558
C16   C     C_R   0.755267 0.520889 0.894362 -0.172246
C17   C     C_R   0.449277 0.877907 0.091473 -0.051835
C18   C     C_R   0.151081 0.046774 0.491346 -0.253323
C19   C     C_R   0.051958 0.066499 0.586920 0.068905
C20   C     C_R   0.963108 0.991905 0.589118 0.044741
C21   C     C_R   0.974233 0.901611 0.494919 -0.249835
C22   C     C_R   0.070611 0.883965 0.399090 0.062273
C23   C     C_R   0.661810 0.461754 0.927934 0.156811
C24   C     C_R   0.162157 0.953560 0.396249 0.021630
C25   C     C_R   0.849238 0.922665 0.727281 -0.278386
C26   C     C_R   0.761798 0.939737 0.827874 -0.280083
C27   C     C_R   0.682040 0.036346 0.889265 0.713023
C28   C     C_R   0.013506 0.698665 0.301771 -0.166185
C29   C     C_R   0.683883 0.109708 0.843618 -0.292618
C30   C     C_R   0.772150 0.092979 0.742965 -0.192841
C31   C     C_R   0.858392 0.002156 0.686817 0.127925
C32   C     C_R   0.866919 0.335021 0.355178 -0.256906
C33   C     C_R   0.751782 0.369231 0.390481 0.666043
C34   C     C_R   0.064229 0.797160 0.304714 0.068578
C35   C     C_R   0.708095 0.484050 0.464616 -0.053244
C36   C     C_R   0.776509 0.560306 0.508433 -0.265431
C37   C     C_R   0.892131 0.527219 0.468077 -0.131018
C38   C     C_R   0.937510 0.414474 0.392391 -0.180406
C39   C     C_R   0.504465 0.534423 0.579978 -0.271163
C40   C     C_R   0.675605 0.424236 0.992445 -0.126640
C41   C     C_R   0.394794 0.566652 0.602739 0.067236
C42   C     C_R   0.375069 0.604873 0.538841 0.019832
C43   C     C_R   0.467565 0.601271 0.445902 -0.273859
C44   C     C_R   0.577594 0.563092 0.420327 0.093302
C45   C     C_R   0.338373 0.517127 0.951619 -0.114541
C46   C     C_R   0.595843 0.529551 0.488388 0.108811
C47   C     C_R   0.193435 0.563261 0.521411 -0.182963
C48   C     C_R   0.073687 0.576167 0.577159 -0.152883
C49   C     C_R   0.017385 0.675507 0.671667 -0.104839
C50   C     C_R   0.081405 0.761696 0.711993 -0.102390
C51   C     C_R   0.201573 0.744598 0.661628 -0.129080
C52   C     C_R   0.089551 0.802832 0.210463 -0.135378
C53   C     C_R   0.257813 0.643212 0.567980 0.135000
C54   C     C_2   0.475352 0.395772 0.949161 -0.202149
C55   C     C_2   0.567751 0.440146 0.898403 -0.221422
C56   C     C_R   0.978905 0.180597 0.783863 -0.115336
C57   C     C_2   0.836932 0.956861 0.084151 -0.247828
C58   C     C_2   0.822060 0.039928 0.180124 -0.042998
C59   C     C_R   0.781926 0.571258 0.309478 -0.119718
C60   C     C_R   0.902180 0.747785 0.955173 -0.132300
C61   C     C_R   0.914786 0.852022 0.029531 0.119602
C62   C     C_3   0.594738 0.166378 0.067888 -0.334779
C63   C     C_3   0.626375 0.235168 0.407679 -0.281034
C64   C     C_R   0.206428 0.495699 0.691129 -0.108859
C65   C     C_R   0.053079 0.255209 0.086720 -0.115096
C66   C     C_R   0.950665 0.172538 0.995526 -0.110325
H1    H     H_    0.030578 0.895328 0.108935 0.091964
H2    H     H_    0.478866 0.718888 0.091017 0.124449
H3    H     H_    0.316420 0.764119 0.269759 0.111395
H4    H     H_    0.608678 0.436089 0.200016 0.089007
H5    H     H_    0.238170 0.090289 0.294169 0.116366
H6    H     H_    0.395697 0.041382 0.113969 0.160455
H7    H     H_    0.218978 0.104157 0.491068 0.133352
H8    H     H_    0.903405 0.847722 0.496265 0.132765
H9    H     H_    0.913324 0.850561 0.682606 0.157146
H10   H     H_    0.758652 0.880070 0.860040 0.129398
H11   H     H_    0.618602 0.180492 0.886464 0.136595
H12   H     H_    0.956184 0.112552 0.808215 0.113504
H13   H     H_    0.776299 0.153301 0.711190 0.144018
H14   H     H_    0.027663 0.389204 0.361317 0.121372
H15   H     H_    0.777908 0.549372 0.832679 0.094699
H16   H     H_    0.902651 0.248084 0.296257 0.131140
H17   H     H_    0.743657 0.648878 0.565033 0.145702
H18   H     H_    0.946874 0.591404 0.492442 0.131500
H19   H     H_    0.518214 0.505661 0.630436 0.126196
H20   H     H_    0.454079 0.626590 0.393422 0.134297
H21   H     H_    0.235434 0.482942 0.451484 0.108582
H22   H     H_    0.025348 0.505611 0.550394 0.121527
H23   H     H_    0.178737 0.459502 0.628570 0.106569
H24   H     H_    0.924396 0.684564 0.714573 0.095049
H25   H     H_    0.037961 0.838543 0.785531 0.112726
H26   H     H_    0.995139 0.661611 0.356671 0.109725
H27   H     H_    0.250269 0.806276 0.699353 0.108370
H28   H     H_    0.478131 0.350341 0.992198 0.118072
H29   H     H_    0.566040 0.481816 0.851986 0.126759
H30   H     H_    0.784873 0.964316 0.048117 0.158112
H31   H     H_    0.868399 0.036260 0.222374 0.096353
H32   H     H_    0.627433 0.364464 0.022218 0.072834
H33   H     H_    0.138321 0.864287 0.182853 0.109782
H34   H     H_    0.091510 0.274043 0.140769 0.085899
H35   H     H_    0.806055 0.630733 0.371126 0.117190
H36   H     H_    0.839469 0.731637 0.923676 0.094217
H37   H     H_    0.397377 0.556545 0.902598 0.087000
H38   H     H_    0.532226 0.222322 0.073523 0.138278
H39   H     H_    0.680234 0.201946 0.051488 0.148732
H40   H     H_    0.561867 0.166687 0.147743 0.203321
H41   H     H_    0.564182 0.294908 0.489764 0.140499
H42   H     H_    0.686553 0.186734 0.412695 0.132703
H43   H     H_    0.576374 0.172007 0.369200 0.186295
H44   H     H_    0.893591 0.115385 0.966730 0.096260
H45   H     H_    0.360982 0.643465 0.817744 0.100976
H46   H     H_    0.249088 0.363499 0.087561 0.093090
H47   H     H_    0.086511 0.300507 0.618328 0.095493
H48   H     H_    0.518525 0.856480 0.011999 0.132096
N1    N     N_R   0.037320 0.720000 0.995830 -0.044835
N2    N     N_R   0.824900 0.517970 0.936430 -0.039165
N3    N     N_R   0.003190 0.648180 0.211390 -0.038331
N4    N     N_R   0.774330 0.457010 0.995830 -0.046052
N5    N     N_R   0.053760 0.709130 0.151980 -0.041244
N6    N     N_R   0.853840 0.498830 0.211390 -0.037129
N7    N     N_R   0.974250 0.667320 0.936430 -0.038018
N8    N     N_R   0.225670 0.542990 0.004170 -0.043967
N9    N     N_R   0.946240 0.290870 0.848020 -0.043379
N10   N     N_R   0.146160 0.501170 0.788610 -0.040836
N11   N     N_R   0.025750 0.332680 0.063570 -0.036816
N12   N     N_R   0.962680 0.280000 0.004170 -0.046149
N13   N     N_R   0.209230 0.553860 0.848010 -0.039414
N14   N     N_R   0.175100 0.482030 0.063570 -0.040434
N15   N     N_R   0.996810 0.351820 0.788610 -0.039162
N16   N     N_R   0.790770 0.446140 0.151990 -0.044660
Ni1   Ni    Ni4+2 0.130310 0.630310 0.000000 0.214236
Ni2   Ni    Ni4+2 0.869690 0.369690 0.000000 0.210722
Ni3   Ni    Ni4+2 0.985660 0.509480 0.863750 0.217439
Ni4   Ni    Ni4+2 0.014340 0.490520 0.136250 0.223661
O1    O     O_3   0.600855 0.052701 0.991078 -0.657621
O2    O     O_3   0.686258 0.293881 0.344526 -0.624685

loop_
_geom_bond_atom_site_label_1
_geom_bond_atom_site_label_2
_ccdc_geom_bond_type
N11   Ni4   S    
C25   C31   A    
C40   N4    A    
C36   H17   S    
C59   N6    A    
N1    N7    A    
C6    C45   A    
N9    Ni2   S    
C27   C29   A    
C14   H5    S    
C35   C36   A    
C49   H24   S    
C3    C6    A    
C4    H4    S    
C39   C41   A    
C62   H39   S    
N1    Ni1   S    
C15   H6    S    
C26   C27   A    
C37   C38   A    
N10   Ni3   S    
C18   C24   A    
C7    C56   A    
C36   C37   A    
C28   N3    A    
N3    N5    A    
C42   C53   S    
C40   H32   S    
C30   C31   A    
C10   C17   A    
C23   C40   A    
C56   H12   S    
C18   C19   A    
C41   C42   A    
C9    C66   A    
C45   H37   S    
C1    H1    S    
C12   C59   A    
C19   C20   A    
C57   H30   S    
C26   H10   S    
C48   H22   S    
C37   H18   S    
C32   C38   A    
C4    C12   A    
N6    Ni4   S    
C47   C53   A    
C2    N13   A    
C5    N15   A    
C28   C34   A    
C21   C22   A    
N9    N15   A    
C58   H31   S    
C64   H23   S    
C6    C54   S    
C60   H36   S    
N3    Ni4   S    
C16   N2    A    
C44   C46   A    
C17   H48   S    
C62   H38   S    
N7    Ni3   S    
C22   C34   S    
C2    H45   S    
C59   H35   S    
C56   N9    A    
C8    C41   S    
C55   H29   S    
C5    C7    A    
C3    N14   A    
C4    N16   A    
N2    Ni3   S    
C25   C26   A    
C64   N10   A    
C21   H8    S    
C66   N12   A    
C13   C24   S    
C60   C61   A    
C25   H9    S    
C65   N11   A    
C62   O1    S    
C63   H43   S    
N16   Ni2   S    
C43   C44   A    
C29   C30   A    
N14   Ni4   S    
N5    Ni1   S    
C47   C48   A    
N12   Ni2   S    
C3    H46   S    
C9    C65   A    
C50   C51   A    
C28   H26   S    
C66   H44   S    
C57   C61   S    
C8    C64   A    
C39   C46   A    
N15   Ni3   S    
C30   H13   S    
C48   C49   A    
C51   H27   S    
C18   H7    S    
C7    C19   S    
N10   N13   A    
N11   N12   A    
N6    N16   A    
C42   C43   A    
C39   H19   S    
C63   H41   S    
N8    Ni1   S    
C15   C17   A    
C54   C55   D    
C5    H47   S    
C43   H20   S    
C2    C8    A    
C65   H34   S    
C1    C61   A    
C11   H3    S    
C23   C55   S    
C62   H40   S    
C10   H2    S    
C45   N8    A    
C16   C23   A    
C32   H16   S    
C52   H33   S    
C34   C52   A    
C27   O1    S    
C63   O2    S    
C12   C44   S    
C32   C33   A    
C11   C13   A    
C33   O2    S    
C57   C58   D    
C38   H14   S    
C16   H15   S    
C33   C35   A    
N2    N4    A    
C22   C24   A    
N8    N14   A    
C60   N7    A    
N13   Ni1   S    
C54   H28   S    
N4    Ni2   S    
C10   C11   A    
C52   N5    A    
C50   H25   S    
C29   H11   S    
C20   C21   A    
C49   C50   A    
C14   C15   A    
C1    N1    A    
C51   C53   A    
C63   H42   S    
C13   C14   A    
C35   C46   S    
C47   H21   S    
C20   C31   S    
