data_mof_unit_15401.cif
_audit_creation_date              2012-12-11T19:53:47-0500
_audit_creation_method            fapswitch 2.2
_symmetry_space_group_name_H-M    P1
_symmetry_Int_Tables_number       1
_space_group_crystal_system       triclinic
_cell_length_a                    8.439929
_cell_length_b                    16.313476
_cell_length_c                    17.184924
_cell_angle_alpha                 112.083559
_cell_angle_beta                  82.131555
_cell_angle_gamma                 96.702356
_cell_volume                      2166.37818165

loop_
_atom_site_label
_atom_site_type_symbol
_atom_type_description
_atom_site_fract_x
_atom_site_fract_y
_atom_site_fract_z
_atom_type_partial_charge
Ba1   Ba    Ba6+2 0.325860 0.460280 0.530510 1.613588
Ba2   Ba    Ba6+2 0.863950 0.539650 0.469460 1.636797
C1    C     C_3   0.909130 0.171446 0.726210 0.003949
C2    C     C_3   0.921333 0.258016 0.701835 0.355685
C3    C     C_3   0.980768 0.692870 0.743473 0.302343
C4    C     C_3   0.960179 0.726790 0.839622 -0.418647
C5    C     C_3   0.665323 0.750213 0.299474 0.406665
C6    C     C_3   0.604793 0.821023 0.273722 -0.184885
C7    C     C_3   0.178371 0.765927 0.342584 0.359385
C8    C     C_3   0.176559 0.856764 0.337132 -0.374949
C9    C     C_2   0.767905 0.505145 0.727941 -0.263352
C10   C     C_3   0.891380 0.509983 0.785999 0.000399
C11   C     C_2   0.813617 0.504108 0.868579 -0.099123
C12   C     C_3   0.367205 0.275647 0.697921 0.306851
C13   C     C_2   0.656285 0.516602 0.892285 -0.012632
C14   C     C_2   0.559190 0.535316 0.834401 -0.143499
C15   C     C_1   0.626429 0.537191 0.760081 0.031066
C16   C     C_R   0.390520 0.520864 0.139734 -0.094241
C17   C     C_R   0.344933 0.543513 0.225582 0.056976
C18   C     C_R   0.567402 0.466158 0.238480 0.049002
C19   C     C_R   0.613139 0.442908 0.149745 -0.044941
C20   C     C_R   0.526169 0.473593 0.101069 0.056066
C21   C     C_2   0.589078 0.524057 0.979656 -0.172525
C22   C     C_2   0.572941 0.456302 0.008852 -0.027813
C23   C     C_3   0.340337 0.255409 0.778311 -0.381965
C24   C     C_R   0.439766 0.522678 0.276371 -0.216742
C25   C     C_2   0.410277 0.767050 0.539832 -0.251036
C26   C     C_R   0.808639 0.252831 0.483700 -0.297694
C27   C     C_2   0.210170 0.877378 0.586228 -0.151268
C28   C     C_2   0.246238 0.795166 0.573172 0.022262
C29   C     C_2   0.518739 0.816281 0.507982 0.014914
C30   C     C_3   0.470173 0.900641 0.502737 -0.071077
C31   C     C_3   0.337429 0.944254 0.571976 0.035834
C32   C     C_2   0.607822 0.967562 0.501397 -0.081054
C33   C     C_2   0.587500 0.034449 0.477366 -0.067036
C34   C     C_3   0.683573 0.266467 0.321210 0.306551
C35   C     C_R   0.872590 0.076358 0.441032 -0.044138
C36   C     C_R   0.717135 0.102229 0.473143 -0.033808
C37   C     C_R   0.993404 0.137120 0.427775 -0.126501
C38   C     C_R   0.961191 0.225338 0.447028 0.137934
C39   C     C_R   0.684807 0.191328 0.494086 0.008379
C40   C     C_3   0.699031 0.166778 0.278281 -0.377370
C41   C     C_3   0.452321 0.745289 0.798313 0.343824
C42   C     C_3   0.540027 0.768718 0.877037 -0.417487
C43   C     C_3   0.170152 0.265282 0.228119 0.278245
C44   C     C_3   0.125700 0.198951 0.141254 -0.270006
H1    H     H_    0.993578 0.243934 0.639509 0.030416
H2    H     H_    0.793478 0.152830 0.224268 0.145308
H3    H     H_    0.731262 0.138559 0.322681 0.063371
H4    H     H_    0.583989 0.132741 0.254640 0.097021
H5    H     H_    0.338280 0.706193 0.805121 0.049246
H6    H     H_    0.572828 0.708453 0.883861 0.080387
H7    H     H_    0.461390 0.804669 0.934448 0.088252
H8    H     H_    0.650795 0.811546 0.873371 0.122532
H9    H     H_    0.139190 0.129854 0.135477 0.089912
H10   H     H_    0.203393 0.211902 0.088757 0.130276
H11   H     H_    0.998894 0.203856 0.133599 0.122102
H12   H     H_    0.860792 0.683615 0.720656 0.053318
H13   H     H_    0.038145 0.628861 0.719014 0.028449
H14   H     H_    0.930684 0.797221 0.865656 0.133545
H15   H     H_    0.861905 0.687392 0.862188 0.069543
H16   H     H_    0.072301 0.721936 0.864033 0.097603
H17   H     H_    0.455040 0.262767 0.804755 0.113077
H18   H     H_    0.557148 0.715899 0.321451 -0.067378
H19   H     H_    0.525865 0.788442 0.222154 0.072993
H20   H     H_    0.530837 0.865172 0.328479 0.090090
H21   H     H_    0.298368 0.759569 0.358292 -0.077811
H22   H     H_    0.086446 0.762039 0.394031 0.106829
H23   H     H_    0.209164 0.909363 0.397154 0.074491
H24   H     H_    0.055297 0.866747 0.325937 0.149146
H25   H     H_    0.253524 0.289482 0.682643 0.102650
H26   H     H_    0.263253 0.862520 0.284431 0.105152
H27   H     H_    0.435908 0.551823 0.855626 0.101377
H28   H     H_    0.318133 0.539430 0.102361 0.076092
H29   H     H_    0.561560 0.590114 0.023189 0.086847
H30   H     H_    0.888650 0.496125 0.911501 0.089201
H31   H     H_    0.802114 0.482154 0.660373 0.073287
H32   H     H_    0.091998 0.898681 0.614571 0.092309
H33   H     H_    0.451494 0.335717 0.710252 0.047167
H34   H     H_    0.108679 0.113486 0.396922 0.106571
H35   H     H_    0.441324 0.704440 0.540073 0.067743
H36   H     H_    0.782855 0.320862 0.498779 0.070537
H37   H     H_    0.721349 0.963519 0.522386 0.097266
H38   H     H_    0.470520 0.039433 0.460608 0.103496
H39   H     H_    0.258848 0.302391 0.826196 0.147148
H40   H     H_    0.291331 0.186179 0.765231 0.120025
H41   H     H_    0.794610 0.298637 0.349944 0.043316
H42   H     H_    0.580405 0.278431 0.370790 0.050513
O1    O     O_2   0.351410 0.559500 0.703710 -0.476790
O2    O     O_3   0.071844 0.238694 0.288618 -0.666204
O3    O     O_3   0.425801 0.201943 0.630607 -0.626697
O4    O     O_2   0.838300 0.440470 0.296230 -0.445931
O5    O     O_3   0.567380 0.446810 0.395500 -0.524744
O6    O     O_3   0.111820 0.604620 0.376600 -0.499161
O7    O     O_3   0.659941 0.299344 0.259866 -0.639460
O8    O     O_3   0.149150 0.609060 0.561440 -0.483257
O9    O     O_3   0.701290 0.652490 0.425560 -0.487496
O10   O     O_2   0.847039 0.810253 0.508818 -0.488555
O11   O     O_3   0.773462 0.790731 0.361357 -0.598355
O12   O     O_3   0.622300 0.553110 0.604480 -0.459415
O13   O     O_3   0.040530 0.390860 0.438530 -0.504815
O14   O     O_2   0.927940 0.718960 0.581060 -0.436576
O15   O     O_3   0.077918 0.755831 0.718509 -0.646609
O16   O     O_2   0.010799 0.538416 0.224396 -0.443606
O17   O     O_3   0.143908 0.699800 0.265047 -0.613805
O18   O     O_3   0.077860 0.395310 0.623380 -0.489557
O19   O     O_2   0.202062 0.461039 0.770260 -0.494846
O20   O     O_3   0.551489 0.701042 0.724426 -0.611594
O21   O     O_3   0.997151 0.331200 0.762908 -0.597059
O22   O     O_2   0.261760 0.281010 0.418880 -0.475766
O23   O     O_3   0.488390 0.347430 0.574410 -0.493457
O24   O     O_2   0.354991 0.187301 0.483320 -0.493134
P1    P     P_3+3 0.533580 0.585010 0.696460 0.990097
P2    P     P_3+3 0.097450 0.292710 0.397510 0.948596
P3    P     P_3+3 0.486846 0.232196 0.542904 0.921845
P4    P     P_3+3 0.656110 0.414920 0.303520 0.951216
P5    P     P_3+3 0.708797 0.767616 0.452820 0.962619
P6    P     P_3+3 0.040130 0.424863 0.733525 0.940639
P7    P     P_3+3 0.100421 0.720528 0.608425 0.961706
P8    P     P_3+3 0.152449 0.595678 0.271346 0.978840
C45   C     C_3   0.409544 0.831160 0.792285 -0.304088
H43   H     H_    0.363850 0.816872 0.730811 0.116604
H44   H     H_    0.316194 0.863066 0.843848 0.084374
H45   H     H_    0.517104 0.878345 0.796283 0.099334
C46   C     C_3   0.344357 0.258123 0.233097 -0.334573
H46   H     H_    0.363246 0.191503 0.232000 0.117655
H47   H     H_    0.419767 0.270066 0.179481 0.097897
H48   H     H_    0.378051 0.309046 0.292896 0.088681
C47   C     C_2   0.142378 0.357919 0.236992 0.485222
H49   H     H_    0.139834 0.410741 0.298200 0.002512
O25   O     O_2   0.126476 0.375046 0.175289 -0.599468
C48   C     C_3   0.015554 0.101979 0.659452 -0.518350
H50   H     H_    0.139919 0.129793 0.652120 0.152966
H51   H     H_    0.968530 0.078788 0.596858 0.142720
H52   H     H_    0.018462 0.043507 0.677254 0.122654
C49   C     C_3   0.759799 0.282894 0.691461 -0.331104
H53   H     H_    0.692007 0.313957 0.753365 0.085557
H54   H     H_    0.773444 0.329064 0.657319 0.045617
H55   H     H_    0.694795 0.223342 0.652468 0.103061
C50   C     C_3   0.739032 0.124190 0.729333 -0.394031
H56   H     H_    0.741101 0.067086 0.749583 0.109940
H57   H     H_    0.653884 0.169779 0.775631 0.152092
H58   H     H_    0.692592 0.096545 0.666504 0.126550
C51   C     C_2   0.964335 0.192049 0.812641 0.601437
H59   H     H_    0.045380 0.150033 0.821505 -0.035641
O26   O     O_2   0.908936 0.251547 0.874809 -0.571081
C52   C     C_3   0.749194 0.679526 0.223766 -0.280326
H60   H     H_    0.673448 0.653444 0.170525 0.029651
H61   H     H_    0.769864 0.623883 0.242282 0.135457
H62   H     H_    0.866615 0.706599 0.202486 0.141776
C53   C     C_3   0.738471 0.878802 0.245609 -0.382140
H63   H     H_    0.684508 0.929499 0.230837 0.111356
H64   H     H_    0.811425 0.838343 0.188040 0.117658
H65   H     H_    0.816784 0.913846 0.296744 0.154464
C54   C     C_2   0.591210 0.363973 0.949585 0.506940
H66   H     H_    0.668573 0.350400 0.891456 0.039106
O27   O     O_2   0.516809 0.302103 0.965015 -0.580738
C55   C     C_3   0.753957 0.387283 0.106155 -0.283432
H67   H     H_    0.831042 0.380272 0.149376 0.184031
H68   H     H_    0.710635 0.319112 0.067741 0.154491
H69   H     H_    0.832581 0.417766 0.065497 0.123310
C56   C     C_3   0.396305 0.561321 0.370418 -0.254306
H70   H     H_    0.375959 0.632184 0.389085 0.032994
H71   H     H_    0.297051 0.519964 0.389675 0.130929
H72   H     H_    0.483728 0.569627 0.412086 0.167233

loop_
_geom_bond_atom_site_label_1
_geom_bond_atom_site_label_2
_ccdc_geom_bond_type
C2    O21   S    
C3    O15   S    
C19   C55   S    
C43   C47   S    
C54   O27   D    
C12   H25   S    
O8    P7    S    
C34   C40   S    
C52   H60   S    
C50   H58   S    
C15   P1    S    
C5    C6    S    
C43   C44   S    
C34   H42   S    
O2    P2    S    
C6    H20   S    
C35   C36   A    
C5    O11   S    
C3    H12   S    
C4    H15   S    
C52   H61   S    
C50   H57   S    
C32   C33   D    
Ba1   O8    S    
C3    C4    S    
C28   P7    S    
C26   C38   A    
C7    O17   S    
C13   C14   S    
C27   C31   S    
C26   C39   A    
C16   C17   A    
C23   H17   S    
C53   H65   S    
C17   C24   A    
C29   P5    S    
C45   H45   S    
C9    H31   S    
C55   H69   S    
O6    P8    S    
C42   H7    S    
C38   P2    S    
C27   H32   S    
Ba2   O9    S    
C43   C46   S    
C14   C15   D    
C44   H9    S    
C46   H48   S    
C21   C22   D    
O17   P8    S    
C7    C8    S    
O22   P2    D    
O19   P6    D    
C5    C52   S    
C22   C54   S    
Ba1   O18   S    
C2    C49   S    
C42   H6    S    
C13   C21   S    
Ba2   O12   S    
C6    H19   S    
C16   H28   S    
C19   C20   A    
O18   P6    S    
C25   C28   S    
C55   H68   S    
O13   P2    S    
Ba2   P4    S    
C39   P3    S    
C49   H55   S    
Ba1   O12   S    
O21   P6    S    
C56   H71   S    
C34   H41   S    
C12   O3    S    
O1    P1    D    
C3    H13   S    
C25   C29   D    
C14   H27   S    
C4    H14   S    
Ba2   O6    S    
C33   C36   S    
C50   H56   S    
C36   C39   A    
C49   H54   S    
C37   C38   A    
C18   P4    S    
C48   H50   S    
Ba2   O13   S    
C26   H36   S    
C24   C56   S    
C1    C48   S    
O5    P4    S    
C30   C32   S    
O20   P1    S    
C1    C51   S    
C41   C42   S    
C7    H21   S    
C27   C28   D    
Ba1   O22   S    
O11   P5    S    
C56   H72   S    
C29   C30   S    
C11   H30   S    
C25   H35   S    
O7    P4    S    
C53   H63   S    
C6    C53   S    
C23   H39   S    
C40   H2    S    
C12   H33   S    
C10   C11   S    
Ba2   O4    S    
C43   O2    S    
O4    P4    D    
C45   H43   S    
C40   H4    S    
C48   H51   S    
C10   P6    S    
C8    H24   S    
C51   O26   D    
C17   P8    S    
C11   C13   D    
C44   H11   S    
C46   H46   S    
C20   C22   S    
Ba1   P2    S    
C1    C2    S    
Ba1   O13   S    
C52   H62   S    
O10   P5    D    
C56   H70   S    
C41   C45   S    
C9    C15   D    
Ba1   O1    S    
C16   C20   A    
Ba2   O5    S    
O15   P7    S    
O12   P1    S    
C21   H29   S    
C51   H59   S    
C33   H38   S    
C37   H34   S    
C4    H16   S    
Ba2   O8    S    
C47   H49   S    
C7    H22   S    
C35   C37   A    
C30   C31   S    
C34   O7    S    
C41   H5    S    
C55   H67   S    
C18   C24   A    
C48   H52   S    
Ba1   Ba2   S    
C23   H40   S    
O3    P3    S    
C41   O20   S    
C53   H64   S    
C12   C23   S    
O9    P5    S    
C5    H18   S    
C45   H44   S    
Ba1   P1    S    
C40   H3    S    
C8    H23   S    
C42   H8    S    
C18   C19   A    
Ba1   O5    S    
C32   H37   S    
C44   H10   S    
C54   H66   S    
C46   H47   S    
Ba2   O14   S    
C49   H53   S    
O23   P3    S    
C1    C50   S    
C47   O25   D    
O24   P3    D    
Ba1   O23   S    
O14   P7    D    
C9    C10   S    
O16   P8    D    
C2    H1    S    
C8    H26   S    
