data_mof_unit_61312.cif
_audit_creation_date              2012-12-10T20:56:29-0500
_audit_creation_method            fapswitch 2.2
_symmetry_space_group_name_H-M    P1
_symmetry_Int_Tables_number       1
_space_group_crystal_system       triclinic
_cell_length_a                    26.512509
_cell_length_b                    32.975271
_cell_length_c                    21.18251
_cell_angle_alpha                 89.988522
_cell_angle_beta                  128.880908
_cell_angle_gamma                 90.01
_cell_volume                      14416.1286457

loop_
_atom_site_label
_atom_site_type_symbol
_atom_type_description
_atom_site_fract_x
_atom_site_fract_y
_atom_site_fract_z
_atom_type_partial_charge
C1    C     C_R   0.499999 0.145615 0.500005 0.821850
C2    C     C_R   0.759353 0.629112 0.660022 0.195236
C3    C     C_R   0.642226 0.750801 0.502060 0.915894
C4    C     C_R   0.141388 0.749968 0.500233 0.925422
C5    C     C_R   0.857773 0.250715 0.497956 0.912871
C6    C     C_R   0.858676 0.750061 0.499895 0.924604
C7    C     C_R   0.142232 0.250801 0.502072 0.915027
C8    C     C_R   0.395566 0.250065 0.291186 0.806481
C9    C     C_R   0.604414 0.749964 0.708817 0.822945
C10   C     C_R   0.604428 0.250063 0.708819 0.806155
C11   C     C_R   0.395567 0.749962 0.291181 0.817982
C12   C     C_R   0.895565 0.750064 0.291186 0.806530
C13   C     C_R   0.710824 0.378339 0.607955 0.215570
C14   C     C_R   0.104416 0.249965 0.708817 0.822818
C15   C     C_R   0.104428 0.750063 0.708819 0.806145
C16   C     C_R   0.895567 0.249962 0.291181 0.817933
C17   C     C_1   0.649570 0.250128 0.798953 -0.135751
C18   C     C_1   0.350491 0.749954 0.201046 -0.103645
C19   C     C_1   0.350392 0.250134 0.201052 -0.134067
C20   C     C_1   0.649392 0.749963 0.798955 -0.090386
C21   C     C_1   0.149570 0.750128 0.798953 -0.135732
C22   C     C_1   0.850491 0.249954 0.201046 -0.103659
C23   C     C_1   0.850389 0.750133 0.201052 -0.133773
C24   C     C_R   0.257707 0.623653 0.365069 0.188524
C25   C     C_1   0.149402 0.249965 0.798955 -0.090448
C26   C     C_1   0.687068 0.250139 0.873909 0.032987
C27   C     C_1   0.313038 0.749988 0.126089 0.049998
C28   C     C_1   0.312850 0.250158 0.126096 0.036085
C29   C     C_1   0.686774 0.750021 0.873916 0.061337
C30   C     C_1   0.187068 0.750139 0.873909 0.032987
C31   C     C_1   0.813039 0.249988 0.126089 0.049999
C32   C     C_1   0.812844 0.750157 0.126096 0.036461
C33   C     C_1   0.186789 0.250022 0.873916 0.060905
C34   C     C_1   0.731341 0.250099 0.962521 0.040130
C35   C     C_R   0.785444 0.876587 0.384522 0.214891
C36   C     C_1   0.268775 0.750046 0.037479 0.043583
C37   C     C_1   0.268523 0.250133 0.037484 0.042399
C38   C     C_1   0.731041 0.750085 0.962526 0.049093
C39   C     C_1   0.231341 0.750099 0.962521 0.040121
C40   C     C_1   0.768775 0.250046 0.037479 0.043591
C41   C     C_1   0.768511 0.750132 0.037484 0.042600
C42   C     C_1   0.231056 0.250086 0.962526 0.048786
C43   C     C_1   0.499928 0.399477 0.499873 -0.192397
C44   C     C_1   0.499911 0.600496 0.499850 -0.169945
C45   C     C_1   0.999925 0.899477 0.499867 -0.192462
C46   C     C_R   0.258694 0.128765 0.658842 0.195186
C47   C     C_1   0.999911 0.100496 0.499848 -0.169744
C48   C     C_1   0.499855 0.436944 0.499779 0.058232
C49   C     C_1   0.499824 0.563019 0.499743 0.021962
C50   C     C_1   0.999851 0.936944 0.499771 0.057868
C51   C     C_1   0.999825 0.063019 0.499740 0.022188
C52   C     C_3   0.324820 0.385211 0.274747 -0.118692
C53   C     C_3   0.844133 0.608273 0.845208 -0.107790
C54   C     C_3   0.674349 0.388255 0.720799 -0.111946
C55   C     C_3   0.315927 0.603468 0.279045 -0.111354
C56   C     C_3   0.824729 0.885011 0.274441 -0.118714
C57   C     C_R   0.210830 0.878348 0.607935 0.215515
C58   C     C_3   0.343172 0.107436 0.843791 -0.107558
C59   C     C_3   0.174344 0.888285 0.720763 -0.112040
C60   C     C_3   0.815921 0.103471 0.279037 -0.111374
C61   C     C_3   0.378002 0.355238 0.566952 -0.203368
C62   C     C_3   0.672670 0.638298 0.470815 -0.174821
C63   C     C_3   0.617559 0.354222 0.427607 -0.207811
C64   C     C_3   0.334660 0.640696 0.549470 -0.182429
C65   C     C_3   0.877296 0.855361 0.566412 -0.203129
C66   C     C_3   0.172188 0.138434 0.469758 -0.175019
C67   C     C_3   0.117574 0.854223 0.427590 -0.207708
C68   C     C_R   0.757697 0.123657 0.365055 0.188526
C69   C     C_3   0.834647 0.140697 0.549457 -0.182468
C70   C     C_3   0.135490 0.262643 0.253509 -0.184976
C71   C     C_3   0.827819 0.771264 0.739350 -0.263452
C72   C     C_3   0.865100 0.266381 0.743971 -0.183736
C73   C     C_3   0.168311 0.759776 0.254409 -0.254358
C74   C     C_3   0.635685 0.762167 0.253240 -0.185319
C75   C     C_3   0.327981 0.270687 0.739754 -0.263589
C76   C     C_3   0.365083 0.766379 0.743978 -0.183800
C77   C     C_3   0.668317 0.259785 0.254411 -0.254414
C78   C     C_3   0.165631 0.344221 0.467794 -0.161018
C79   C     C_R   0.285359 0.349767 0.436274 0.344349
C80   C     C_3   0.903190 0.710346 0.678149 -0.230122
C81   C     C_3   0.829600 0.344657 0.521945 -0.168725
C82   C     C_3   0.100493 0.702738 0.328290 -0.209443
C83   C     C_3   0.665105 0.844151 0.466538 -0.159518
C84   C     C_3   0.403032 0.209960 0.677882 -0.229869
C85   C     C_3   0.329610 0.844655 0.521971 -0.168654
C86   C     C_3   0.600487 0.202746 0.328280 -0.209436
C87   C     C_R   0.750838 0.655801 0.602311 0.401836
C88   C     C_R   0.711352 0.350709 0.557748 0.347851
C89   C     C_R   0.499999 0.854382 0.499994 0.799828
C90   C     C_R   0.258759 0.652501 0.414674 0.398676
C91   C     C_R   0.784887 0.849664 0.435628 0.343653
C92   C     C_R   0.250389 0.155600 0.601449 0.401686
C93   C     C_R   0.211359 0.850712 0.557736 0.347760
C94   C     C_R   0.758751 0.152505 0.414662 0.398693
C95   C     C_R   0.255030 0.311595 0.406242 -0.110334
C96   C     C_R   0.756867 0.698013 0.616458 -0.158805
C97   C     C_R   0.743009 0.313018 0.589543 -0.110333
C98   C     C_R   0.247710 0.693802 0.392143 -0.162364
C99   C     C_R   0.754802 0.811419 0.405780 -0.110489
C100  C     C_R   1.000000 0.645615 0.500005 0.821822
C101  C     C_R   0.256650 0.197775 0.616039 -0.158887
C102  C     C_R   0.243008 0.813020 0.589539 -0.110352
C103  C     C_R   0.747705 0.193806 0.392135 -0.162372
C104  C     C_R   0.227944 0.299992 0.326494 0.377227
C105  C     C_R   0.767961 0.713333 0.686590 0.366990
C106  C     C_R   0.771413 0.302520 0.670251 0.377472
C107  C     C_R   0.236538 0.706000 0.320227 0.368909
C108  C     C_R   0.727934 0.799708 0.326161 0.377295
C109  C     C_R   0.267779 0.212915 0.686303 0.367165
C110  C     C_R   0.271403 0.802526 0.670247 0.377509
C111  C     C_R   1.000000 0.354382 0.499994 0.799680
C112  C     C_R   0.736537 0.206005 0.320221 0.368919
C113  C     C_R   0.233539 0.325928 0.278440 0.219492
C114  C     C_R   0.773884 0.686355 0.742248 0.219258
C115  C     C_R   0.765887 0.329062 0.717598 0.218132
C116  C     C_R   0.238428 0.677057 0.273110 0.229019
C117  C     C_R   0.733525 0.825614 0.278067 0.219648
C118  C     C_R   0.273462 0.185798 0.741619 0.219318
C119  C     C_R   0.265877 0.829075 0.717586 0.218139
C120  C     C_R   0.738425 0.177062 0.273102 0.229029
C121  C     C_R   0.262577 0.364223 0.307697 0.322291
C122  C     C_1   0.499791 0.481238 0.499701 0.082507
C123  C     C_R   0.772056 0.644277 0.730696 0.290500
C124  C     C_R   0.735595 0.366913 0.686593 0.320802
C125  C     C_R   0.250064 0.636045 0.296074 0.301228
C126  C     C_R   0.762349 0.863974 0.307151 0.322305
C127  C     C_R   0.271401 0.143750 0.729627 0.290395
C128  C     C_R   0.235593 0.866928 0.686572 0.320734
C129  C     C_R   0.750057 0.136050 0.296063 0.301252
C130  C     C_R   0.205278 0.283401 0.464454 0.437493
C131  C     C_R   0.805301 0.725776 0.556628 0.479146
C132  C     C_R   0.792978 0.284236 0.532060 0.437713
C133  C     C_1   0.499775 0.518715 0.499684 0.060322
C134  C     C_R   0.196374 0.723927 0.446781 0.477736
C135  C     C_R   0.705059 0.783257 0.464014 0.437709
C136  C     C_R   0.305235 0.225692 0.556498 0.479067
C137  C     C_R   0.292984 0.784231 0.532072 0.437732
C138  C     C_R   0.696370 0.223931 0.446773 0.477736
C139  C     C_R   0.201248 0.253472 0.508975 -0.267170
C140  C     C_R   0.805350 0.752495 0.504554 -0.285219
C141  C     C_R   0.798573 0.253209 0.490718 -0.269303
C142  C     C_R   0.194671 0.752223 0.495481 -0.282684
C143  C     C_R   0.701194 0.753451 0.508863 -0.267382
C144  C     C_1   0.999789 0.981238 0.499694 0.082326
C145  C     C_R   0.305385 0.252512 0.504628 -0.284945
C146  C     C_R   0.298577 0.753206 0.490725 -0.269310
C147  C     C_R   0.694668 0.252225 0.495477 -0.282685
C148  C     C_R   0.253535 0.226113 0.558954 -0.014592
C149  C     C_R   0.755798 0.782089 0.459863 0.018812
C150  C     C_R   0.747921 0.224396 0.444021 -0.012250
C151  C     C_R   0.242605 0.782971 0.536914 0.017219
C152  C     C_R   0.753600 0.726202 0.559079 -0.014757
C153  C     C_R   0.255977 0.282214 0.460219 0.018570
C154  C     C_R   0.247925 0.724392 0.444029 -0.012245
C155  C     C_1   0.999775 0.018715 0.499678 0.060422
C156  C     C_R   0.742602 0.282974 0.536908 0.017204
C157  C     C_R   0.499990 0.354430 0.499977 0.759906
C158  C     C_R   0.499982 0.645560 0.499960 0.786021
C159  C     C_R   0.999989 0.854430 0.499976 0.760067
C160  C     C_R   0.999983 0.145560 0.499960 0.786012
C161  C     C_1   0.499998 0.100535 0.500011 -0.136339
C162  C     C_1   0.499999 0.899457 0.499985 -0.163920
C163  C     C_1   0.999998 0.600535 0.500011 -0.136317
C164  C     C_1   1.000000 0.399457 0.499986 -0.163869
C165  C     C_1   0.499998 0.063050 0.500009 0.022160
C166  C     C_R   0.285910 0.376735 0.385218 0.215175
C167  C     C_1   0.499999 0.936941 0.499987 0.007665
C168  C     C_1   0.999998 0.563050 0.500009 0.022170
C169  C     C_1   1.000000 0.436941 0.499987 0.007647
C170  C     C_1   0.499998 0.018737 0.500001 0.031607
C171  C     C_1   0.499998 0.981253 0.499994 0.028032
C172  C     C_1   0.999999 0.518737 0.500001 0.031615
C173  C     C_1   0.999999 0.481253 0.499994 0.028032
C174  C     C_R   0.641387 0.249968 0.500233 0.925424
C175  C     C_R   0.357773 0.750715 0.497957 0.912880
C176  C     C_R   0.358677 0.250061 0.499900 0.924635
Cl1   Cl    Cl    0.315861 0.426425 0.418397 -0.490221
Cl2   Cl    Cl    0.783591 0.705399 0.826955 -0.562907
Cl3   Cl    Cl    0.795651 0.314498 0.815624 -0.528521
Cl4   Cl    Cl    0.226501 0.692350 0.184911 -0.551047
Cl5   Cl    Cl    0.705767 0.809607 0.181609 -0.531609
Cl6   Cl    Cl    0.283126 0.204629 0.826425 -0.562371
Cl7   Cl    Cl    0.295631 0.814518 0.815611 -0.528593
Cl8   Cl    Cl    0.726501 0.192356 0.184905 -0.551037
Cl9   Cl    Cl    0.753579 0.576372 0.643351 -0.459853
Cl10  Cl    Cl    0.679146 0.427511 0.572326 -0.496965
Cl11  Cl    Cl    0.266347 0.571737 0.389730 -0.453078
Cl12  Cl    Cl    0.815108 0.926346 0.417452 -0.490003
Cl13  Cl    Cl    0.252631 0.076070 0.641619 -0.459881
Cl14  Cl    Cl    0.179163 0.927521 0.572295 -0.496583
Cl15  Cl    Cl    0.766331 0.071741 0.389712 -0.453191
Cl16  Cl    Cl    0.205516 0.310036 0.181808 -0.531197
H1    H     H_    0.331729 0.353421 0.263802 0.163293
H2    H     H_    0.347827 0.591932 0.342483 0.158704
H3    H     H_    0.335406 0.632538 0.275508 0.158729
H4    H     H_    0.317114 0.580972 0.241074 0.181669
H5    H     H_    0.831817 0.853229 0.263678 0.163315
H6    H     H_    0.865584 0.894351 0.337498 0.162600
H7    H     H_    0.825673 0.904817 0.232868 0.176071
H8    H     H_    0.362838 0.092007 0.816619 0.170867
H9    H     H_    0.347932 0.086120 0.887780 0.193262
H10   H     H_    0.372636 0.134780 0.878115 0.154235
H11   H     H_    0.168517 0.856583 0.733392 0.161348
H12   H     H_    0.365805 0.394477 0.337792 0.162555
H13   H     H_    0.132540 0.896887 0.657680 0.162698
H14   H     H_    0.173839 0.908476 0.762233 0.178636
H15   H     H_    0.847819 0.091935 0.342475 0.158671
H16   H     H_    0.835403 0.132540 0.275503 0.158727
H17   H     H_    0.817109 0.080975 0.241067 0.181681
H18   H     H_    0.398891 0.370891 0.624991 0.182312
H19   H     H_    0.402448 0.367715 0.543508 0.173498
H20   H     H_    0.389085 0.322505 0.580701 0.108156
H21   H     H_    0.650613 0.669030 0.452227 0.114047
H22   H     H_    0.648118 0.619245 0.487751 0.172476
H23   H     H_    0.325714 0.405027 0.233145 0.176096
H24   H     H_    0.663992 0.624027 0.417348 0.189275
H25   H     H_    0.595426 0.369026 0.368442 0.182015
H26   H     H_    0.593450 0.366963 0.451301 0.172333
H27   H     H_    0.607497 0.321291 0.415943 0.109916
H28   H     H_    0.354314 0.672055 0.562912 0.113200
H29   H     H_    0.362393 0.620564 0.538856 0.166746
H30   H     H_    0.342064 0.629316 0.604030 0.193684
H31   H     H_    0.897962 0.871047 0.624351 0.182272
H32   H     H_    0.901835 0.867887 0.543124 0.173621
H33   H     H_    0.888514 0.822648 0.580294 0.108065
H34   H     H_    0.863820 0.592784 0.818116 0.170899
H35   H     H_    0.150294 0.169214 0.451445 0.113945
H36   H     H_    0.147499 0.119351 0.486462 0.172288
H37   H     H_    0.163477 0.124283 0.416182 0.189348
H38   H     H_    0.095449 0.869018 0.368419 0.182041
H39   H     H_    0.093461 0.866976 0.451269 0.172326
H40   H     H_    0.107508 0.821291 0.415941 0.109880
H41   H     H_    0.854303 0.172055 0.562903 0.113227
H42   H     H_    0.862380 0.120565 0.538844 0.166717
H43   H     H_    0.842049 0.129316 0.604015 0.193680
H44   H     H_    0.121859 0.271033 0.291764 0.181476
H45   H     H_    0.849083 0.587070 0.889468 0.193213
H46   H     H_    0.115710 0.231934 0.228760 0.180696
H47   H     H_    0.112357 0.283804 0.201184 0.196458
H48   H     H_    0.865133 0.753334 0.794500 0.169732
H49   H     H_    0.827396 0.802118 0.759839 0.198880
H50   H     H_    0.841179 0.774566 0.699371 0.134604
H51   H     H_    0.877717 0.274415 0.704511 0.180823
H52   H     H_    0.886013 0.236031 0.770113 0.180703
H53   H     H_    0.888060 0.288194 0.795248 0.196821
H54   H     H_    0.134083 0.738242 0.204429 0.172386
H55   H     H_    0.164211 0.789126 0.225924 0.197406
H56   H     H_    0.873454 0.635713 0.879206 0.154257
H57   H     H_    0.154182 0.765308 0.293084 0.132278
H58   H     H_    0.621924 0.770584 0.291348 0.181466
H59   H     H_    0.616088 0.731406 0.228686 0.180749
H60   H     H_    0.612500 0.783240 0.200776 0.196422
H61   H     H_    0.365163 0.252590 0.794698 0.169646
H62   H     H_    0.327733 0.301479 0.760609 0.198852
H63   H     H_    0.341402 0.274109 0.699857 0.134665
H64   H     H_    0.377704 0.774408 0.704521 0.180816
H65   H     H_    0.385988 0.736029 0.770123 0.180704
H66   H     H_    0.388046 0.788194 0.795254 0.196803
H67   H     H_    0.668532 0.356550 0.733429 0.161324
H68   H     H_    0.634085 0.238254 0.204426 0.172399
H69   H     H_    0.664220 0.289137 0.225935 0.197393
H70   H     H_    0.654189 0.265314 0.293088 0.132276
H71   H     H_    0.118784 0.360248 0.437040 0.188159
H72   H     H_    0.200466 0.366328 0.475316 0.212833
H73   H     H_    0.181920 0.334467 0.528423 0.134018
H74   H     H_    0.916461 0.742547 0.679043 0.111867
H75   H     H_    0.890428 0.706213 0.718552 0.126039
H76   H     H_    0.946989 0.691768 0.703389 0.207788
H77   H     H_    0.791190 0.365532 0.508283 0.213165
H78   H     H_    0.632540 0.396855 0.657718 0.162668
H79   H     H_    0.817138 0.332885 0.464371 0.132376
H80   H     H_    0.874711 0.362675 0.552498 0.188293
H81   H     H_    0.084464 0.734859 0.320809 0.109058
H82   H     H_    0.113940 0.696186 0.289234 0.134503
H83   H     H_    0.058236 0.683327 0.306668 0.207265
H84   H     H_    0.617907 0.859625 0.436344 0.187923
H85   H     H_    0.698789 0.866617 0.472264 0.212785
H86   H     H_    0.682700 0.834765 0.527939 0.133966
H87   H     H_    0.416457 0.242162 0.679112 0.112087
H88   H     H_    0.390235 0.205713 0.718226 0.126004
H89   H     H_    0.673843 0.408442 0.762272 0.178674
H90   H     H_    0.446748 0.191328 0.702948 0.207750
H91   H     H_    0.291268 0.865561 0.508414 0.213200
H92   H     H_    0.317060 0.832893 0.464343 0.132355
H93   H     H_    0.374750 0.862638 0.552486 0.188262
H94   H     H_    0.584460 0.234867 0.320805 0.109046
H95   H     H_    0.613934 0.196197 0.289223 0.134514
H96   H     H_    0.558230 0.183335 0.306655 0.207277
O1    O     O_3   0.500000 0.250010 0.500000 -0.444233
O2    O     O_R   0.008350 0.334000 0.455930 -0.626638
O3    O     O_R   0.008350 0.666000 0.455930 -0.611973
O4    O     O_R   0.991650 0.334000 0.544070 -0.624857
O5    O     O_R   0.552380 0.334020 0.544040 -0.653802
O6    O     O_R   0.447620 0.665980 0.455960 -0.659377
O7    O     O_R   0.447620 0.334020 0.455960 -0.654014
O8    O     O_R   0.552380 0.665980 0.544040 -0.620979
O9    O     O_R   0.052380 0.834020 0.544040 -0.653813
O10   O     O_R   0.947620 0.165980 0.455960 -0.659429
O11   O     O_R   0.947620 0.834020 0.455960 -0.653980
O12   O     O_3   0.500000 0.749990 0.500000 -0.453203
O13   O     O_R   0.052380 0.165980 0.544040 -0.620842
O14   O     O_R   0.593780 0.227990 0.455960 -0.602272
O15   O     O_R   0.406220 0.772010 0.544040 -0.604211
O16   O     O_R   0.406220 0.227990 0.544040 -0.597634
O17   O     O_R   0.593780 0.772010 0.455960 -0.606581
O18   O     O_R   0.093780 0.727990 0.455960 -0.602285
O19   O     O_R   0.906220 0.272010 0.544040 -0.604186
O20   O     O_R   0.906220 0.727990 0.544040 -0.597420
O21   O     O_R   0.093780 0.272010 0.455960 -0.606505
O22   O     O_R   0.362170 0.272040 0.455960 -0.663031
O23   O     O_3   0.000000 0.750010 0.500000 -0.444263
O24   O     O_R   0.637830 0.727960 0.544040 -0.645371
O25   O     O_R   0.637830 0.272040 0.544040 -0.661247
O26   O     O_R   0.362170 0.727960 0.455960 -0.646230
O27   O     O_R   0.862170 0.772040 0.455960 -0.663101
O28   O     O_R   0.137830 0.227960 0.544040 -0.645150
O29   O     O_R   0.137830 0.772040 0.544040 -0.661233
O30   O     O_R   0.862170 0.227960 0.455960 -0.646224
O31   O     O_R   0.446360 0.228000 0.332000 -0.639561
O32   O     O_R   0.553640 0.772000 0.668000 -0.636450
O33   O     O_R   0.553640 0.228000 0.668000 -0.638813
O34   O     O_3   0.000000 0.249990 0.500000 -0.453272
O35   O     O_R   0.446360 0.772000 0.332000 -0.632176
O36   O     O_R   0.946360 0.728000 0.332000 -0.639603
O37   O     O_R   0.053640 0.272000 0.668000 -0.636506
O38   O     O_R   0.053640 0.728000 0.668000 -0.638762
O39   O     O_R   0.946360 0.272000 0.332000 -0.632180
O40   O     O_R   0.385640 0.272040 0.331990 -0.616985
O41   O     O_R   0.614360 0.727960 0.668010 -0.584373
O42   O     O_R   0.614360 0.272040 0.668010 -0.615372
O43   O     O_R   0.385640 0.727960 0.331990 -0.597996
O44   O     O_R   0.885640 0.772040 0.331990 -0.617014
O45   O     O_R   0.491650 0.166000 0.544070 -0.611717
O46   O     O_R   0.114360 0.227960 0.668010 -0.584046
O47   O     O_R   0.114360 0.772040 0.668010 -0.615349
O48   O     O_R   0.885640 0.227960 0.331990 -0.597993
O49   O     O_3   0.264792 0.390330 0.258425 -0.508849
O50   O     O_3   0.778002 0.617923 0.785760 -0.514013
O51   O     O_3   0.733568 0.393685 0.735160 -0.509009
O52   O     O_3   0.251290 0.607735 0.248966 -0.508092
O53   O     O_3   0.764583 0.890040 0.257844 -0.508948
O54   O     O_3   0.277111 0.117257 0.784355 -0.513999
O55   O     O_3   0.233567 0.893706 0.735131 -0.509107
O56   O     O_R   0.508350 0.834000 0.455930 -0.626951
O57   O     O_3   0.751284 0.107740 0.248955 -0.508085
O58   O     O_3   0.310447 0.361791 0.513612 -0.579424
O59   O     O_3   0.740106 0.640400 0.534063 -0.516369
O60   O     O_3   0.684871 0.361654 0.479392 -0.579800
O61   O     O_3   0.267732 0.640036 0.483452 -0.511043
O62   O     O_3   0.809714 0.861795 0.512814 -0.579198
O63   O     O_3   0.239625 0.140373 0.533073 -0.516326
O64   O     O_3   0.184887 0.861651 0.479381 -0.579771
O65   O     O_3   0.767719 0.140038 0.483437 -0.511041
O66   O     O_3   0.203358 0.261275 0.299490 -0.564636
O67   O     O_R   0.508350 0.166000 0.455930 -0.611965
O68   O     O_3   0.765223 0.754621 0.695972 -0.555665
O69   O     O_3   0.797409 0.264233 0.699184 -0.564033
O70   O     O_3   0.233209 0.746734 0.302098 -0.554821
O71   O     O_3   0.703573 0.760935 0.299349 -0.564644
O72   O     O_3   0.265277 0.254180 0.696117 -0.555537
O73   O     O_3   0.297391 0.764238 0.699187 -0.564019
O74   O     O_3   0.733213 0.246740 0.302096 -0.554814
O75   O     O_3   0.156164 0.311646 0.418016 -0.614882
O76   O     O_3   0.852721 0.696144 0.599288 -0.540888
O77   O     O_3   0.840554 0.313682 0.575381 -0.612399
O78   O     O_R   0.491650 0.834000 0.544070 -0.624811
O79   O     O_3   0.151776 0.692453 0.409683 -0.539536
O80   O     O_3   0.655768 0.811358 0.417237 -0.615383
O81   O     O_3   0.352510 0.195957 0.598871 -0.540973
O82   O     O_3   0.340563 0.813675 0.575398 -0.612439
O83   O     O_3   0.651770 0.192458 0.409671 -0.539535
O84   O     O_R   0.991650 0.666000 0.544070 -0.611675
Zn1   Zn    Zn3+2 0.574840 0.281480 0.562930 0.960206
Zn2   Zn    Zn3+2 0.488090 0.781450 0.562930 1.002965
Zn3   Zn    Zn3+2 0.488090 0.218550 0.562930 1.011894
Zn4   Zn    Zn3+2 0.511910 0.781450 0.437070 0.999557
Zn5   Zn    Zn3+2 0.011910 0.718550 0.437070 1.008845
Zn6   Zn    Zn3+2 0.988090 0.281450 0.562930 1.002873
Zn7   Zn    Zn3+2 0.988090 0.718550 0.562930 1.012115
Zn8   Zn    Zn3+2 0.011910 0.281450 0.437070 0.999653
Zn9   Zn    Zn3+2 0.425160 0.718520 0.437070 0.976438
Zn10  Zn    Zn3+2 0.425160 0.281480 0.437070 0.958241
Zn11  Zn    Zn3+2 0.574840 0.718520 0.562930 1.009787
Zn12  Zn    Zn3+2 0.074840 0.781480 0.562930 0.960242
Zn13  Zn    Zn3+2 0.925160 0.218520 0.437070 0.976416
Zn14  Zn    Zn3+2 0.925160 0.781480 0.437070 0.958212
Zn15  Zn    Zn3+2 0.074840 0.218520 0.562930 1.009983
Zn16  Zn    Zn3+2 0.511910 0.218550 0.437070 1.008861

loop_
_geom_bond_atom_site_label_1
_geom_bond_atom_site_label_2
_ccdc_geom_bond_type
O47   Zn12  S    
C101  C148  S    
C80   H75   S    
C75   H62   S    
C62   O59   S    
C57   C128  A    
O12   Zn11  S    
C2    C123  A    
C175  O26   A    
C121  C166  A    
C99   C149  S    
C12   C23   S    
C111  C164  S    
C77   H69   S    
C82   H82   S    
C56   H5    S    
C4    C142  S    
C75   O72   S    
O12   Zn4   S    
C84   H87   S    
O24   Zn11  S    
C63   H27   S    
C37   C42   T    
C15   O38   A    
C131  C140  A    
C6    O27   A    
C77   H68   S    
C66   H35   S    
C16   C22   S    
C132  O77   S    
C174  O14   A    
C13   Cl10  S    
C160  O13   A    
C80   O76   S    
C88   C97   A    
C102  C151  S    
C20   C29   T    
C119  C128  A    
C67   H39   S    
C86   H94   S    
O30   Zn13  S    
C137  O82   S    
O28   Zn15  S    
C109  C118  A    
C56   H6    S    
C118  Cl6   S    
C137  C146  A    
O3    Zn5   S    
C3    C143  S    
C112  C120  A    
C13   C124  A    
C167  C171  S    
C52   H23   S    
C103  C112  A    
O43   Zn9   S    
C142  C151  A    
C93   C102  A    
C127  O54   S    
C84   O81   S    
C146  C154  A    
C3    O17   A    
C65   H33   S    
C166  Cl1   S    
C60   O57   S    
C158  O6    A    
C59   H14   S    
O13   Zn15  S    
C116  Cl4   S    
O34   Zn8   S    
C128  O55   S    
C89   C162  S    
O6    Zn9   S    
C107  O70   S    
O42   Zn1   S    
C49   C133  S    
C78   H72   S    
C83   H85   S    
C24   C90   A    
C60   H15   S    
C73   H55   S    
C106  C115  A    
C71   H48   S    
C63   H25   S    
O41   Zn11  S    
C9    O41   A    
C45   C50   T    
C89   O56   A    
O1    Zn10  S    
C11   O35   A    
O10   Zn13  S    
O29   Zn12  S    
C61   H18   S    
C175  O15   A    
O23   Zn12  S    
C58   H10   S    
C85   H91   S    
O19   Zn6   S    
C92   O63   S    
C161  C165  T    
C4    O18   A    
C98   C154  S    
C11   C18   S    
O1    Zn1   S    
C131  O76   S    
C3    O24   A    
C74   H59   S    
C147  C174  S    
C99   C108  A    
C51   C155  S    
C24   Cl11  S    
C80   H74   S    
C33   C42   S    
C73   O70   S    
C81   O77   S    
C93   O64   S    
C75   H63   S    
C12   O44   A    
C67   O64   S    
O20   Zn7   S    
O17   Zn4   S    
C170  C171  T    
C96   C152  S    
C7    O28   A    
O32   Zn2   S    
C10   O33   A    
C69   H41   S    
C103  C150  S    
O38   Zn7   S    
C35   Cl12  S    
C114  Cl2   S    
C29   C38   S    
C32   C41   S    
O34   Zn6   S    
C100  C163  S    
C71   O68   S    
C135  C143  A    
C55   H4    S    
C14   C25   S    
C10   O42   A    
C56   O53   S    
C159  O11   A    
C50   C144  S    
C141  C150  A    
C73   H57   S    
O23   Zn7   S    
C139  C148  A    
C8    C19   S    
C8    O31   A    
C120  C129  A    
C46   C127  A    
C135  O80   S    
C38   C41   T    
C53   H45   S    
C68   Cl15  S    
C55   O52   S    
C81   H80   S    
C68   C94   A    
C70   O66   S    
C176  O16   A    
C61   H20   S    
O4    Zn6   S    
O46   Zn15  S    
C76   O73   S    
C9    O32   A    
C1    O45   A    
C1    O67   A    
C64   H30   S    
C2    C87   A    
C119  Cl7   S    
O31   Zn16  S    
C19   C28   T    
C120  Cl8   S    
C136  C148  A    
C114  C123  A    
C85   O82   S    
C64   O61   S    
O1    Zn3   S    
C116  C125  A    
C118  C127  A    
C46   Cl13  S    
O35   Zn4   S    
C132  C141  A    
C113  Cl16  S    
C80   H76   S    
C108  C117  A    
C36   C39   T    
C52   H1    S    
C88   O60   S    
C71   H50   S    
C75   H61   S    
C108  O71   S    
C110  C119  A    
C76   H65   S    
O48   Zn13  S    
C163  C168  T    
C69   H43   S    
C2    Cl9   S    
C16   O39   A    
C28   C37   S    
C84   H88   S    
C54   H78   S    
C30   C39   S    
C65   H32   S    
C76   H64   S    
C107  C116  A    
C104  C113  A    
C55   H2    S    
O5    Zn1   S    
O26   Zn9   S    
C66   H36   S    
C169  C173  S    
C159  O9    A    
C94   O65   S    
C91   C99   A    
C140  C149  A    
C25   C33   T    
C53   O50   S    
C16   O48   A    
C96   C105  A    
O23   Zn5   S    
O84   Zn7   S    
C44   C158  S    
C86   H95   S    
C72   H52   S    
C45   C159  S    
C106  O69   S    
O78   Zn2   S    
O27   Zn14  S    
C172  C173  T    
C66   H37   S    
C65   O62   S    
O14   Zn16  S    
C46   C92   A    
C101  C109  A    
C31   C40   S    
C157  O5    A    
C60   H17   S    
C59   H13   S    
C54   H89   S    
C1    C161  S    
C54   H67   S    
C131  C152  A    
O18   Zn5   S    
C62   H24   S    
C130  C139  A    
C5    O30   A    
C14   O46   A    
C59   O55   S    
C77   H70   S    
C62   H22   S    
C78   H73   S    
C130  O75   S    
C82   H81   S    
C60   H16   S    
C47   C51   T    
C73   H54   S    
C43   C157  S    
C84   H90   S    
C111  O4    A    
C74   O71   S    
C52   H12   S    
C72   H53   S    
C63   O60   S    
C79   C95   A    
C124  O51   S    
C121  O49   S    
C53   H34   S    
C134  C142  A    
O39   Zn8   S    
C9    C20   S    
C145  C176  S    
O23   Zn14  S    
C146  C175  S    
C81   H77   S    
C70   H44   S    
C147  C156  A    
C92   C101  A    
C97   C106  A    
C143  C152  A    
C125  O52   S    
C67   H40   S    
C58   H9    S    
C62   H21   S    
C112  O74   S    
C102  C110  A    
C72   O69   S    
C65   H31   S    
O34   Zn15  S    
C165  C170  S    
C79   O58   S    
O2    Zn8   S    
C115  C124  A    
C72   H51   S    
O36   Zn5   S    
C74   H60   S    
C126  O53   S    
C27   C36   S    
C21   C30   T    
C23   C32   T    
C157  O7    A    
C53   H56   S    
C158  O8    A    
O9    Zn12  S    
C134  C154  A    
C136  O81   S    
C58   O54   S    
C54   O51   S    
C82   H83   S    
C174  O25   A    
C6    C140  S    
C98   C107  A    
C59   H11   S    
C168  C172  S    
C95   C153  S    
C4    O29   A    
C86   O83   S    
C44   C49   T    
C55   H3    S    
C104  O66   S    
C78   H71   S    
C83   H86   S    
C138  C150  A    
O22   Zn10  S    
C58   H8    S    
C111  O2    A    
C85   H93   S    
O67   Zn16  S    
C34   C40   T    
C17   C26   T    
C63   H26   S    
C100  O3    A    
C87   O59   S    
C48   C122  S    
C14   O37   A    
C117  Cl5   S    
C97   C156  S    
C7    O21   A    
C10   C17   S    
C81   H79   S    
C61   O58   S    
C90   O61   S    
C61   H19   S    
C160  O10   A    
C132  C156  A    
O44   Zn14  S    
O11   Zn14  S    
O15   Zn2   S    
C138  O83   S    
C67   H38   S    
C85   H92   S    
O56   Zn4   S    
C43   C48   T    
C136  C145  A    
C56   H7    S    
C145  C153  A    
C82   O79   S    
O7    Zn10  S    
C11   O43   A    
C91   O62   S    
C176  O22   A    
C164  C169  T    
C74   H58   S    
C26   C34   S    
O16   Zn3   S    
C47   C160  S    
C52   O49   S    
C109  O72   S    
O12   Zn9   S    
C22   C31   T    
C64   H28   S    
C105  C114  A    
C71   H49   S    
C105  O68   S    
C83   O80   S    
C5    O19   A    
C6    O20   A    
C135  C149  A    
O8    Zn11  S    
C76   H66   S    
O40   Zn10  S    
C66   O63   S    
C69   O65   S    
C35   C126  A    
C69   H42   S    
C122  C133  T    
C5    C141  S    
C100  O84   A    
C110  O73   S    
O12   Zn2   S    
C138  C147  A    
C87   C96   A    
O33   Zn3   S    
C113  C121  A    
C12   O36   A    
O1    Zn16  S    
C24   C125  A    
C70   H47   S    
C83   H84   S    
C95   C104  A    
O25   Zn1   S    
C134  O79   S    
C77   O74   S    
C86   H96   S    
C15   O47   A    
C18   C27   T    
O21   Zn8   S    
C94   C103  A    
C129  O57   S    
C70   H46   S    
O34   Zn13  S    
C144  C155  T    
C57   Cl14  S    
C7    C139  S    
O37   Zn6   S    
C13   C88   A    
C64   H29   S    
C130  C153  A    
C79   C166  A    
O45   Zn3   S    
C68   C129  A    
C8    O40   A    
C162  C167  T    
C123  O50   S    
C15   C21   S    
C137  C151  A    
C117  C126  A    
C57   C93   A    
C89   O78   A    
C90   C98   A    
C115  Cl3   S    
C78   O75   S    
C35   C91   A    
