data_mof_unit_18494.cif
_audit_creation_date              2012-12-10T17:21:41-0500
_audit_creation_method            fapswitch 2.2
_symmetry_space_group_name_H-M    P1
_symmetry_Int_Tables_number       1
_space_group_crystal_system       triclinic
_cell_length_a                    10.74643
_cell_length_b                    10.798262
_cell_length_c                    9.606252
_cell_angle_alpha                 90.175333
_cell_angle_beta                  89.804744
_cell_angle_gamma                 92.308622
_cell_volume                      1113.82004499

loop_
_atom_site_label
_atom_site_type_symbol
_atom_type_description
_atom_site_fract_x
_atom_site_fract_y
_atom_site_fract_z
_atom_type_partial_charge
C1    C     C_R   0.494703 0.262633 0.499927 0.787338
C2    C     C_3   0.877768 0.501448 0.498784 0.109709
C3    C     C_3   0.930486 0.616077 0.579815 -0.441244
C4    C     C_3   0.929541 0.507762 0.347617 -0.378301
C5    C     C_R   0.307621 0.122122 0.665737 -0.306469
C6    C     C_R   0.223004 0.054111 0.750577 0.443763
C7    C     C_R   0.225540 0.925459 0.751384 -0.104829
C8    C     C_R   0.311411 0.864444 0.669954 -0.275279
C9    C     C_R   0.399459 0.931078 0.586754 0.081168
C10   C     C_R   0.398069 0.061958 0.585267 0.068255
C11   C     C_R   0.484959 0.128522 0.499731 -0.077429
C12   C     C_R   0.259930 0.500750 0.500113 0.761975
C13   C     C_R   0.565886 0.066520 0.412346 -0.199085
C14   C     C_R   0.566367 0.938812 0.412832 -0.204608
C15   C     C_R   0.486326 0.870776 0.501161 -0.072464
C16   C     C_R   0.665660 0.663932 0.143781 -0.158008
C17   C     C_R   0.746703 0.744028 0.071651 -0.216421
C18   C     C_R   0.746346 0.744438 0.928234 -0.193371
C19   C     C_R   0.665000 0.664678 0.856120 -0.150419
C20   C     C_R   0.581202 0.580809 0.925214 0.211513
C21   C     C_R   0.581355 0.580597 0.074713 0.217531
C22   C     C_R   0.422331 0.423544 0.073899 -0.058499
C23   C     C_R   0.495519 0.737164 0.500338 0.760279
C24   C     C_R   0.422367 0.423579 0.926062 -0.037033
C25   C     C_R   0.739903 0.500457 0.499583 0.757850
C26   C     C_3   0.066329 0.379193 0.563291 -0.401266
C27   C     C_3   0.922892 0.381979 0.568688 -0.362949
C28   C     C_3   0.074571 0.615156 0.583830 0.258410
C29   C     C_3   0.072252 0.510588 0.348541 -0.442129
C30   C     C_3   0.121643 0.501522 0.500205 0.096616
Cu1   Cu    Cu3+1 0.499990 0.499990 0.640660 0.937766
Cu2   Cu    Cu3+1 0.500010 0.500010 0.359340 0.927411
H1    H     H_    0.103295 0.364249 0.669406 0.159530
H2    H     H_    0.897905 0.592311 0.294497 0.170600
H3    H     H_    0.111731 0.701215 0.532399 0.113653
H4    H     H_    0.901009 0.702447 0.528599 0.123690
H5    H     H_    0.631460 0.117519 0.345866 0.151764
H6    H     H_    0.299643 0.221383 0.661485 0.133766
H7    H     H_    0.159505 0.872039 0.814738 0.187110
H8    H     H_    0.306202 0.764720 0.671913 0.221900
H9    H     H_    0.632080 0.892891 0.346434 0.140633
H10   H     H_    0.358599 0.360835 0.129019 0.139668
H11   H     H_    0.094371 0.299075 0.498798 0.165361
H12   H     H_    0.673507 0.671631 0.253434 0.190987
H13   H     H_    0.810175 0.806395 0.127813 0.147954
H14   H     H_    0.809576 0.807103 0.872077 0.161143
H15   H     H_    0.672233 0.672998 0.746463 0.195685
H16   H     H_    0.358602 0.360963 0.871005 0.127716
H17   H     H_    0.881843 0.298607 0.514856 0.160058
H18   H     H_    0.891350 0.377949 0.679131 0.179909
H19   H     H_    0.891788 0.616842 0.687285 0.183540
H20   H     H_    0.108755 0.597961 0.299205 0.175594
H21   H     H_    0.104747 0.432045 0.284351 0.192135
H22   H     H_    0.894142 0.425883 0.286703 0.189226
N1    N     N_R   0.501200 0.501210 0.147910 -0.200469
N2    N     N_R   0.501250 0.501290 0.852040 -0.198581
O1    O     O_R   0.499990 0.319640 0.618810 -0.578261
O2    O     O_R   0.500000 0.319660 0.381240 -0.576206
O3    O     O_R   0.317680 0.499970 0.618790 -0.554991
O4    O     O_R   0.317700 0.499990 0.381210 -0.592534
O5    O     O_R   0.500000 0.680340 0.618760 -0.599361
O6    O     O_R   0.500010 0.680360 0.381190 -0.589526
O7    O     O_R   0.682300 0.500010 0.618790 -0.600883
O8    O     O_R   0.682320 0.500030 0.381210 -0.604467
O9    O     O_3   0.136066 0.110522 0.832570 -0.747027
H23   H     H_    0.150007 0.201601 0.826179 0.304279
O10   O     O_3   0.118114 0.617984 0.722115 -0.749570
H24   H     H_    0.075261 0.549626 0.774453 0.336189

loop_
_geom_bond_atom_site_label_1
_geom_bond_atom_site_label_2
_ccdc_geom_bond_type
C2    C4    S    
C16   C21   A    
C1    O1    A    
Cu1   N2    S    
C24   N2    A    
C8    H8    S    
C9    C10   A    
Cu1   O5    S    
C26   H1    S    
C13   H5    S    
C4    C29   S    
C1    C11   S    
C27   H18   S    
Cu2   O2    S    
C20   N2    A    
C2    C27   S    
C12   C30   S    
Cu1   O1    S    
C19   C20   A    
C15   C23   S    
C17   C18   A    
C9    C15   A    
C22   N1    A    
Cu2   O6    S    
C5    C10   A    
C22   H10   S    
C1    O2    A    
C11   C13   A    
C26   C27   S    
C29   C30   S    
C29   H21   S    
C3    H4    S    
C14   H9    S    
C18   H14   S    
C7    H7    S    
C28   C30   S    
C3    C28   S    
C28   H3    S    
C17   H13   S    
C26   H11   S    
C26   C30   S    
C2    C25   S    
C2    C3    S    
C23   O6    A    
C4    H2    S    
C5    C6    A    
Cu1   Cu2   S    
C22   C24   A    
C16   C17   A    
C10   C11   A    
Cu2   O4    S    
O10   H24   S    
C12   O4    A    
Cu1   O7    S    
C7    C8    A    
C28   O10   S    
C5    H6    S    
C20   C21   A    
Cu2   O8    S    
O9    H23   S    
C25   O7    A    
C19   H15   S    
Cu1   O3    S    
C21   N1    A    
C16   H12   S    
C14   C15   A    
C18   C19   A    
C3    H19   S    
Cu2   N1    S    
C4    H22   S    
C13   C14   A    
C12   O3    A    
C25   O8    A    
C6    O9    S    
C6    C7    A    
C27   H17   S    
C23   O5    A    
C8    C9    A    
C29   H20   S    
C24   H16   S    
