data_mof_unit_30821.cif
_audit_creation_date              2012-12-10T19:02:19-0500
_audit_creation_method            fapswitch 2.2
_symmetry_space_group_name_H-M    P1
_symmetry_Int_Tables_number       1
_space_group_crystal_system       triclinic
_cell_length_a                    14.326758
_cell_length_b                    10.845206
_cell_length_c                    9.582063
_cell_angle_alpha                 90.198475
_cell_angle_beta                  89.109449
_cell_angle_gamma                 90.717037
_cell_volume                      1488.52440262

loop_
_atom_site_label
_atom_site_type_symbol
_atom_type_description
_atom_site_fract_x
_atom_site_fract_y
_atom_site_fract_z
_atom_type_partial_charge
C1    C     C_R   0.498607 0.262470 0.499852 0.807509
C2    C     C_1   0.771190 0.501672 0.497200 -0.198192
C3    C     C_R   0.489620 0.063719 0.624807 0.060484
C4    C     C_R   0.490590 0.129343 0.499616 -0.100485
C5    C     C_R   0.479620 0.063781 0.373877 -0.218544
C6    C     C_R   0.479928 0.935056 0.373940 -0.222888
C7    C     C_R   0.490889 0.870675 0.499817 -0.092912
C8    C     C_R   0.489161 0.936867 0.624795 0.104510
C9    C     C_3   0.549988 0.930023 0.749683 -0.510933
C10   C     C_3   0.549928 0.070524 0.751554 -0.190384
C11   C     C_R   0.580278 0.522415 0.071545 0.248467
C12   C     C_R   0.331160 0.500319 0.500705 0.815371
C13   C     C_R   0.423847 0.462946 0.077939 -0.121926
C14   C     C_R   0.423048 0.461734 0.930237 0.044664
C15   C     C_R   0.580434 0.521865 0.924717 0.232294
C16   C     C_3   0.641622 0.633649 0.917800 -0.500769
C17   C     C_3   0.640781 0.634972 0.076477 -0.493816
C18   C     C_R   0.498974 0.737621 0.500075 0.789684
C19   C     C_R   0.668844 0.500445 0.499053 0.821466
C20   C     C_1   0.228842 0.501544 0.501104 -0.179152
C21   C     C_1   0.143408 0.502362 0.499807 -0.012192
C22   C     C_1   0.042760 0.502750 0.498484 -0.018068
C23   C     C_1   0.957320 0.502818 0.497505 -0.021077
C24   C     C_1   0.856651 0.502509 0.496816 -0.026215
Cu1   Cu    Cu3+1 0.500000 0.499980 0.640670 0.941647
Cu2   Cu    Cu3+1 0.500000 0.500020 0.359330 0.927993
H1    H     H_    0.475045 0.111316 0.275042 0.163751
H2    H     H_    0.605835 0.713190 0.871920 0.211325
H3    H     H_    0.710172 0.615865 0.121377 0.195231
H4    H     H_    0.604208 0.715717 0.122419 0.209945
H5    H     H_    0.475639 0.886735 0.275090 0.163470
H6    H     H_    0.511942 0.889346 0.840779 0.186687
H7    H     H_    0.618761 0.888026 0.725242 0.190580
H8    H     H_    0.511039 0.106111 0.844186 0.130396
H9    H     H_    0.362323 0.433339 0.136186 0.154215
H10   H     H_    0.711358 0.613366 0.871335 0.194981
N1    N     N_R   0.500540 0.500930 0.147930 -0.183422
N2    N     N_R   0.500540 0.500890 0.852020 -0.195456
O1    O     O_R   0.500000 0.319640 0.618810 -0.580888
O2    O     O_R   0.500010 0.319680 0.381230 -0.580472
O3    O     O_R   0.376050 0.499980 0.618820 -0.548105
O4    O     O_R   0.376060 0.500020 0.381230 -0.572642
O5    O     O_R   0.499990 0.680320 0.618770 -0.572706
O6    O     O_R   0.500000 0.680360 0.381190 -0.579700
O7    O     O_R   0.623940 0.499980 0.618770 -0.554577
O8    O     O_R   0.623950 0.500020 0.381180 -0.560793
C25   C     C_R   0.645011 0.131349 0.729997 0.185392
C26   C     C_R   0.704890 0.098890 0.618085 -0.159531
C27   C     C_R   0.792668 0.155510 0.603128 -0.156214
C28   C     C_R   0.821511 0.244878 0.699094 -0.109665
C29   C     C_R   0.762136 0.279143 0.809103 -0.134713
C30   C     C_R   0.674411 0.222616 0.824728 -0.115204
H11   H     H_    0.683904 0.029652 0.542800 0.137572
H12   H     H_    0.838491 0.129818 0.517288 0.134834
H13   H     H_    0.889747 0.287959 0.687890 0.128713
H14   H     H_    0.784189 0.349255 0.882648 0.122796
H15   H     H_    0.629533 0.249857 0.911156 0.101280
C31   C     C_R   0.335705 0.415095 0.869171 0.164535
C32   C     C_R   0.329952 0.294309 0.817029 -0.118013
C33   C     C_R   0.244633 0.245790 0.772175 -0.171079
C34   C     C_R   0.163905 0.316430 0.782845 -0.106520
C35   C     C_R   0.168558 0.435897 0.837760 -0.131646
C36   C     C_R   0.254070 0.485209 0.880924 -0.163976
H16   H     H_    0.390872 0.237145 0.813817 0.122885
H17   H     H_    0.240890 0.152783 0.731137 0.132510
H18   H     H_    0.097732 0.278579 0.748941 0.124446
H19   H     H_    0.105914 0.490298 0.846713 0.131547
H20   H     H_    0.256643 0.577308 0.924906 0.121695

loop_
_geom_bond_atom_site_label_1
_geom_bond_atom_site_label_2
_ccdc_geom_bond_type
C16   H2    S    
C12   O4    A    
C23   C24   S    
C19   O7    A    
Cu2   N1    S    
C25   C30   A    
C18   O6    A    
Cu1   N2    S    
C14   N2    A    
C17   H3    S    
C9    C10   S    
C13   N1    A    
C28   H13   S    
C1    O2    A    
C16   H10   S    
C7    C18   S    
Cu1   O5    S    
C28   C29   A    
C31   C32   A    
C19   O8    A    
Cu2   O6    S    
C32   C33   A    
C10   H8    S    
C3    C10   S    
C18   O5    A    
Cu1   O1    S    
C4    C5    A    
C9    H7    S    
C17   H4    S    
Cu2   O2    S    
C32   H16   S    
C35   C36   A    
C15   N2    A    
C12   C20   S    
C5    C6    A    
C35   H19   S    
C21   C22   S    
C26   C27   A    
C26   H11   S    
C33   H17   S    
C13   H9    S    
C6    C7    A    
C22   C23   T    
C2    C24   T    
C34   C35   A    
C14   C31   S    
C13   C14   A    
C3    C8    A    
C1    C4    S    
C16   C17   S    
C30   H15   S    
Cu2   O8    S    
C15   C16   S    
C25   C26   A    
Cu1   O7    S    
C7    C8    A    
C29   C30   A    
C20   C21   T    
Cu2   O4    S    
C12   O3    A    
C27   C28   A    
Cu1   O3    S    
C31   C36   A    
C11   N1    A    
C1    O1    A    
C36   H20   S    
C33   C34   A    
C6    H5    S    
C9    H6    S    
Cu1   Cu2   S    
C5    H1    S    
C10   C25   S    
C11   C15   A    
C34   H18   S    
C11   C17   S    
C3    C4    A    
C27   H12   S    
C2    C19   S    
C8    C9    S    
C29   H14   S    
