data_mof_unit_15138.cif
_audit_creation_date              2012-12-10T19:00:48-0500
_audit_creation_method            fapswitch 2.2
_symmetry_space_group_name_H-M    P1
_symmetry_Int_Tables_number       1
_space_group_crystal_system       triclinic
_cell_length_a                    14.987424
_cell_length_b                    10.831833
_cell_length_c                    9.670773
_cell_angle_alpha                 90.503858
_cell_angle_beta                  90.390528
_cell_angle_gamma                 91.844085
_cell_volume                      1569.0522612

loop_
_atom_site_label
_atom_site_type_symbol
_atom_type_description
_atom_site_fract_x
_atom_site_fract_y
_atom_site_fract_z
_atom_type_partial_charge
C1    C     C_R   0.500027 0.263153 0.499512 0.828214
C2    C     C_R   0.910254 0.615738 0.461784 -0.002359
C3    C     C_R   0.945172 0.297830 0.591853 -0.146501
C4    C     C_R   0.037594 0.293868 0.591681 -0.110402
C5    C     C_R   0.089939 0.396013 0.547685 0.092443
C6    C     C_R   0.047341 0.504371 0.503248 0.006952
C7    C     C_R   0.098349 0.608502 0.457613 -0.006468
C8    C     C_R   0.055106 0.716505 0.416125 0.334263
C9    C     C_R   0.962021 0.718457 0.418691 -0.211446
C10   C     C_R   0.183624 0.392674 0.547052 0.092871
C11   C     C_R   0.232931 0.496026 0.499939 -0.089135
C12   C     C_R   0.329354 0.497645 0.499810 0.850588
C13   C     C_R   0.191219 0.601493 0.455141 -0.133027
C14   C     C_R   0.485761 0.062858 0.617351 0.068900
C15   C     C_R   0.499672 0.130368 0.497741 -0.068344
C16   C     C_R   0.512959 0.064180 0.373760 -0.141245
C17   C     C_R   0.512476 0.934779 0.374231 -0.158775
C18   C     C_R   0.498347 0.869729 0.498626 -0.058673
C19   C     C_R   0.484442 0.938549 0.617707 0.104425
C20   C     C_3   0.465425 0.931135 0.768631 -0.006991
C21   C     C_3   0.467408 0.073389 0.768163 -0.440908
C22   C     C_R   0.578294 0.514967 0.073630 0.020392
C23   C     C_R   0.498941 0.736853 0.500184 0.846186
C24   C     C_R   0.427141 0.455563 0.068517 0.473030
C25   C     C_R   0.427913 0.460479 0.921783 -0.109889
C26   C     C_R   0.576035 0.529533 0.927243 0.192291
C27   C     C_3   0.620799 0.655692 0.951339 0.149279
C28   C     C_3   0.648354 0.612622 0.094522 0.186607
C29   C     C_R   0.670697 0.505373 0.500746 0.843784
C30   C     C_R   0.816181 0.617518 0.462865 0.206964
C31   C     C_R   0.767350 0.510696 0.503486 -0.004426
C32   C     C_R   0.810343 0.406046 0.547857 -0.182586
C33   C     C_R   0.902872 0.403809 0.548607 0.129364
C34   C     C_R   0.953499 0.508139 0.504470 0.048557
Cu1   Cu    Cu3+1 0.500000 0.499980 0.640670 1.031606
Cu2   Cu    Cu3+1 0.500000 0.500020 0.359330 1.049247
H1    H     H_    0.523830 0.886483 0.277700 0.170625
H2    H     H_    0.521094 0.892866 0.828861 0.158150
H3    H     H_    0.402035 0.114539 0.789795 0.256973
H4    H     H_    0.524977 0.115877 0.826312 0.190269
H5    H     H_    0.370056 0.430061 0.862179 0.215977
H6    H     H_    0.568983 0.726754 0.960983 0.037198
H7    H     H_    0.771159 0.325442 0.580131 0.136736
H8    H     H_    0.634536 0.678766 0.179072 0.107656
H9    H     H_    0.906605 0.217434 0.625801 0.167083
H10   H     H_    0.066800 0.209575 0.626106 0.192937
H11   H     H_    0.233003 0.678054 0.420191 0.211994
H12   H     H_    0.930660 0.801358 0.385432 0.227457
H13   H     H_    0.524259 0.111628 0.277017 0.187210
N1    N     N_R   0.500570 0.500930 0.147930 -0.272394
N2    N     N_R   0.500570 0.500890 0.852020 -0.242159
O1    O     O_R   0.500000 0.319640 0.618810 -0.586610
O2    O     O_R   0.500010 0.319680 0.381230 -0.534865
O3    O     O_R   0.370250 0.499950 0.618800 -0.587712
O4    O     O_R   0.370260 0.499990 0.381220 -0.499405
O5    O     O_R   0.499990 0.680320 0.618770 -0.538325
O6    O     O_R   0.500000 0.680360 0.381190 -0.613260
O7    O     O_R   0.629740 0.500010 0.618780 -0.533394
O8    O     O_R   0.629750 0.500050 0.381200 -0.557041
I1    I     I_    0.746734 0.780642 0.409056 -0.266031
I2    I     I_    0.336165 0.849195 0.807699 -0.215270
S1    S     S_3+6 0.328460 0.378222 0.131210 0.048112
O9    O     O_2   0.261903 0.472900 0.171042 -0.261948
O10   O     O_2   0.287123 0.299152 0.017593 -0.286327
O11   O     O_3   0.347410 0.283963 0.264187 -0.506742
H14   H     H_    0.289196 0.241267 0.281624 0.391112
S2    S     S_3+6 0.707352 0.716022 0.840237 0.082213
O12   O     O_2   0.766589 0.804515 0.922443 -0.228467
O13   O     O_2   0.763555 0.618036 0.778869 -0.204570
O14   O     O_3   0.659515 0.793706 0.711623 -0.558249
H15   H     H_    0.678567 0.881371 0.725512 0.357258
S3    S     S_3+6 0.755867 0.537853 0.101368 0.082354
O15   O     O_2   0.760029 0.450481 0.220056 -0.303667
O16   O     O_2   0.769959 0.461966 0.973090 -0.226116
O17   O     O_3   0.839048 0.644930 0.117824 -0.449999
H16   H     H_    0.893965 0.597322 0.128544 0.379674
I3    I     I_    0.252518 0.232398 0.612258 -0.265439
S4    S     S_3+6 0.114784 0.851749 0.361303 0.042797
O18   O     O_2   0.165666 0.822269 0.232420 -0.203047
O19   O     O_2   0.052666 0.954496 0.330824 -0.248789
O20   O     O_3   0.187645 0.899196 0.485262 -0.502628
H17   H     H_    0.150590 0.913721 0.567890 0.363880

loop_
_geom_bond_atom_site_label_1
_geom_bond_atom_site_label_2
_ccdc_geom_bond_type
C19   C20   S    
S4    O20   S    
Cu2   O8    S    
O20   H17   S    
C7    C8    A    
C4    H10   S    
C26   C27   S    
Cu1   O7    S    
C14   C21   S    
C5    C6    A    
S4    O19   D    
C16   C17   A    
C3    C33   A    
C15   C16   A    
C18   C19   A    
C20   I2    S    
C1    O2    A    
S1    O10   D    
Cu2   O2    S    
C29   O8    A    
C8    C9    A    
C30   I1    S    
O14   H15   S    
C1    C15   S    
C22   N1    A    
C2    C34   A    
C22   C28   S    
Cu1   O3    S    
C8    S4    S    
C28   S3    S    
S3    O17   S    
C10   I3    S    
C33   C34   A    
C24   N1    A    
S2    O12   D    
C23   O5    A    
C16   H13   S    
S3    O16   D    
Cu2   O6    S    
C25   H5    S    
C13   H11   S    
S4    O18   D    
S3    O15   D    
C3    H9    S    
C18   C23   S    
S2    O13   D    
Cu1   Cu2   S    
O17   H16   S    
C25   N2    A    
S1    O9    D    
C20   H2    S    
C31   C32   A    
C21   H3    S    
C20   C21   S    
C17   C18   A    
C17   H1    S    
C24   C25   A    
Cu1   N2    S    
C3    C4    A    
Cu1   O1    S    
Cu2   N1    S    
C23   O6    A    
C24   S1    S    
S1    O11   S    
Cu1   O5    S    
C14   C19   A    
C4    C5    A    
C11   C12   S    
C6    C7    A    
C2    C30   A    
S2    O14   S    
C32   C33   A    
C5    C10   A    
C29   C31   S    
Cu2   O4    S    
C26   N2    A    
C11   C13   A    
C27   H6    S    
C30   C31   A    
C21   H4    S    
C32   H7    S    
C28   H8    S    
C1    O1    A    
C12   O4    A    
C27   S2    S    
C10   C11   A    
C6    C34   A    
C7    C13   A    
C29   O7    A    
C9    H12   S    
O11   H14   S    
C22   C26   A    
C27   C28   S    
C14   C15   A    
C2    C9    A    
C12   O3    A    
