data_mof_unit_32580.cif
_audit_creation_date              2012-12-10T18:52:18-0500
_audit_creation_method            fapswitch 2.2
_symmetry_space_group_name_H-M    P1
_symmetry_Int_Tables_number       1
_space_group_crystal_system       triclinic
_cell_length_a                    15.706867
_cell_length_b                    10.665339
_cell_length_c                    9.83492
_cell_angle_alpha                 89.497063
_cell_angle_beta                  89.957697
_cell_angle_gamma                 89.89154
_cell_volume                      1647.46971206

loop_
_atom_site_label
_atom_site_type_symbol
_atom_type_description
_atom_site_fract_x
_atom_site_fract_y
_atom_site_fract_z
_atom_type_partial_charge
C1    C     C_R   0.503285 0.260151 0.500731 0.870003
C2    C     C_R   0.451533 0.416503 0.073109 -0.315829
C3    C     C_R   0.337796 0.499853 0.500018 0.893386
C4    C     C_R   0.662173 0.501380 0.499926 0.892656
C5    C     C_3   0.971499 0.386586 0.470975 -0.170998
C6    C     C_3   0.028341 0.617925 0.527407 -0.167362
C7    C     C_3   0.028187 0.467360 0.376134 -0.159311
C8    C     C_3   0.971656 0.537126 0.622255 -0.164109
C9    C     C_1   0.248807 0.500167 0.500063 -0.204275
C10   C     C_1   0.751120 0.502790 0.499553 -0.202952
C11   C     C_3   0.027629 0.420663 0.594362 -0.169295
C12   C     C_R   0.497010 0.739733 0.499431 0.858723
C13   C     C_3   0.972188 0.583823 0.404020 -0.169873
C14   C     C_3   0.082521 0.501462 0.499525 0.215560
C15   C     C_3   0.917330 0.503055 0.498876 0.215768
C16   C     C_1   0.173440 0.500653 0.499897 -0.093526
C17   C     C_1   0.826459 0.503450 0.499029 -0.091782
C18   C     C_R   0.447446 0.069179 0.413475 -0.249049
C19   C     C_R   0.552303 0.930275 0.587432 -0.251165
C20   C     C_3   0.376871 0.880802 0.317992 -0.417322
C21   C     C_3   0.409760 0.878078 0.171129 -0.294884
C22   C     C_3   0.349761 0.805474 0.078893 -0.882134
C23   C     C_R   0.441995 0.940344 0.411098 0.092130
C24   C     C_3   0.624184 0.117679 0.682253 -0.415847
C25   C     C_3   0.700899 0.164474 0.599987 -0.343005
C26   C     C_3   0.768017 0.222047 0.692475 -0.873193
C27   C     C_3   0.675570 0.699940 0.086977 0.041798
C28   C     C_3   0.733111 0.757799 0.194710 -0.283497
C29   C     C_3   0.818914 0.796358 0.134915 -1.009626
C30   C     C_3   0.319136 0.318369 0.898639 0.074456
C31   C     C_3   0.303698 0.187591 0.959126 -0.350070
C32   C     C_3   0.211699 0.171996 0.006029 -0.975353
C33   C     C_R   0.557799 0.059089 0.590287 0.105370
C34   C     C_R   0.495869 0.872079 0.498866 -0.062790
C35   C     C_R   0.504024 0.127601 0.501991 -0.057405
C36   C     C_R   0.550320 0.582833 0.072469 0.551058
C37   C     C_R   0.450042 0.417104 0.928013 0.551108
C38   C     C_R   0.548663 0.583454 0.926818 -0.329094
H1    H     H_    0.053525 0.438788 0.275603 0.129200
H2    H     H_    0.414459 0.349142 0.130371 0.166571
H3    H     H_    0.344610 0.706488 0.114101 0.266386
H4    H     H_    0.285576 0.849373 0.078595 0.256885
H5    H     H_    0.375061 0.806345 0.973414 0.250645
H6    H     H_    0.416180 0.975452 0.131433 0.204398
H7    H     H_    0.473552 0.833380 0.167949 0.268360
H8    H     H_    0.359940 0.784828 0.353038 0.206732
H9    H     H_    0.316591 0.935618 0.321636 0.187580
H10   H     H_    0.741505 0.305184 0.745131 0.271495
H11   H     H_    0.789921 0.152261 0.769372 0.253470
H12   H     H_    0.946283 0.565629 0.722783 0.130153
H13   H     H_    0.823706 0.251986 0.630857 0.250042
H14   H     H_    0.729959 0.084598 0.544649 0.218968
H15   H     H_    0.680396 0.235676 0.523831 0.212236
H16   H     H_    0.596404 0.193933 0.743974 0.238187
H17   H     H_    0.647458 0.047191 0.757672 0.187993
H18   H     H_    0.665164 0.771005 0.005183 0.132029
H19   H     H_    0.708153 0.615584 0.045136 0.135928
H20   H     H_    0.701352 0.841665 0.238205 0.220301
H21   H     H_    0.743890 0.688749 0.278132 0.229001
H22   H     H_    0.809855 0.866667 0.052155 0.267364
H23   H     H_    0.946079 0.292091 0.447770 0.129112
H24   H     H_    0.852730 0.713225 0.094016 0.263968
H25   H     H_    0.858789 0.838651 0.215564 0.262048
H26   H     H_    0.278029 0.329907 0.807439 0.171034
H27   H     H_    0.298463 0.392348 0.971256 0.111086
H28   H     H_    0.318293 0.115637 0.881337 0.235912
H29   H     H_    0.346576 0.171457 0.047204 0.207991
H30   H     H_    0.196379 0.241190 0.086257 0.263726
H31   H     H_    0.202672 0.076171 0.048632 0.265282
H32   H     H_    0.167423 0.185327 0.919036 0.261572
H33   H     H_    0.053791 0.712435 0.550453 0.130273
H34   H     H_    0.947317 0.650410 0.326244 0.138840
H35   H     H_    0.052490 0.353998 0.672148 0.127896
H36   H     H_    0.406014 0.124493 0.347954 0.149174
H37   H     H_    0.594039 0.874278 0.651732 0.143457
H38   H     H_    0.585457 0.650415 0.868564 0.155981
N1    N     N_R   0.499980 0.499970 0.857200 -0.121995
N2    N     N_R   0.500020 0.500030 0.142800 -0.119287
O1    O     O_R   0.499990 0.316750 0.614620 -0.573852
O2    O     O_3   0.404904 0.328412 0.855222 -0.615938
O3    O     O_R   0.500010 0.683250 0.385380 -0.571415
O4    O     O_R   0.500000 0.316780 0.385290 -0.632831
O5    O     O_R   0.500000 0.683220 0.614710 -0.630612
O6    O     O_R   0.376780 0.499970 0.614640 -0.590202
O7    O     O_R   0.623220 0.500030 0.385360 -0.583425
O8    O     O_R   0.376780 0.500000 0.385310 -0.624945
O9    O     O_R   0.623220 0.500000 0.614690 -0.620717
O10   O     O_3   0.596955 0.668368 0.147934 -0.621363
Zn1   Zn    Zn3+2 0.500000 0.499980 0.653120 0.972302
Zn2   Zn    Zn3+2 0.500000 0.500020 0.346880 0.974738

loop_
_geom_bond_atom_site_label_1
_geom_bond_atom_site_label_2
_ccdc_geom_bond_type
C31   H28   S    
C29   H25   S    
C30   H26   S    
C4    O9    A    
C38   H38   S    
C36   O10   S    
C24   H17   S    
C31   H29   S    
N1    Zn1   S    
C3    C9    S    
C28   C29   S    
C9    C16   T    
C25   H15   S    
C5    C11   S    
C30   C31   S    
C11   C14   S    
C22   H3    S    
C10   C17   T    
C24   H16   S    
C7    C14   S    
C22   H5    S    
C29   H22   S    
C18   C35   A    
C26   H10   S    
C32   H30   S    
C30   O2    S    
C18   H36   S    
C21   C22   S    
C3    O8    A    
C21   H7    S    
C6    H33   S    
O5    Zn1   S    
C37   O2    S    
O1    Zn1   S    
C18   C23   A    
C30   H27   S    
C24   C25   S    
O8    Zn2   S    
C26   H11   S    
C5    C7    S    
C27   H18   S    
C32   H32   S    
C4    O7    A    
C25   C26   S    
C37   N1    A    
N2    Zn2   S    
C12   O5    A    
C2    N2    A    
C6    C14   S    
C21   H6    S    
C31   C32   S    
C20   C23   S    
C23   C34   A    
C5    H23   S    
O3    Zn2   S    
C38   N1    A    
C8    C15   S    
C13   C15   S    
C27   H19   S    
C1    O1    A    
C14   C16   S    
O6    Zn1   S    
C12   C34   S    
C8    H12   S    
C3    O6    A    
C1    C35   S    
C28   H21   S    
C15   C17   S    
C29   H24   S    
C19   C33   A    
C19   C34   A    
C6    C8    S    
O7    Zn2   S    
C32   H31   S    
C13   H34   S    
C28   H20   S    
C24   C33   S    
O4    Zn2   S    
C19   H37   S    
C1    O4    A    
C25   H14   S    
C36   N2    A    
C26   H13   S    
C6    C13   S    
C2    C37   A    
C22   H4    S    
C8    C11   S    
C36   C38   A    
C33   C35   A    
C12   O3    A    
C27   O10   S    
C11   H35   S    
C5    C15   S    
C20   H9    S    
C2    H2    S    
C7    C13   S    
C20   C21   S    
C27   C28   S    
O9    Zn1   S    
C7    H1    S    
C4    C10   S    
C20   H8    S    
