data_mof_unit_51101.cif
_audit_creation_date              2012-12-11T16:39:16-0500
_audit_creation_method            fapswitch 2.2
_symmetry_space_group_name_H-M    P1
_symmetry_Int_Tables_number       1
_space_group_crystal_system       triclinic
_cell_length_a                    24.469721
_cell_length_b                    6.957884
_cell_length_c                    22.094056
_cell_angle_alpha                 89.999959
_cell_angle_beta                  99.165938
_cell_angle_gamma                 89.99996
_cell_volume                      3713.64595542

loop_
_atom_site_label
_atom_site_type_symbol
_atom_type_description
_atom_site_fract_x
_atom_site_fract_y
_atom_site_fract_z
_atom_type_partial_charge
O1    O     O_R   0.188680 0.380540 0.689820 -0.544420
O2    O     O_R   0.811320 0.619460 0.310180 -0.542354
O3    O     O_R   0.311320 0.880540 0.810180 -0.544419
O4    O     O_R   0.688680 0.119460 0.189820 -0.542354
O5    O     O_R   0.300940 0.707710 0.691860 -0.544768
O6    O     O_R   0.699060 0.292290 0.308140 -0.543884
O7    O     O_R   0.199060 0.207710 0.808140 -0.544768
O8    O     O_R   0.800940 0.792290 0.191860 -0.543884
C1    C     C_R   0.318092 0.540827 0.677158 0.716752
C2    C     C_R   0.680185 0.458631 0.320700 0.722920
C3    C     C_R   0.181908 0.040827 0.822842 0.716750
C4    C     C_R   0.819815 0.958631 0.179300 0.722920
O9    O     O_R   0.188460 0.710090 0.682560 -0.538458
O10   O     O_R   0.811540 0.289910 0.317440 -0.547546
O11   O     O_R   0.311540 0.210090 0.817440 -0.538457
O12   O     O_R   0.688460 0.789910 0.182560 -0.547545
O13   O     O_R   0.198040 0.882940 0.800810 -0.510883
O14   O     O_R   0.801960 0.117060 0.199190 -0.510408
O15   O     O_R   0.301960 0.382940 0.699190 -0.510883
O16   O     O_R   0.698040 0.617060 0.300810 -0.510408
C5    C     C_R   0.168690 0.541245 0.666182 0.702815
C6    C     C_R   0.831847 0.458643 0.333743 0.723092
C7    C     C_R   0.331310 0.041245 0.833818 0.702815
C8    C     C_R   0.668153 0.958643 0.166256 0.723091
O17   O     O_3   0.253280 0.547850 0.788810 -0.366804
O18   O     O_3   0.746720 0.452150 0.211190 -0.368549
O19   O     O_3   0.246720 0.047850 0.711190 -0.366803
O20   O     O_3   0.753280 0.952150 0.288810 -0.368548
V1    V     V_3+5 0.249390 0.821720 0.742800 1.445378
V2    V     V_3+5 0.750610 0.178280 0.257200 1.437889
V3    V     V_3+5 0.250610 0.321720 0.757200 1.445378
V4    V     V_3+5 0.749390 0.678280 0.242800 1.437889
C9    C     C_R   0.474587 0.922836 0.915866 -0.141248
C10   C     C_R   0.543954 0.149603 0.058070 -0.202072
C11   C     C_R   0.025414 0.422827 0.584133 -0.141239
C12   C     C_R   0.956045 0.649603 0.441931 -0.202080
H1    H     H_    0.511049 0.854520 0.904217 0.145312
H2    H     H_    0.522736 0.285577 0.049871 0.191651
H3    H     H_    0.988953 0.354505 0.595782 0.145317
H4    H     H_    0.977262 0.785578 0.450130 0.191655
C13   C     C_R   0.427509 0.931924 0.870963 -0.177818
C14   C     C_R   0.590193 0.140930 0.103956 -0.213519
C15   C     C_R   0.072492 0.431915 0.629036 -0.177820
C16   C     C_R   0.909806 0.640930 0.396044 -0.213519
H5    H     H_    0.428470 0.866168 0.826688 0.120221
H6    H     H_    0.602668 0.269705 0.130091 0.136096
H7    H     H_    0.071532 0.366153 0.673310 0.120223
H8    H     H_    0.897332 0.769705 0.369909 0.136096
C17   C     C_R   0.380282 0.030402 0.882141 -0.091653
C18   C     C_R   0.619389 0.968532 0.116514 -0.095103
C19   C     C_R   0.119718 0.530402 0.617859 -0.091662
C20   C     C_R   0.880611 0.468531 0.383486 -0.095099
C21   C     C_R   0.380394 0.117556 0.939341 -0.235714
C22   C     C_R   0.601556 0.805333 0.081380 -0.263613
C23   C     C_R   0.119605 0.617565 0.560660 -0.235695
C24   C     C_R   0.898444 0.305333 0.418619 -0.263622
H9    H     H_    0.344124 0.194799 0.948465 0.119280
H10   H     H_    0.622978 0.671613 0.092907 0.124212
H11   H     H_    0.155874 0.694816 0.551538 0.119287
H12   H     H_    0.877021 0.171613 0.407094 0.124215
C25   C     C_R   0.426595 0.100527 0.985938 0.422608
C26   C     C_R   0.556178 0.813887 0.032633 0.443053
C27   C     C_R   0.073404 0.600536 0.514063 0.422603
C28   C     C_R   0.943821 0.313888 0.467367 0.443061
C29   C     C_R   0.474947 0.003521 0.974345 0.022869
C30   C     C_R   0.525667 0.987711 0.022416 0.020228
C31   C     C_R   0.025054 0.503520 0.525655 0.022855
C32   C     C_R   0.974332 0.487711 0.477584 0.020218
C33   C     C_R   0.071234 0.186081 0.917201 -0.141180
C34   C     C_R   0.907845 0.828713 0.057853 -0.136351
C35   C     C_R   0.428765 0.686081 0.582798 -0.141179
C36   C     C_R   0.592154 0.328711 0.442146 -0.136352
H13   H     H_    0.047696 0.313933 0.924073 0.125884
H14   H     H_    0.910412 0.712840 0.025670 0.125822
H15   H     H_    0.452304 0.813933 0.575927 0.125884
H16   H     H_    0.589586 0.212838 0.474328 0.125822
C37   C     C_R   0.110652 0.193859 0.877686 -0.247372
C38   C     C_R   0.867799 0.820444 0.096645 -0.226672
C39   C     C_R   0.389348 0.693859 0.622314 -0.247371
C40   C     C_R   0.632200 0.320442 0.403353 -0.226673
H17   H     H_    0.116095 0.327867 0.854450 0.178094
H18   H     H_    0.839966 0.698481 0.093118 0.154581
H19   H     H_    0.383905 0.827866 0.645550 0.178092
H20   H     H_    0.660033 0.198479 0.406880 0.154583
C41   C     C_R   0.141755 0.030179 0.867162 -0.145052
C42   C     C_R   0.863175 0.968796 0.138902 -0.144075
C43   C     C_R   0.358244 0.530179 0.632837 -0.145051
C44   C     C_R   0.636824 0.468796 0.361098 -0.144076
C45   C     C_R   0.133903 0.858522 0.899432 0.421127
C46   C     C_R   0.901355 0.123418 0.143258 0.426150
C47   C     C_R   0.366096 0.358523 0.600567 0.421126
C48   C     C_R   0.598645 0.623420 0.356742 0.426149
C49   C     C_R   0.092700 0.851026 0.937395 -0.229916
C50   C     C_R   0.940091 0.133462 0.102379 -0.228433
C51   C     C_R   0.407299 0.351026 0.562604 -0.229917
C52   C     C_R   0.559909 0.633463 0.397620 -0.228434
H21   H     H_    0.085061 0.716997 0.959625 0.116208
H22   H     H_    0.967563 0.256159 0.103970 0.119327
H23   H     H_    0.414937 0.216998 0.540374 0.116208
H24   H     H_    0.532438 0.756162 0.396031 0.119325
C53   C     C_R   0.061627 0.014198 0.946708 0.074028
C54   C     C_R   0.943847 0.985949 0.060160 0.068572
C55   C     C_R   0.438372 0.514198 0.553291 0.074028
C56   C     C_R   0.556152 0.485949 0.439839 0.068573
C57   C     C_1   0.019835 0.004472 0.986403 -0.039952
C58   C     C_1   0.985081 0.995712 0.019781 -0.038048
C59   C     C_1   0.480164 0.504472 0.513596 -0.039952
C60   C     C_1   0.514918 0.495712 0.480218 -0.038049
O21   O     O_3   0.425035 0.187069 0.041880 -0.577914
C61   C     C_3   0.402230 0.057056 0.080022 0.059594
H25   H     H_    0.421195 0.911208 0.079463 0.125116
H26   H     H_    0.356714 0.046010 0.064821 0.127857
C62   C     C_3   0.413354 0.132764 0.145746 -0.276937
H27   H     H_    0.458806 0.140610 0.161413 0.198031
H28   H     H_    0.395929 0.279970 0.147160 0.202302
C63   C     C_3   0.387488 0.003384 0.189212 -0.861598
H29   H     H_    0.341838 0.997909 0.175371 0.233763
H30   H     H_    0.396935 0.061232 0.236563 0.231646
H31   H     H_    0.404540 0.855675 0.188919 0.233466
O22   O     O_3   0.537467 0.653091 0.997629 -0.580644
C64   C     C_3   0.580580 0.538049 0.980660 0.055805
H32   H     H_    0.560432 0.417041 0.952781 0.153933
H33   H     H_    0.605883 0.468826 0.020799 0.118984
C65   C     C_3   0.617077 0.645289 0.941008 -0.349552
H34   H     H_    0.591447 0.693379 0.897667 0.188728
H35   H     H_    0.636516 0.773507 0.965497 0.190842
C66   C     C_3   0.662981 0.515016 0.925274 -0.814507
H36   H     H_    0.690210 0.467940 0.967795 0.229347
H37   H     H_    0.688418 0.594769 0.896273 0.231850
H38   H     H_    0.644995 0.386605 0.899598 0.229138
O23   O     O_3   0.074964 0.687094 0.458124 -0.577914
C67   C     C_3   0.097754 0.557074 0.419971 0.059605
H39   H     H_    0.078772 0.411250 0.420519 0.125119
H40   H     H_    0.143269 0.545956 0.435173 0.127846
C68   C     C_3   0.086642 0.632843 0.354254 -0.276926
H41   H     H_    0.041190 0.640783 0.338589 0.198043
H42   H     H_    0.104091 0.780018 0.352853 0.202293
C69   C     C_3   0.112484 0.503438 0.310776 -0.861608
H43   H     H_    0.158134 0.497848 0.324619 0.233764
H44   H     H_    0.103052 0.561345 0.263432 0.231647
H45   H     H_    0.095402 0.355770 0.311051 0.233467
O24   O     O_3   0.962532 0.153092 0.502372 -0.580644
C70   C     C_3   0.919418 0.038050 0.519340 0.055796
H46   H     H_    0.939566 0.917052 0.547224 0.153946
H47   H     H_    0.894119 0.968815 0.479201 0.118981
C71   C     C_3   0.882914 0.145296 0.558984 -0.349555
H48   H     H_    0.908543 0.193447 0.602319 0.188732
H49   H     H_    0.863465 0.273476 0.534482 0.190840
C72   C     C_3   0.837023 0.015000 0.574734 -0.814505
H50   H     H_    0.809799 0.967842 0.532219 0.229347
H51   H     H_    0.811576 0.094768 0.603721 0.231849
H52   H     H_    0.855020 0.886642 0.600430 0.229139
O25   O     O_3   0.163409 0.693940 0.890159 -0.571091
C73   C     C_3   0.200447 0.645044 0.944035 0.062596
H53   H     H_    0.205317 0.486232 0.944517 0.141431
H54   H     H_    0.185105 0.683430 0.987377 0.101402
C74   C     C_3   0.257285 0.736601 0.943115 -0.298976
H55   H     H_    0.272759 0.693026 0.900637 0.228380
H56   H     H_    0.253537 0.895774 0.943409 0.157860
C75   C     C_3   0.299300 0.673707 0.998155 -0.842374
H57   H     H_    0.286070 0.722366 0.041465 0.225704
H58   H     H_    0.340247 0.738180 0.994955 0.235224
H59   H     H_    0.303733 0.514777 0.998903 0.237164
O26   O     O_3   0.899037 0.268293 0.185902 -0.569823
C76   C     C_3   0.946874 0.264300 0.231514 0.070417
H60   H     H_    0.948622 0.403336 0.256516 0.143645
H61   H     H_    0.985975 0.254823 0.211889 0.109687
C77   C     C_3   0.943947 0.101251 0.277801 -0.342011
H62   H     H_    0.905240 0.114701 0.297663 0.202922
H63   H     H_    0.943461 0.959737 0.254424 0.174617
C78   C     C_3   0.993474 0.106777 0.329341 -0.810492
H64   H     H_    0.032294 0.079380 0.310722 0.222042
H65   H     H_    0.988854 0.993755 0.363548 0.244115
H66   H     H_    0.996215 0.248689 0.352623 0.239989
O27   O     O_3   0.336589 0.193941 0.609839 -0.571091
C79   C     C_3   0.299552 0.145048 0.555964 0.062597
H67   H     H_    0.294681 0.986236 0.555481 0.141432
H68   H     H_    0.314894 0.183433 0.512622 0.101402
C80   C     C_3   0.242714 0.236607 0.556885 -0.298981
H69   H     H_    0.227240 0.193032 0.599362 0.228380
H70   H     H_    0.246462 0.395779 0.556591 0.157862
C81   C     C_3   0.200699 0.173714 0.501844 -0.842368
H71   H     H_    0.213929 0.222370 0.458534 0.225700
H72   H     H_    0.159752 0.238192 0.505043 0.235226
H73   H     H_    0.196265 0.014785 0.501096 0.237166
O28   O     O_3   0.600964 0.768296 0.314098 -0.569823
C82   C     C_3   0.553125 0.764312 0.268487 0.070419
H74   H     H_    0.551379 0.903348 0.243485 0.143637
H75   H     H_    0.514026 0.754840 0.288113 0.109690
C83   C     C_3   0.556050 0.601264 0.222199 -0.342014
H76   H     H_    0.594756 0.614711 0.202335 0.202919
H77   H     H_    0.556536 0.459750 0.245576 0.174618
C84   C     C_3   0.506521 0.606797 0.170660 -0.810465
H78   H     H_    0.467702 0.579407 0.189282 0.222041
H79   H     H_    0.511138 0.493772 0.136453 0.244117
H80   H     H_    0.503781 0.748707 0.147378 0.239990

loop_
_geom_bond_atom_site_label_1
_geom_bond_atom_site_label_2
_ccdc_geom_bond_type
O17   V3    S    
C70   C71   S    
C39   H19   S    
C78   H64   S    
O1    C5    A    
C83   H76   S    
C43   C47   A    
C34   C38   A    
O13   V1    S    
C33   C37   A    
C10   C14   A    
C48   C52   A    
C36   H16   S    
O15   V3    S    
C10   C30   A    
C39   C43   A    
C9    C29   A    
C68   H41   S    
O7    C3    A    
C78   H65   S    
C2    C44   S    
C76   H60   S    
C28   C32   A    
O9    V1    S    
O26   C76   S    
C71   H48   S    
C23   H11   S    
C72   H51   S    
O16   V4    S    
O4    C8    A    
C82   H75   S    
C51   H23   S    
C7    C17   S    
O19   V1    S    
C50   H22   S    
C70   H46   S    
C70   H47   S    
O1    V3    S    
C36   C40   A    
C63   H29   S    
O2    V4    S    
C14   H6    S    
O3    V1    S    
C81   H71   S    
C82   C83   S    
C83   C84   S    
C61   H25   S    
C21   C25   A    
C1    O15   A    
C74   H55   S    
C44   C48   A    
C2    O16   A    
C67   H39   S    
C84   H79   S    
C23   C27   A    
C34   H14   S    
C83   H77   S    
C59   C60   T    
C24   C28   A    
C33   H13   S    
O14   V2    S    
C37   H17   S    
C11   C15   A    
C73   H54   S    
C40   H20   S    
C80   C81   S    
C38   C42   A    
C56   C60   S    
O11   C7    A    
C25   O21   S    
O12   C8    A    
O17   V1    S    
O10   V2    S    
C13   C17   A    
C51   C55   A    
C46   C50   A    
C71   H49   S    
C77   C78   S    
C8    C18   S    
C78   H66   S    
C27   C31   A    
C53   C57   S    
O7    V3    S    
C26   C30   A    
O19   V3    S    
C31   C32   S    
O8    V4    S    
C75   H59   S    
C77   H62   S    
O20   V4    S    
C73   C74   S    
C42   C46   A    
C72   H52   S    
C49   C53   A    
C41   C45   A    
O18   V4    S    
C36   C56   A    
C19   C23   A    
O3    C7    A    
C47   C51   A    
C9    H1    S    
C35   C39   A    
C24   H12   S    
C46   O26   S    
C81   H73   S    
C75   H58   S    
C74   H56   S    
C11   H3    S    
C66   H37   S    
O5    C1    A    
C25   C29   A    
C71   C72   S    
C38   H18   S    
C45   O25   S    
O27   C79   S    
C11   C31   A    
C61   H26   S    
O8    C4    A    
C84   H80   S    
C12   C32   A    
C73   H53   S    
O9    C5    A    
C18   C22   A    
C61   C62   S    
C64   H32   S    
C68   C69   S    
C69   H44   S    
C14   C18   A    
C65   C66   S    
C67   H40   S    
C79   H67   S    
O6    V2    S    
C29   C30   S    
C76   C77   S    
C27   O23   S    
C52   C56   A    
O10   C6    A    
C12   C16   A    
C66   H36   S    
O5    V1    S    
C49   H21   S    
C5    C19   S    
C12   H4    S    
O22   C64   S    
C65   H35   S    
C62   H27   S    
C22   H10   S    
C68   H42   S    
C35   C55   A    
C3    O13   A    
C21   H9    S    
C10   H2    S    
C26   O22   S    
C69   H45   S    
C16   C20   A    
O6    C2    A    
C34   C54   A    
C62   C63   S    
O11   V3    S    
C33   C53   A    
C74   C75   S    
O12   V4    S    
C22   C26   A    
C57   C58   T    
C63   H31   S    
C4    C42   S    
C9    C13   A    
C75   H57   S    
C79   C80   S    
O20   V2    S    
O25   C73   S    
C66   H38   S    
C82   H74   S    
C40   C44   A    
C16   H8    S    
C72   H50   S    
C1    C43   S    
C35   H15   S    
C15   C19   A    
C28   O24   S    
C3    C41   S    
C67   C68   S    
C17   C21   A    
C52   H24   S    
C77   H63   S    
O2    C6    A    
C63   H30   S    
C54   C58   S    
C6    C20   S    
C48   O28   S    
C45   C49   A    
O23   C67   S    
C81   H72   S    
C64   H33   S    
C69   H43   S    
C37   C41   A    
C80   H69   S    
C20   C24   A    
C50   C54   A    
C76   H61   S    
C84   H78   S    
C4    O14   A    
C64   C65   S    
C13   H5    S    
O24   C70   S    
C65   H34   S    
C55   C59   S    
C80   H70   S    
O28   C82   S    
O21   C61   S    
C15   H7    S    
O4    V2    S    
C47   O27   S    
C79   H68   S    
C62   H28   S    
O18   V2    S    
