data_mof_unit_9198.cif
_audit_creation_date              2012-10-26T20:58:59-0400
_audit_creation_method            fapswitch 2.2
_symmetry_space_group_name_H-M    P1
_symmetry_Int_Tables_number       1
_space_group_crystal_system       triclinic
_cell_length_a                    27.808126
_cell_length_b                    10.627595
_cell_length_c                    9.409644
_cell_angle_alpha                 90.08876
_cell_angle_beta                  89.828796
_cell_angle_gamma                 90.09988
_cell_volume                      2780.84507856

loop_
_atom_site_label
_atom_site_type_symbol
_atom_type_description
_atom_site_fract_x
_atom_site_fract_y
_atom_site_fract_z
_atom_type_partial_charge
C1    C     C_R   0.500240 0.259597 0.499787 0.591719
C2    C     C_R   0.872131 0.388711 0.509687 0.023445
C3    C     C_R   0.354551 0.499675 0.500431 0.022913
C4    C     C_R   0.645429 0.500106 0.499407 0.019603
C5    C     C_R   0.974011 0.384517 0.503742 0.026472
C6    C     C_R   0.026005 0.614836 0.502210 0.026519
C7    C     C_R   0.974970 0.616092 0.492994 0.000087
C8    C     C_R   0.025080 0.383119 0.495280 0.000106
C9    C     C_R   0.949138 0.501153 0.498215 0.027430
C10   C     C_R   0.050895 0.498134 0.498943 0.027450
C11   C     C_R   0.946774 0.272829 0.519133 -0.141497
C12   C     C_R   0.499762 0.740403 0.500214 0.591640
C13   C     C_R   0.053185 0.726757 0.516177 -0.141431
C14   C     C_R   0.896931 0.275140 0.521669 -0.109501
C15   C     C_R   0.103020 0.724510 0.519347 -0.109550
C16   C     C_R   0.407508 0.499978 0.500165 0.573556
C17   C     C_R   0.592485 0.499977 0.499818 0.573376
C18   C     C_R   0.051269 0.270018 0.481620 -0.137779
C19   C     C_R   0.948839 0.728957 0.477042 -0.137870
C20   C     C_3   0.540171 0.040135 0.561240 0.016938
C21   C     C_3   0.459832 0.959865 0.438770 0.016138
C22   C     C_3   0.538436 0.956649 0.427329 -0.156797
C23   C     C_R   0.102076 0.496697 0.499448 -0.057156
C24   C     C_3   0.461568 0.043350 0.572680 -0.156997
C25   C     C_3   0.499461 0.876992 0.500611 0.043270
C26   C     C_3   0.500542 0.123007 0.499397 0.043483
C27   C     C_3   0.501723 0.958839 0.635477 -0.148840
C28   C     C_3   0.498281 0.041159 0.364530 -0.148874
C29   C     C_3   0.489462 0.610264 0.050695 -0.002413
C30   C     C_3   0.510541 0.389736 0.949307 -0.002733
C31   C     C_3   0.458249 0.531084 0.949867 -0.004188
C32   C     C_3   0.541754 0.468919 0.050140 -0.006171
C33   C     C_3   0.531253 0.579140 0.949278 -0.013392
C34   C     C_R   0.897956 0.502605 0.498056 -0.057136
C35   C     C_3   0.468748 0.420859 0.050724 -0.011932
C36   C     C_R   0.178397 0.385113 0.490718 0.417981
C37   C     C_R   0.821672 0.614071 0.486790 0.417886
C38   C     C_R   0.178222 0.608845 0.510309 0.398262
C39   C     C_R   0.821766 0.390676 0.510087 0.397850
C40   C     C_R   0.278756 0.508175 0.628988 -0.054908
C41   C     C_R   0.721140 0.515579 0.371270 -0.055816
C42   C     C_R   0.328903 0.508692 0.629063 -0.137855
C43   C     C_R   0.670999 0.514668 0.371321 -0.143697
C44   C     C_R   0.329098 0.490082 0.371927 -0.122633
C45   C     C_R   0.127540 0.381738 0.490029 0.058799
C46   C     C_R   0.670939 0.485937 0.627178 -0.117985
C47   C     C_R   0.278964 0.489060 0.372283 -0.055002
C48   C     C_R   0.721079 0.486252 0.626670 -0.055227
C49   C     C_R   0.253725 0.498144 0.500703 0.241971
C50   C     C_R   0.746265 0.501315 0.498842 0.240494
C51   C     C_2   0.586022 0.081476 0.630371 0.222055
C52   C     C_2   0.413978 0.918519 0.369668 0.222173
C53   C     C_R   0.872531 0.617399 0.486424 0.058844
C54   C     C_R   0.101452 0.268140 0.479246 0.102929
C55   C     C_R   0.898665 0.730803 0.474000 0.102850
C56   C     C_R   0.127860 0.610782 0.509460 0.023346
Cu1   Cu    Cu3+1 0.500010 0.499990 0.643150 0.961328
Cu2   Cu    Cu3+1 0.499990 0.500010 0.356850 0.962356
H1    H     H_    0.347857 0.482915 0.271211 0.130696
H2    H     H_    0.442476 0.354338 0.098493 0.098088
H3    H     H_    0.259662 0.481429 0.272858 0.125261
H4    H     H_    0.740425 0.475182 0.725553 0.127141
H5    H     H_    0.652326 0.525988 0.271332 0.120975
H6    H     H_    0.347508 0.516368 0.729637 0.121278
H7    H     H_    0.740535 0.527106 0.272170 0.127539
H8    H     H_    0.259290 0.515243 0.728512 0.126395
H9    H     H_    0.877851 0.186734 0.533301 0.165288
H10   H     H_    0.122060 0.813092 0.529764 0.165330
H11   H     H_    0.962841 0.181592 0.533278 0.100329
H12   H     H_    0.652215 0.474204 0.727390 0.140300
H13   H     H_    0.037065 0.818188 0.528676 0.100138
H14   H     H_    0.033825 0.180188 0.468566 0.099238
H15   H     H_    0.966337 0.818556 0.462663 0.099420
H16   H     H_    0.569966 0.918856 0.368617 0.116850
H17   H     H_    0.430038 0.081139 0.631393 0.117128
H18   H     H_    0.610553 0.011376 0.671718 0.107719
H19   H     H_    0.389463 0.988614 0.328226 0.107660
H20   H     H_    0.114566 0.091799 0.549770 0.227066
H21   H     H_    0.113949 0.106856 0.370850 0.229587
H22   H     H_    0.886551 0.890287 0.362661 0.229711
H23   H     H_    0.503361 0.923479 0.746346 0.116413
H24   H     H_    0.885327 0.908278 0.541286 0.227007
H25   H     H_    0.496642 0.076518 0.253662 0.116433
H26   H     H_    0.423096 0.557697 0.903278 0.108371
H27   H     H_    0.576915 0.442374 0.096765 0.110059
H28   H     H_    0.480439 0.703154 0.097748 0.129298
H29   H     H_    0.519566 0.296847 0.902253 0.129095
H30   H     H_    0.557520 0.645676 0.901516 0.099190
N1    N     N_R   0.202225 0.497333 0.500749 -0.412251
N2    N     N_R   0.797786 0.502041 0.498562 -0.411966
N3    N     N_3   0.500040 0.499970 0.858290 -0.233792
N4    N     N_3   0.499960 0.500030 0.141710 -0.233840
N5    N     N_3   0.125357 0.149248 0.465313 -0.539679
N6    N     N_3   0.874819 0.849457 0.457711 -0.539666
O1    O     O_R   0.500020 0.316850 0.620870 -0.481183
O2    O     O_2   0.796025 0.721274 0.476524 -0.438355
O3    O     O_2   0.796819 0.282018 0.521127 -0.476786
O4    O     O_2   0.203148 0.717638 0.519912 -0.476074
O5    O     O_2   0.596123 0.192876 0.640383 -0.495092
O6    O     O_2   0.403853 0.807123 0.359800 -0.491402
O7    O     O_R   0.499980 0.683150 0.379130 -0.481372
O8    O     O_R   0.500000 0.316860 0.379090 -0.515175
O9    O     O_R   0.500000 0.683140 0.620910 -0.515028
O10   O     O_R   0.430270 0.500020 0.620880 -0.516088
O11   O     O_R   0.569730 0.499980 0.379120 -0.515001
O12   O     O_R   0.430250 0.500030 0.379090 -0.486185
O13   O     O_R   0.569750 0.499970 0.620910 -0.488045
O14   O     O_2   0.204099 0.277825 0.482192 -0.437914

loop_
_geom_bond_atom_site_label_1
_geom_bond_atom_site_label_2
_ccdc_geom_bond_type
C36   N1    A    
C3    C42   A    
C23   C45   A    
C36   O14   S    
C24   C27   S    
C38   O4    S    
C43   H5    S    
C23   C56   A    
C47   C49   A    
C4    C46   A    
C38   N1    A    
C37   N2    A    
H24   N6    S    
C33   H30   S    
C24   C26   S    
H21   N5    S    
C20   C51   S    
C33   N3    S    
C11   C14   A    
C39   O3    S    
C15   H10   S    
H20   N5    S    
C40   C49   A    
C29   C33   S    
C54   N5    S    
C2    C39   A    
C16   O10   A    
C22   C25   S    
C14   H9    S    
Cu2   O8    S    
C39   N2    A    
C44   C47   A    
C16   O12   A    
C37   C53   A    
C35   N4    S    
C2    C34   A    
C40   C42   A    
C40   H8    S    
C28   H25   S    
C18   H14   S    
C41   C43   A    
C55   N6    S    
C50   N2    S    
C53   C55   A    
C51   O5    D    
Cu1   O9    S    
C46   C48   A    
C3    C44   A    
C19   H15   S    
C51   H18   S    
C12   O9    A    
C18   C54   A    
C41   H7    S    
C13   H13   S    
C52   O6    D    
C8    C18   A    
C31   H26   S    
C37   O2    S    
C35   H2    S    
Cu2   O12   S    
C5    C9    A    
C17   O11   A    
C48   H4    S    
C27   H23   S    
C1    O1    A    
C36   C45   A    
Cu2   O7    S    
C29   H28   S    
C4    C17   S    
C30   C35   S    
Cu1   O13   S    
C21   C28   S    
C20   C22   S    
C45   C54   A    
C31   N3    S    
C13   C15   A    
C9    C34   A    
C31   C35   S    
C22   H16   S    
H22   N6    S    
C52   H19   S    
C42   H6    S    
C41   C50   A    
C19   C55   A    
C7    C9    A    
Cu1   O10   S    
C21   C25   S    
Cu1   N3    S    
C49   N1    S    
C30   N3    S    
C47   H3    S    
C5    C8    A    
C11   H11   S    
C24   H17   S    
C5    C11   A    
C6    C7    A    
C20   C27   S    
C10   C23   A    
C25   C27   S    
C26   C28   S    
C12   C25   S    
Cu2   O11   S    
C15   C56   A    
C17   O13   A    
C12   O7    A    
C29   C31   S    
C32   C33   S    
C6    C13   A    
C30   C32   S    
Cu1   Cu2   S    
C1    C26   S    
C20   C26   S    
C7    C19   A    
C32   H27   S    
C48   C50   A    
C4    C43   A    
C29   N4    S    
C2    C14   A    
C46   H12   S    
C6    C10   A    
C32   N4    S    
C38   C56   A    
C34   C53   A    
C8    C10   A    
Cu1   O1    S    
C21   C24   S    
C22   C28   S    
C44   H1    S    
C30   H29   S    
Cu2   N4    S    
C1    O8    A    
C21   C52   S    
C3    C16   S    
