data_mof_unit_36744.cif
_audit_creation_date              2012-12-10T20:51:42-0500
_audit_creation_method            fapswitch 2.2
_symmetry_space_group_name_H-M    P1
_symmetry_Int_Tables_number       1
_space_group_crystal_system       triclinic
_cell_length_a                    8.094169
_cell_length_b                    8.899197
_cell_length_c                    16.666763
_cell_angle_alpha                 89.19118
_cell_angle_beta                  94.737591
_cell_angle_gamma                 89.622394
_cell_volume                      1196.27650409

loop_
_atom_site_label
_atom_site_type_symbol
_atom_type_description
_atom_site_fract_x
_atom_site_fract_y
_atom_site_fract_z
_atom_type_partial_charge
C1    C     C_R   0.500352 0.217987 0.500143 0.925482
C2    C     C_R   0.499719 0.782002 0.500265 0.895306
C3    C     C_R   0.521673 0.500166 0.654320 0.932055
C4    C     C_R   0.477761 0.508833 0.345511 0.895943
C5    C     C_R   0.535610 0.523094 0.740989 -0.245387
C6    C     C_R   0.461194 0.553373 0.260072 -0.261050
C7    C     C_R   0.420749 0.619753 0.773703 0.408749
C8    C     C_R   0.586836 0.642826 0.229796 0.436781
C9    C     C_R   0.434555 0.646413 0.855418 -0.283237
C10   C     C_R   0.579203 0.677916 0.148450 -0.336660
C11   C     C_R   0.560667 0.577291 0.906503 0.146892
C12   C     C_R   0.438103 0.643692 0.098737 0.183050
C13   C     C_R   0.676548 0.481503 0.874213 0.138969
C14   C     C_R   0.299244 0.580130 0.130384 0.212345
C15   C     C_R   0.666914 0.456872 0.790852 0.118272
C16   C     C_R   0.313568 0.524540 0.210307 0.045892
C17   C     C_1   0.500561 0.065237 0.500318 -0.214713
C18   C     C_1   0.499578 0.934757 0.500378 -0.231837
H1    H     H_    0.683495 0.732203 0.123633 0.175191
H2    H     H_    0.341500 0.717703 0.878918 0.185732
N1    N     N_1   0.073640 0.500030 0.499990 -0.031651
N2    N     N_1   0.926360 0.499970 0.500010 -0.028146
N3    N     N_2   0.563582 0.588164 0.991216 -0.169105
N4    N     N_2   0.440402 0.653618 0.014802 -0.155036
O1    O     O_R   0.636850 0.285340 0.500000 -0.622201
O2    O     O_R   0.363150 0.714660 0.500000 -0.626963
O3    O     O_R   0.363100 0.285350 0.500000 -0.615364
O4    O     O_R   0.636900 0.714650 0.500000 -0.625059
O5    O     O_R   0.652140 0.498630 0.616140 -0.596481
O6    O     O_R   0.347860 0.501370 0.383860 -0.626983
O7    O     O_R   0.378390 0.498650 0.616130 -0.577654
O8    O     O_R   0.621610 0.501350 0.383870 -0.574068
Zn1   Zn    Zn3+2 0.682780 0.499990 0.500010 0.984787
Zn2   Zn    Zn3+2 0.317220 0.500010 0.499990 0.975926
O9    O     O_3   0.722218 0.691442 0.278450 -0.646867
C19   C     C_3   0.683920 0.830313 0.313430 0.137824
H3    H     H_    0.759666 0.836714 0.371912 0.185564
H4    H     H_    0.551515 0.839865 0.327103 0.105828
C20   C     C_3   0.730430 0.963363 0.260514 -0.414828
H5    H     H_    0.861955 0.951637 0.246808 0.230858
H6    H     H_    0.650994 0.964612 0.202938 0.220085
C21   C     C_3   0.707226 0.112761 0.302342 -0.909859
H7    H     H_    0.575965 0.127467 0.315792 0.251161
H8    H     H_    0.740260 0.206814 0.262347 0.262283
H9    H     H_    0.788438 0.117242 0.359330 0.271400
O10   O     O_3   0.284196 0.677707 0.727620 -0.619621
C22   C     C_3   0.322530 0.818123 0.693063 0.135834
H10   H     H_    0.250020 0.826438 0.633610 0.194272
H11   H     H_    0.455709 0.829423 0.681156 0.090164
C23   C     C_3   0.270051 0.947698 0.745328 -0.416504
H12   H     H_    0.148959 0.921778 0.769152 0.243620
H13   H     H_    0.364109 0.961265 0.797115 0.207753
C24   C     C_3   0.252858 0.095281 0.697282 -0.897217
H14   H     H_    0.367404 0.118620 0.667187 0.253552
H15   H     H_    0.230003 0.189188 0.738236 0.269672
H16   H     H_    0.146815 0.089352 0.650690 0.270378
N5    N     N_2   0.797231 0.402072 0.925874 -0.300126
H17   H     H_    0.847833 0.464295 0.973158 0.239339
C25   C     C_3   0.743492 0.256404 0.952737 -0.764883
H18   H     H_    0.848287 0.198033 0.987706 0.233093
H19   H     H_    0.702166 0.185737 0.900662 0.253382
H20   H     H_    0.639912 0.269423 0.991982 0.244981
N6    N     N_2   0.150542 0.563720 0.079100 -0.287967
H21   H     H_    0.073055 0.478289 0.094169 0.245625
C26   C     C_3   0.064522 0.704483 0.059001 -0.809124
H22   H     H_    0.951031 0.684414 0.018924 0.232537
H23   H     H_    0.144356 0.782003 0.026890 0.255417
H24   H     H_    0.028128 0.759563 0.114366 0.231987
N7    N     N_2   0.789281 0.365983 0.757396 -0.259511
H25   H     H_    0.907085 0.370540 0.786014 0.258917
C27   C     C_3   0.738893 0.216313 0.732927 -0.771453
H26   H     H_    0.754610 0.203315 0.667886 0.256503
H27   H     H_    0.607606 0.194351 0.743691 0.227804
H28   H     H_    0.817693 0.130733 0.767233 0.228547
N8    N     N_2   0.185945 0.431399 0.237545 -0.327010
H29   H     H_    0.226498 0.343100 0.274955 0.233614
C28   C     C_3   0.042716 0.509755 0.263422 -0.631103
H30   H     H_    0.954193 0.427132 0.285552 0.233132
H31   H     H_    0.978019 0.573686 0.212635 0.253288
H32   H     H_    0.079217 0.588733 0.312583 0.257879

loop_
_geom_bond_atom_site_label_1
_geom_bond_atom_site_label_2
_ccdc_geom_bond_type
N6    C26   S    
C2    C18   S    
C16   N8    S    
O9    C19   S    
C22   H11   S    
C28   H30   S    
C19   H3    S    
N5    C25   S    
C13   N5    S    
O5    Zn1   S    
N7    C27   S    
C3    O5    A    
O2    Zn2   S    
C26   H23   S    
C23   H13   S    
N3    N4    D    
C20   C21   S    
C28   H31   S    
C25   H18   S    
N1    N2    T    
C1    O1    A    
C21   H8    S    
C17   C18   T    
C22   C23   S    
C24   H15   S    
O3    Zn2   S    
C15   N7    S    
C25   H19   S    
C23   C24   S    
O6    Zn2   S    
C7    O10   S    
C4    C6    S    
C20   H5    S    
C5    C7    A    
C6    C8    A    
N1    Zn2   S    
C24   H14   S    
C8    O9    S    
N8    H29   S    
N8    C28   S    
C9    H2    S    
C22   H10   S    
C10   H1    S    
C26   H24   S    
C23   H12   S    
O7    Zn2   S    
C2    O2    A    
C3    O7    A    
C9    C11   A    
C4    O8    A    
C10   C12   A    
C12   C14   A    
O4    Zn1   S    
C13   C15   A    
C14   C16   A    
C21   H7    S    
C27   H27   S    
C24   H16   S    
C7    C9    A    
N2    Zn1   S    
O10   C22   S    
C25   H20   S    
C19   C20   S    
C3    C5    S    
C27   H28   S    
C12   N4    S    
C1    C17   S    
O8    Zn1   S    
C19   H4    S    
C27   H26   S    
C11   C13   A    
N5    H17   S    
C28   H32   S    
C14   N6    S    
C11   N3    S    
N7    H25   S    
C5    C15   A    
C6    C16   A    
N6    H21   S    
C20   H6    S    
C8    C10   A    
C26   H22   S    
C1    O3    A    
C2    O4    A    
C21   H9    S    
C4    O6    A    
O1    Zn1   S    
