data_mof_unit_54332.cif
_audit_creation_date              2012-12-11T15:50:25-0500
_audit_creation_method            fapswitch 2.2
_symmetry_space_group_name_H-M    P1
_symmetry_Int_Tables_number       1
_space_group_crystal_system       triclinic
_cell_length_a                    18.973685
_cell_length_b                    11.232143
_cell_length_c                    18.623024
_cell_angle_alpha                 89.786449
_cell_angle_beta                  90.362226
_cell_angle_gamma                 89.210465
_cell_volume                      3968.36343326

loop_
_atom_site_label
_atom_site_type_symbol
_atom_type_description
_atom_site_fract_x
_atom_site_fract_y
_atom_site_fract_z
_atom_type_partial_charge
C1    C     C_R   0.273543 0.034098 0.855927 0.522427
C2    C     C_R   0.713786 0.004019 0.138111 0.546714
C3    C     C_R   0.773565 0.534061 0.855942 0.522716
C4    C     C_R   0.213780 0.503998 0.138108 0.545273
C5    C     C_3   0.520975 0.772208 0.969837 0.007803
C6    C     C_3   0.476102 0.724788 0.031867 0.016819
C7    C     C_3   0.021392 0.272270 0.969537 0.007879
C8    C     C_3   0.976533 0.224752 0.031616 0.016881
C9    C     C_R   0.236183 0.534653 0.065677 0.002800
C10   C     C_R   0.750823 0.559549 0.928799 0.020731
C11   C     C_R   0.736224 0.034695 0.065705 0.002718
C12   C     C_R   0.250797 0.059569 0.928787 0.021843
C13   C     C_R   0.266642 0.451537 0.017440 -0.015636
C14   C     C_R   0.725359 0.468810 0.974147 0.010414
C15   C     C_R   0.766580 0.951501 0.017467 -0.016794
C16   C     C_R   0.225256 0.968850 0.974133 0.010870
C17   C     C_R   0.273749 0.479697 0.944756 -0.017139
C18   C     C_R   0.725697 0.485752 0.049721 -0.015158
C19   C     C_R   0.773676 0.979646 0.944769 -0.016199
C20   C     C_R   0.225666 0.985763 0.049719 -0.015794
C21   C     C_R   0.232532 0.675052 0.970156 -0.167693
C22   C     C_R   0.739030 0.689574 0.027819 -0.152520
C23   C     C_R   0.732990 0.175251 0.970265 -0.168632
C24   C     C_R   0.239221 0.189531 0.027852 -0.151950
C25   C     C_R   0.223828 0.649365 0.041585 -0.167668
C26   C     C_R   0.752006 0.673388 0.955165 -0.179640
C27   C     C_R   0.724228 0.149557 0.041698 -0.167426
C28   C     C_R   0.252165 0.173374 0.955192 -0.179966
C29   C     C_3   0.339779 0.396818 0.017487 -0.271306
C30   C     C_3   0.648897 0.432000 0.976558 -0.272138
C31   C     C_3   0.839711 0.896763 0.017533 -0.273044
C32   C     C_3   0.148716 0.932389 0.976671 -0.272013
C33   C     C_3   0.347336 0.433267 0.939939 -0.277824
C34   C     C_3   0.650910 0.449107 0.055897 -0.281098
C35   C     C_3   0.847253 0.933122 0.939985 -0.274668
C36   C     C_3   0.150854 0.949404 0.056001 -0.281364
C37   C     C_R   0.249877 0.589182 0.920313 0.021764
C38   C     C_R   0.746585 0.596231 0.075972 0.016823
C39   C     C_R   0.749942 0.089253 0.920367 0.021230
C40   C     C_R   0.246673 0.096158 0.075993 0.016576
C41   C     C_R   0.507283 0.827925 0.426159 0.007869
C42   C     C_R   0.497819 0.833369 0.575999 -0.006094
C43   C     C_R   0.005322 0.323747 0.425399 0.009761
C44   C     C_R   0.995533 0.335808 0.575277 0.006200
C45   C     C_R   0.437447 0.818474 0.861776 0.560631
C46   C     C_R   0.528218 0.823114 0.145931 0.530961
C47   C     C_R   0.937526 0.318494 0.861771 0.557280
C48   C     C_R   0.028372 0.323093 0.145827 0.531071
C49   C     C_R   0.525956 0.729640 0.468113 0.037263
C50   C     C_R   0.522172 0.731220 0.541230 0.005823
C51   C     C_R   0.035310 0.236088 0.470192 0.031408
C52   C     C_R   0.033061 0.242987 0.543371 -0.002557
C53   C     C_R   0.484631 0.937749 0.535113 -0.168805
C54   C     C_R   0.488218 0.934201 0.460193 -0.174623
C55   C     C_R   0.969076 0.430102 0.531514 -0.136021
C56   C     C_R   0.973921 0.423864 0.456697 -0.162722
C57   C     C_3   0.500064 0.605789 0.462381 -0.268840
C58   C     C_3   0.497155 0.604793 0.543251 -0.263493
C59   C     C_3   0.027337 0.103986 0.470297 -0.260240
C60   C     C_3   0.030233 0.110079 0.551478 -0.273891
C61   C     C_R   0.247771 0.588167 0.421648 0.021722
C62   C     C_R   0.747000 0.597089 0.581426 0.023045
C63   C     C_R   0.750470 0.113941 0.415827 -0.005204
C64   C     C_R   0.245736 0.096655 0.581262 0.003817
C65   C     C_R   0.210275 0.536986 0.476939 0.024402
C66   C     C_R   0.787400 0.685870 0.550935 0.037752
C67   C     C_R   0.696750 0.170438 0.454481 0.053520
C68   C     C_R   0.267611 0.208351 0.557455 0.060301
C69   C     C_R   0.224487 0.558899 0.547167 0.039026
C70   C     C_R   0.779204 0.715928 0.480339 -0.017548
C71   C     C_R   0.706528 0.202825 0.524583 -0.011620
C72   C     C_R   0.259469 0.239591 0.486067 -0.023155
C73   C     C_R   0.313684 0.697762 0.510227 -0.190891
C74   C     C_R   0.691245 0.564982 0.466775 -0.150725
C75   C     C_R   0.828803 0.143754 0.517035 -0.153250
C76   C     C_R   0.204928 0.049880 0.462416 -0.161933
C77   C     C_R   0.303283 0.664531 0.438238 -0.189975
C78   C     C_R   0.699017 0.534787 0.538545 -0.171179
C79   C     C_R   0.818761 0.111554 0.444722 -0.173932
C80   C     C_R   0.210820 0.020426 0.533986 -0.181923
C81   C     C_3   0.133729 0.520539 0.490494 0.019530
C82   C     C_3   0.800643 0.812138 0.572448 0.021414
C83   C     C_3   0.623579 0.126944 0.469238 0.027549
C84   C     C_3   0.339038 0.263564 0.562414 0.002425
C85   C     C_3   0.150421 0.534142 0.569959 -0.204073
C86   C     C_3   0.790774 0.844837 0.493569 -0.211674
C87   C     C_3   0.633369 0.167285 0.545776 -0.209648
C88   C     C_3   0.330322 0.297049 0.483819 -0.239983
C89   C     C_R   0.259571 0.632408 0.848801 0.539997
C90   C     C_R   0.740488 0.632851 0.150363 0.541755
C91   C     C_R   0.759578 0.132419 0.848820 0.542061
C92   C     C_R   0.240505 0.132824 0.150377 0.540451
C93   C     C_R   0.270423 0.649583 0.564057 0.027755
C94   C     C_R   0.729866 0.658971 0.437806 0.018919
C95   C     C_R   0.770681 0.178021 0.559121 0.021519
C96   C     C_R   0.230353 0.158787 0.437766 0.020138
C97   C     C_R   0.270943 0.046199 0.647200 0.533562
C98   C     C_R   0.729308 0.049356 0.352064 0.536018
C99   C     C_R   0.770471 0.547075 0.647847 0.538148
C100  C     C_R   0.230303 0.550121 0.350914 0.543922
C101  C     C_R   0.468911 0.823218 0.647028 0.535123
C102  C     C_R   0.529814 0.823260 0.352398 0.530816
C103  C     C_R   0.968768 0.323456 0.646982 0.536123
C104  C     C_R   0.029035 0.322560 0.351913 0.530761
C105  C     C_R   0.274856 0.688839 0.636433 0.564917
C106  C     C_R   0.725136 0.688296 0.363102 0.568498
C107  C     C_R   0.774869 0.191633 0.636700 0.582393
C108  C     C_R   0.225557 0.187826 0.363117 0.571818
C109  C     C_3   0.427229 0.900648 0.045162 -0.145829
C110  C     C_3   0.471244 0.947686 0.981074 -0.119011
C111  C     C_3   0.927667 0.400642 0.045017 -0.145693
C112  C     C_3   0.971652 0.447742 0.980935 -0.119059
C113  C     C_3   0.410099 0.787661 0.000833 -0.143410
C114  C     C_3   0.537594 0.885106 0.012741 -0.116181
C115  C     C_3   0.910524 0.287716 0.000680 -0.143696
C116  C     C_3   0.038033 0.385106 0.012518 -0.116367
C117  C     C_3   0.455363 0.832743 0.938694 0.046609
C118  C     C_3   0.493497 0.836050 0.075029 0.045905
C119  C     C_3   0.955723 0.332842 0.938548 0.046484
C120  C     C_3   0.993923 0.335995 0.074811 0.046094
Cr1   Cr    Cr6+3 0.229640 0.835880 0.747370 0.987245
Cr2   Cr    Cr6+3 0.770360 0.835880 0.252630 0.982766
Cr3   Cr    Cr6+3 0.729640 0.335880 0.747370 0.984628
Cr4   Cr    Cr6+3 0.270360 0.335880 0.252630 0.980006
Cr5   Cr    Cr6+3 0.387390 0.989720 0.750850 0.974353
Cr6   Cr    Cr6+3 0.612610 0.989720 0.249150 0.990330
Cr7   Cr    Cr6+3 0.887390 0.489720 0.750850 0.993788
Cr8   Cr    Cr6+3 0.112610 0.489720 0.249150 0.995360
Cr9   Cr    Cr6+3 0.385770 0.677220 0.749340 0.963189
Cr10  Cr    Cr6+3 0.614230 0.677220 0.250660 0.970692
Cr11  Cr    Cr6+3 0.885770 0.177220 0.749340 0.980025
Cr12  Cr    Cr6+3 0.114230 0.177220 0.250660 0.974609
H1    H     H_    0.358108 0.746542 0.995124 0.115703
H2    H     H_    0.590329 0.925957 0.018434 0.109803
H3    H     H_    0.858534 0.246623 0.994958 0.115183
H4    H     H_    0.090774 0.425931 0.018206 0.109950
H5    H     H_    0.465692 0.018888 0.560072 0.144559
H6    H     H_    0.474340 0.012493 0.429126 0.139219
H7    H     H_    0.940289 0.504594 0.554414 0.156135
H8    H     H_    0.953313 0.496120 0.423738 0.131830
H9    H     H_    0.071887 0.055754 0.445805 0.149946
H10   H     H_    0.982710 0.074025 0.577211 0.154085
H11   H     H_    0.540532 0.546495 0.439526 0.133719
H12   H     H_    0.442477 0.595189 0.562908 0.163493
H13   H     H_    0.447574 0.600456 0.436014 0.138261
H14   H     H_    0.536581 0.543148 0.568306 0.126757
H15   H     H_    0.975402 0.076262 0.449379 0.122360
H16   H     H_    0.079831 0.073254 0.574753 0.144288
H17   H     H_    0.352743 0.763711 0.523390 0.125801
H18   H     H_    0.656873 0.513037 0.433637 0.128952
H19   H     H_    0.879896 0.133525 0.541310 0.132832
H20   H     H_    0.183789 0.984372 0.425903 0.129164
H21   H     H_    0.335109 0.702737 0.396194 0.117002
H22   H     H_    0.670098 0.459750 0.559217 0.130701
H23   H     H_    0.861755 0.073980 0.414123 0.114932
H24   H     H_    0.194489 0.932544 0.550467 0.131427
H25   H     H_    0.117439 0.430042 0.475686 0.134456
H26   H     H_    0.855712 0.825384 0.591417 0.127279
H27   H     H_    0.619867 0.028457 0.464880 0.130512
H28   H     H_    0.383815 0.200412 0.572050 0.147181
H29   H     H_    0.122123 0.608303 0.596863 0.172286
H30   H     H_    0.743493 0.899977 0.480845 0.137585
H31   H     H_    0.600104 0.244238 0.562452 0.139097
H32   H     H_    0.327281 0.394200 0.473593 0.153230
H33   H     H_    0.147508 0.448407 0.599807 0.113542
H34   H     H_    0.840368 0.874188 0.468066 0.117355
H35   H     H_    0.632764 0.091830 0.584262 0.137366
H36   H     H_    0.368256 0.248760 0.448732 0.134588
H37   H     H_    0.388792 0.953232 0.077124 0.120229
H38   H     H_    0.469108 0.039661 0.959078 0.130119
H39   H     H_    0.889240 0.453176 0.077022 0.120699
H40   H     H_    0.969499 0.539725 0.958952 0.130585
H41   H     H_    0.235686 0.763943 0.953082 0.144657
H42   H     H_    0.718566 0.771614 0.047960 0.128474
H43   H     H_    0.736475 0.264121 0.953212 0.144137
H44   H     H_    0.218800 0.271585 0.048005 0.128626
H45   H     H_    0.211904 0.719372 0.078876 0.143765
H46   H     H_    0.756123 0.747092 0.918642 0.131038
H47   H     H_    0.712587 0.219609 0.079059 0.144019
H48   H     H_    0.256257 0.247113 0.918684 0.129038
H49   H     H_    0.845780 0.799975 0.024279 0.155846
H50   H     H_    0.135691 0.840139 0.961861 0.145145
H51   H     H_    0.345891 0.300031 0.024171 0.155775
H52   H     H_    0.636110 0.339655 0.961746 0.145211
H53   H     H_    0.374093 0.436479 0.055926 0.147891
H54   H     H_    0.612445 0.492787 0.948425 0.118700
H55   H     H_    0.874094 0.936512 0.055883 0.147974
H56   H     H_    0.112296 0.993378 0.948679 0.119272
H57   H     H_    0.385705 0.505188 0.930512 0.155932
H58   H     H_    0.619051 0.525331 0.072987 0.156186
H59   H     H_    0.885650 0.004985 0.930520 0.156041
H60   H     H_    0.119140 0.025762 0.073143 0.156705
H61   H     H_    0.352897 0.357315 0.902355 0.132804
H62   H     H_    0.642436 0.368115 0.088393 0.132203
H63   H     H_    0.852806 0.857101 0.902459 0.138861
H64   H     H_    0.142311 0.868446 0.088502 0.132117
O1    O     O_R   0.214300 0.709080 0.827500 -0.517884
O2    O     O_R   0.785700 0.709080 0.172500 -0.521132
O3    O     O_R   0.714300 0.209080 0.827500 -0.520833
O4    O     O_R   0.285700 0.209080 0.172500 -0.521552
O5    O     O_R   0.445900 0.919370 0.676500 -0.505357
O6    O     O_R   0.554100 0.919370 0.323500 -0.518727
O7    O     O_R   0.945900 0.419370 0.676500 -0.503992
O8    O     O_R   0.054100 0.419370 0.323500 -0.517485
O9    O     O_R   0.456660 0.717710 0.669820 -0.534750
O10   O     O_R   0.543340 0.717710 0.330180 -0.529979
O11   O     O_R   0.956660 0.217710 0.669820 -0.538372
O12   O     O_R   0.043340 0.217710 0.330180 -0.527286
O13   O     O_R   0.320590 0.625770 0.672930 -0.507859
O14   O     O_R   0.679410 0.625770 0.327070 -0.510600
O15   O     O_R   0.820590 0.125770 0.672930 -0.498092
O16   O     O_R   0.179410 0.125770 0.327070 -0.510560
O17   O     O_3   0.334270 0.834280 0.749190 -0.286159
O18   O     O_3   0.665730 0.834280 0.250810 -0.282051
O19   O     O_3   0.834270 0.334280 0.749190 -0.293558
O20   O     O_3   0.165730 0.334280 0.250810 -0.281195
O21   O     O_R   0.236190 0.958390 0.823150 -0.508596
O22   O     O_R   0.763810 0.958390 0.176850 -0.510172
O23   O     O_R   0.736190 0.458390 0.823150 -0.511405
O24   O     O_R   0.263810 0.458390 0.176850 -0.511917
O25   O     O_R   0.332090 0.075280 0.831290 -0.531117
O26   O     O_R   0.667910 0.075280 0.168710 -0.518764
O27   O     O_R   0.832090 0.575280 0.831290 -0.523699
O28   O     O_R   0.167910 0.575280 0.168710 -0.520135
O29   O     O_R   0.446280 0.918040 0.826620 -0.512328
O30   O     O_R   0.553720 0.918040 0.173380 -0.509928
O31   O     O_R   0.946280 0.418040 0.826620 -0.512284
O32   O     O_R   0.053720 0.418040 0.173380 -0.509326
O33   O     O_R   0.457080 0.716270 0.831760 -0.533190
O34   O     O_R   0.542920 0.716270 0.168240 -0.535129
O35   O     O_R   0.957080 0.216270 0.831760 -0.532950
O36   O     O_R   0.042920 0.216270 0.168240 -0.535529
O37   O     O_R   0.320980 0.624440 0.823040 -0.524459
O38   O     O_R   0.679020 0.624440 0.176960 -0.504482
O39   O     O_R   0.820980 0.124440 0.823040 -0.516288
O40   O     O_R   0.179020 0.124440 0.176960 -0.504715
O41   O     O_R   0.213880 0.710510 0.665560 -0.535621
O42   O     O_R   0.786120 0.710510 0.334440 -0.512040
O43   O     O_R   0.713880 0.210510 0.665560 -0.528039
O44   O     O_R   0.286120 0.210510 0.334440 -0.521149
O45   O     O_R   0.235800 0.959720 0.673040 -0.524491
O46   O     O_R   0.764200 0.959720 0.326960 -0.527053
O47   O     O_R   0.735800 0.459720 0.673040 -0.530140
O48   O     O_R   0.264200 0.459720 0.326960 -0.526414
O49   O     O_R   0.331670 0.076720 0.669350 -0.537295
O50   O     O_R   0.668330 0.076720 0.330650 -0.517749
O51   O     O_R   0.831670 0.576720 0.669350 -0.522154
O52   O     O_R   0.168330 0.576720 0.330650 -0.517157
N1    N     N_2   0.087401 0.615257 0.462061 -0.502869
H65   H     H_    0.065505 0.596132 0.412855 0.288250
C121  C     C_3   0.106065 0.739850 0.468481 -0.290880
H66   H     H_    0.059259 0.796322 0.455214 0.125010
H67   H     H_    0.148443 0.762326 0.430256 0.158998
H68   H     H_    0.122914 0.762328 0.523689 0.147337
N2    N     N_2   0.748919 0.865750 0.620880 -0.495922
H69   H     H_    0.764690 0.862780 0.673951 0.260764
C122  C     C_3   0.674088 0.844821 0.611719 -0.288443
H70   H     H_    0.643940 0.911119 0.643560 0.138887
H71   H     H_    0.660113 0.755802 0.632637 0.140011
H72   H     H_    0.657379 0.853294 0.554844 0.148082
N3    N     N_2   0.567284 0.188876 0.429843 -0.514340
H73   H     H_    0.551993 0.144637 0.384108 0.278632
C123  C     C_3   0.572213 0.315320 0.417277 -0.302704
H74   H     H_    0.521967 0.348593 0.393201 0.126300
H75   H     H_    0.615581 0.333871 0.379225 0.160510
H76   H     H_    0.580856 0.362521 0.468499 0.134231
N4    N     N_2   0.339614 0.366484 0.609335 -0.506286
H77   H     H_    0.379170 0.424810 0.596839 0.250461
C124  C     C_3   0.337867 0.339290 0.685377 -0.255333
H78   H     H_    0.340316 0.422102 0.717242 0.167390
H79   H     H_    0.383990 0.282642 0.700900 0.141929
H80   H     H_    0.287980 0.294320 0.699163 0.163073
C125  C     C_3   0.578458 0.716614 0.924059 -0.250728
C126  C     C_3   0.611474 0.809136 0.872975 -0.277326
C127  C     C_3   0.635838 0.754220 0.802485 -0.431378
H81   H     H_    0.666474 0.820529 0.771850 0.134818
H82   H     H_    0.669555 0.675033 0.812496 0.162651
H83   H     H_    0.589670 0.727569 0.769637 0.185307
H84   H     H_    0.574240 0.882645 0.859426 0.197839
H85   H     H_    0.656263 0.852228 0.900330 0.141955
H86   H     H_    0.618497 0.683562 0.961934 0.141282
H87   H     H_    0.557048 0.640102 0.894106 0.173243
C128  C     C_3   0.467529 0.602762 0.065943 -0.242372
C129  C     C_3   0.414185 0.607363 0.129219 -0.264343
C130  C     C_3   0.428672 0.509752 0.185413 -0.405524
H88   H     H_    0.388836 0.515894 0.228672 0.164647
H89   H     H_    0.426940 0.419562 0.161588 0.135864
H90   H     H_    0.481415 0.521451 0.210310 0.161800
H91   H     H_    0.415076 0.693445 0.157943 0.171579
H92   H     H_    0.359724 0.603667 0.108808 0.164450
H93   H     H_    0.454660 0.541273 0.022554 0.107667
H94   H     H_    0.517574 0.569445 0.086345 0.167387
C131  C     C_3   0.078816 0.216989 0.923411 -0.250801
C132  C     C_3   0.111420 0.309439 0.871895 -0.277604
C133  C     C_3   0.135085 0.254456 0.801104 -0.427690
H95   H     H_    0.162115 0.322499 0.768222 0.132130
H96   H     H_    0.171920 0.179186 0.810862 0.158247
H97   H     H_    0.088861 0.222006 0.770414 0.189857
H98   H     H_    0.074040 0.382889 0.858723 0.198716
H99   H     H_    0.156516 0.352588 0.898691 0.141222
H100  H     H_    0.119100 0.184308 0.961088 0.141305
H101  H     H_    0.057415 0.140221 0.893696 0.173243
C134  C     C_3   0.967669 0.102803 0.065744 -0.242911
C135  C     C_3   0.914177 0.107772 0.128890 -0.264521
C136  C     C_3   0.928459 0.010397 0.185277 -0.403533
H102  H     H_    0.888564 0.016903 0.228463 0.166592
H103  H     H_    0.926666 0.920091 0.161623 0.135798
H104  H     H_    0.981177 0.022042 0.210234 0.163012
H105  H     H_    0.915034 0.193976 0.157480 0.172946
H106  H     H_    0.859766 0.104070 0.108355 0.164461
H107  H     H_    0.954728 0.041307 0.022376 0.107965
H108  H     H_    0.017590 0.069240 0.086307 0.167261

loop_
_geom_bond_atom_site_label_1
_geom_bond_atom_site_label_2
_ccdc_geom_bond_type
Cr4   O24   S    
C57   H13   S    
Cr6   O50   S    
C73   C93   A    
Cr8   O28   S    
N2    C122  S    
C7    C131  S    
C75   C95   A    
C48   C120  S    
Cr6   O6    S    
C135  H106  S    
C53   H5    S    
C104  O8    A    
C129  C130  S    
C63   C98   S    
C69   C93   A    
C97   O49   A    
C5    C6    S    
C56   H8    S    
C71   C95   A    
C106  O14   A    
C29   C33   S    
C55   H7    S    
C33   H57   S    
C126  C127  S    
C9    C13   A    
C72   C88   S    
C11   C15   A    
C87   H35   S    
C12   C16   A    
C88   H36   S    
Cr12  O20   S    
Cr4   O48   S    
C34   H62   S    
C96   C108  S    
C129  H92   S    
C59   C60   S    
C113  H1    S    
C31   H49   S    
Cr6   O30   S    
C41   C49   A    
C109  C118  S    
Cr11  O19   S    
C51   C52   A    
C7    C119  S    
C121  H66   S    
C57   H11   S    
Cr11  O39   S    
C92   O40   A    
C84   N4    S    
Cr1   O17   S    
C66   C82   S    
C134  C135  S    
C11   C27   A    
C68   C72   A    
C45   O29   A    
Cr12  O40   S    
C64   C97   S    
C21   H41   S    
C124  H79   S    
C82   N2    S    
C5    C125  S    
Cr9   O13   S    
C24   H44   S    
C134  H107  S    
C123  H75   S    
C84   C88   S    
C128  H94   S    
C38   C90   S    
C85   H33   S    
C18   C38   A    
C130  H89   S    
C19   C35   S    
C76   C96   A    
C44   C55   A    
Cr7   O19   S    
C66   C70   A    
C20   C40   A    
Cr10  O18   S    
C98   O46   A    
C79   H23   S    
C62   C99   S    
C72   C96   A    
C61   C65   A    
C107  O15   A    
Cr9   O37   S    
C2    O22   A    
Cr10  O34   S    
C101  O5    A    
C60   H16   S    
C75   C79   A    
C59   H15   S    
C67   C83   S    
C111  C112  S    
C30   C34   S    
Cr11  O11   S    
Cr3   O47   S    
C7    C8    S    
C133  H96   S    
C53   C54   A    
Cr1   O45   S    
N1    H65   S    
C125  H87   S    
C64   C68   A    
C1    O25   A    
C103  O11   A    
C42   C53   A    
N3    H73   S    
C82   H26   S    
C91   O39   A    
C49   C57   S    
C41   C102  S    
C122  H70   S    
C89   O37   A    
C43   C104  S    
C52   C60   S    
C77   H21   S    
C75   H19   S    
C136  H103  S    
C110  C114  S    
C100  O48   A    
C44   C52   A    
C1    C12   S    
Cr5   O17   S    
C2    C11   S    
C108  O16   A    
C44   C103  S    
C109  H37   S    
Cr3   O43   S    
C62   C66   A    
C126  H84   S    
C34   H58   S    
C127  H83   S    
C10   C14   A    
C121  H68   S    
C88   H32   S    
C116  C120  S    
C7    C116  S    
C36   H64   S    
C131  C132  S    
Cr10  O10   S    
Cr8   O32   S    
C114  H2    S    
C16   C20   A    
Cr2   O2    S    
C102  O10   A    
C101  O9    A    
Cr8   O20   S    
C113  C117  S    
C42   C50   A    
C115  C119  S    
Cr11  O15   S    
C83   N3    S    
C61   C100  S    
C99   O51   A    
C42   C101  S    
C112  C116  S    
C69   C85   S    
Cr11  O35   S    
C48   O32   A    
C21   C25   A    
C35   H59   S    
C36   H60   S    
Cr1   O21   S    
C62   C78   A    
C76   C80   A    
N4    H77   S    
C15   C31   S    
Cr5   O25   S    
C16   C32   S    
C89   O1    A    
C13   C17   A    
C122  H72   S    
C132  H98   S    
C57   C58   S    
Cr2   O42   S    
C115  H3    S    
C29   H53   S    
C111  H39   S    
Cr9   O17   S    
C58   H12   S    
C47   O31   A    
C59   H9    S    
C49   C50   A    
C128  C129  S    
C4    C9    S    
C92   O4    A    
C131  H100  S    
C81   C85   S    
C22   C38   A    
C83   C87   S    
C55   C56   A    
Cr3   O19   S    
C64   C80   A    
C74   C94   A    
Cr5   O49   S    
C6    C128  S    
C86   H34   S    
C84   H28   S    
C9    C25   A    
C123  H74   S    
C15   C19   A    
Cr5   O5    S    
C12   C28   A    
C13   C29   S    
C70   C94   A    
C27   H47   S    
C98   O50   A    
C132  C133  S    
Cr4   O44   S    
C25   H45   S    
C23   H43   S    
C76   H20   S    
C45   C117  S    
C2    O26   A    
C105  O13   A    
C46   C118  S    
Cr8   O8    S    
C39   C91   S    
C73   C77   A    
Cr3   O23   S    
Cr6   O18   S    
C60   H10   S    
C4    O24   A    
C3    O27   A    
Cr2   O22   S    
C35   H63   S    
C8    C134  S    
C33   H61   S    
C124  H78   S    
Cr7   O31   S    
C46   O34   A    
C17   C33   S    
Cr5   O29   S    
C110  C117  S    
C135  H105  S    
C81   H25   S    
C68   C84   S    
C24   C28   A    
C133  H95   S    
C78   H22   S    
C128  H93   S    
C82   C86   S    
C107  O43   A    
Cr10  O38   S    
Cr2   O18   S    
C50   C58   S    
C130  H88   S    
C100  O52   A    
Cr9   O9    S    
C65   C81   S    
Cr6   O26   S    
C95   C107  S    
C71   C87   S    
C110  H38   S    
C129  H91   S    
C31   C35   S    
Cr7   O51   S    
C106  O42   A    
C32   C36   S    
Cr3   O3    S    
C73   H17   S    
C112  C119  S    
C116  H4    S    
Cr4   O4    S    
C37   C89   S    
C125  H86   S    
C102  O6    A    
C109  C110  S    
N4    C124  S    
C43   C51   A    
C112  H40   S    
C65   C69   A    
C67   C71   A    
C104  O12   A    
C99   O47   A    
C97   O45   A    
C20   C36   S    
C21   C37   A    
C3    O23   A    
C136  H102  S    
C22   C26   A    
C124  H80   S    
C1    O21   A    
Cr7   O7    S    
C134  H108  S    
C123  H76   S    
C87   H31   S    
C5    C114  S    
C14   C18   A    
Cr12  O16   S    
Cr2   O46   S    
C63   C79   A    
C126  H85   S    
C30   H54   S    
C32   H50   S    
C127  H82   S    
C130  H90   S    
C23   C39   A    
C121  H67   S    
C47   O35   A    
Cr9   O33   S    
C90   O38   A    
C85   H29   S    
C8    C115  S    
C93   C105  S    
C108  O44   A    
C86   H30   S    
C23   C27   A    
C74   C78   A    
C105  O41   A    
Cr7   O27   S    
C91   O3    A    
C10   C26   A    
C47   C119  S    
C45   O33   A    
C14   C30   S    
Cr12  O36   S    
C22   H42   S    
C80   H24   S    
C133  H97   S    
C26   H46   S    
C63   C67   A    
N1    C121  S    
C32   H56   S    
Cr8   O52   S    
C61   C77   A    
N3    C123  S    
C4    O28   A    
C5    C117  S    
C111  C120  S    
C122  H71   S    
C6    C113  S    
C132  H99   S    
C28   H48   S    
C136  H104  S    
C125  C126  S    
C46   O30   A    
C17   C37   A    
C40   C92   S    
C18   C34   S    
Cr1   O1    S    
C114  C118  S    
C19   C39   A    
C135  C136  S    
C127  H81   S    
Cr12  O12   S    
Cr10  O14   S    
C51   C59   S    
N2    H69   S    
C70   C86   S    
C8    C120  S    
Cr4   O20   S    
C94   C106  S    
C29   H51   S    
C30   H52   S    
C81   N1    S    
C58   H14   S    
C90   O2    A    
C109  C113  S    
C3    C10   S    
C54   H6    S    
Cr1   O41   S    
C24   C40   A    
C103  O7    A    
C41   C54   A    
C48   O36   A    
C43   C56   A    
C83   H27   S    
C74   H18   S    
C111  C115  S    
C31   H55   S    
C131  H101  S    
C6    C118  S    
