data_mof_unit_61741.cif
_audit_creation_date              2013-03-05T16:08:07-0500
_audit_creation_method            fapswitch 2.2
_symmetry_space_group_name_H-M    P1
_symmetry_Int_Tables_number       1
_space_group_crystal_system       triclinic
_cell_length_a                    18.215428
_cell_length_b                    18.215434
_cell_length_c                    42.925799
_cell_angle_alpha                 90.000043
_cell_angle_beta                  89.999983
_cell_angle_gamma                 89.999867
_cell_volume                      14242.8628054

loop_
_atom_site_label
_atom_site_type_symbol
_atom_site_description
_atom_site_fract_x
_atom_site_fract_y
_atom_site_fract_z
_atom_type_partial_charge
Zn1   Zn    Zn3+2 0.087550 0.500010 0.775970 0.971364
Zn2   Zn    Zn3+2 0.500010 0.912450 0.224030 0.970042
Zn3   Zn    Zn3+2 0.912450 0.499990 0.775970 0.970065
Zn4   Zn    Zn3+2 0.499990 0.087550 0.224030 0.971357
Zn5   Zn    Zn3+2 0.912450 0.500010 0.224030 0.971357
Zn6   Zn    Zn3+2 0.499990 0.912450 0.775970 0.971363
Zn7   Zn    Zn3+2 0.087550 0.499990 0.224030 0.970042
Zn8   Zn    Zn3+2 0.500010 0.087550 0.775970 0.970065
Zn9   Zn    Zn3+2 0.587550 0.000010 0.275970 0.968723
Zn10  Zn    Zn3+2 0.000010 0.412450 0.724030 0.970006
Zn11  Zn    Zn3+2 0.412450 0.999990 0.275970 0.970031
Zn12  Zn    Zn3+2 0.999990 0.587550 0.724030 0.968706
Zn13  Zn    Zn3+2 0.412450 0.000010 0.724030 0.968706
Zn14  Zn    Zn3+2 0.999990 0.412450 0.275970 0.968723
Zn15  Zn    Zn3+2 0.587550 0.999990 0.724030 0.970007
Zn16  Zn    Zn3+2 0.000010 0.587550 0.275970 0.970030
O1    O     O_3   0.000000 0.500000 0.750000 -0.474048
O2    O     O_3   0.500000 0.000000 0.250000 -0.474048
O3    O     O_3   1.000000 0.500000 0.250000 -0.474048
O4    O     O_3   0.500000 1.000000 0.750000 -0.474048
O5    O     O_R   0.000020 0.438710 0.680680 -0.641085
O6    O     O_R   0.438710 0.999980 0.319320 -0.641086
O7    O     O_R   0.999980 0.561290 0.680680 -0.641202
O8    O     O_R   0.561290 0.000020 0.319320 -0.641175
O9    O     O_R   0.999980 0.438710 0.319320 -0.641176
O10   O     O_R   0.561290 0.999980 0.680680 -0.641084
O11   O     O_R   0.000020 0.561290 0.319320 -0.641087
O12   O     O_R   0.438710 0.000020 0.680680 -0.641202
O13   O     O_R   0.500020 0.938710 0.180680 -0.641151
O14   O     O_R   0.938710 0.499980 0.819320 -0.641151
O15   O     O_R   0.499980 0.061290 0.180680 -0.641056
O16   O     O_R   0.061290 0.500020 0.819320 -0.641028
O17   O     O_R   0.499980 0.938710 0.819320 -0.641028
O18   O     O_R   0.061290 0.499980 0.180680 -0.641150
O19   O     O_R   0.500020 0.061290 0.819320 -0.641151
O20   O     O_R   0.938710 0.500020 0.180680 -0.641056
O21   O     O_R   0.086240 0.647480 0.731820 -0.647536
O22   O     O_R   0.647480 0.913760 0.268180 -0.647086
O23   O     O_R   0.913760 0.352520 0.731820 -0.644158
O24   O     O_R   0.352520 0.086240 0.268180 -0.646971
O25   O     O_R   0.913760 0.647480 0.268180 -0.646972
O26   O     O_R   0.352520 0.913760 0.731820 -0.647537
O27   O     O_R   0.086240 0.352520 0.268180 -0.647088
O28   O     O_R   0.647480 0.086240 0.731820 -0.644159
O29   O     O_R   0.586240 0.147480 0.231820 -0.643888
O30   O     O_R   0.147480 0.413760 0.768180 -0.643544
O31   O     O_R   0.413760 0.852520 0.231820 -0.647250
O32   O     O_R   0.852520 0.586240 0.768180 -0.643644
O33   O     O_R   0.413760 0.147480 0.768180 -0.643644
O34   O     O_R   0.852520 0.413760 0.231820 -0.643888
O35   O     O_R   0.586240 0.852520 0.768180 -0.643544
O36   O     O_R   0.147480 0.586240 0.231820 -0.647251
O37   O     O_R   0.852520 0.413810 0.768170 -0.647205
O38   O     O_R   0.413810 0.147480 0.231830 -0.643472
O39   O     O_R   0.147480 0.586190 0.768170 -0.643821
O40   O     O_R   0.586190 0.852520 0.231830 -0.643601
O41   O     O_R   0.147480 0.413810 0.231830 -0.643600
O42   O     O_R   0.586190 0.147480 0.768170 -0.647205
O43   O     O_R   0.852520 0.586190 0.231830 -0.643471
O44   O     O_R   0.413810 0.852520 0.768170 -0.643821
O45   O     O_R   0.352520 0.913810 0.268170 -0.644119
O46   O     O_R   0.913810 0.647480 0.731830 -0.647019
O47   O     O_R   0.647480 0.086190 0.268170 -0.647461
O48   O     O_R   0.086190 0.352520 0.731830 -0.646926
O49   O     O_R   0.647480 0.913810 0.731830 -0.646925
O50   O     O_R   0.086190 0.647480 0.268170 -0.644118
O51   O     O_R   0.352520 0.086190 0.731830 -0.647017
O52   O     O_R   0.913810 0.352520 0.268170 -0.647460
C1    C     C_R   0.999998 0.500000 0.665770 0.836571
C2    C     C_R   0.500000 0.999998 0.334230 0.836601
C3    C     C_R   0.000002 0.500000 0.334230 0.836601
C4    C     C_R   0.500000 0.000002 0.665770 0.836571
C5    C     C_R   0.500002 1.000000 0.165770 0.836212
C6    C     C_R   1.000000 0.500002 0.834230 0.836236
C7    C     C_R   0.499998 0.000000 0.834230 0.836237
C8    C     C_R   0.000000 0.499998 0.165770 0.836212
C9    C     C_R   0.141375 0.641353 0.749941 0.749184
C10   C     C_R   0.641391 0.858664 0.250036 0.749711
C11   C     C_R   0.858561 0.358712 0.750023 0.749195
C12   C     C_R   0.358609 0.141336 0.250036 0.749589
C13   C     C_R   0.858664 0.641391 0.250036 0.749590
C14   C     C_R   0.358647 0.858625 0.749941 0.749183
C15   C     C_R   0.141336 0.358609 0.250036 0.749711
C16   C     C_R   0.641288 0.141439 0.750023 0.749195
C17   C     C_R   0.641435 0.141292 0.250025 0.749181
C18   C     C_R   0.141290 0.358563 0.749976 0.749563
C19   C     C_R   0.358666 0.858606 0.249965 0.749198
C20   C     C_R   0.858709 0.641437 0.749976 0.749734
C21   C     C_R   0.358563 0.141291 0.749976 0.749734
C22   C     C_R   0.858708 0.358565 0.250025 0.749182
C23   C     C_R   0.641437 0.858710 0.749976 0.749563
C24   C     C_R   0.141394 0.641333 0.249965 0.749198
C25   C     C_3   0.179749 0.239310 0.726033 -0.372241
C26   C     C_3   0.225787 0.834202 0.240826 -0.393463
C27   C     C_3   0.820250 0.760691 0.726033 -0.372492
C28   C     C_3   0.760695 0.179745 0.273964 -0.372983
C29   C     C_3   0.820255 0.239305 0.273964 -0.372981
C30   C     C_3   0.760691 0.820252 0.726033 -0.372240
C31   C     C_3   0.165798 0.774213 0.240826 -0.393464
C32   C     C_3   0.239310 0.179750 0.726033 -0.372492
C33   C     C_3   0.665790 0.725778 0.259170 -0.393184
C34   C     C_3   0.739305 0.320255 0.773965 -0.372700
C35   C     C_3   0.334213 0.274222 0.259167 -0.392968
C36   C     C_3   0.274606 0.665403 0.741436 -0.392824
C37   C     C_3   0.334597 0.725393 0.741436 -0.392823
C38   C     C_3   0.274224 0.334212 0.259166 -0.393182
C39   C     C_3   0.679745 0.260695 0.773965 -0.372700
C40   C     C_3   0.725780 0.665788 0.259170 -0.392968
H1    H     H_    0.174941 0.262950 0.702198 0.192062
H2    H     H_    0.210367 0.878214 0.257580 0.185441
H3    H     H_    0.825055 0.737050 0.702197 0.192041
H4    H     H_    0.737061 0.174931 0.297801 0.190913
H5    H     H_    0.825069 0.262939 0.297801 0.190913
H6    H     H_    0.737050 0.825059 0.702197 0.192061
H7    H     H_    0.121786 0.789632 0.257580 0.185441
H8    H     H_    0.262951 0.174945 0.702197 0.192042
H9    H     H_    0.621785 0.710364 0.242411 0.185814
H10   H     H_    0.762946 0.325061 0.797800 0.190952
H11   H     H_    0.378218 0.289632 0.242408 0.186047
H12   H     H_    0.289472 0.621971 0.758559 0.186637
H13   H     H_    0.378029 0.710528 0.758559 0.186637
H14   H     H_    0.289634 0.378214 0.242406 0.185818
H15   H     H_    0.674939 0.237054 0.797800 0.190952
H16   H     H_    0.710367 0.621781 0.242413 0.186043
H17   H     H_    0.125925 0.213936 0.731980 0.179563
H18   H     H_    0.229225 0.859731 0.217314 0.161157
H19   H     H_    0.874075 0.786063 0.731978 0.179334
H20   H     H_    0.786067 0.125922 0.268015 0.179303
H21   H     H_    0.874078 0.213933 0.268015 0.179303
H22   H     H_    0.786065 0.874075 0.731980 0.179562
H23   H     H_    0.140269 0.770775 0.217313 0.161157
H24   H     H_    0.213937 0.125926 0.731978 0.179335
H25   H     H_    0.640251 0.729208 0.282680 0.161508
H26   H     H_    0.713932 0.374079 0.768019 0.179822
H27   H     H_    0.359755 0.270796 0.282677 0.161547
H28   H     H_    0.271969 0.639060 0.718060 0.160903
H29   H     H_    0.360940 0.728031 0.718060 0.160902
H30   H     H_    0.270798 0.359755 0.282676 0.161505
H31   H     H_    0.625921 0.286067 0.768019 0.179822
H32   H     H_    0.729210 0.640252 0.282681 0.161549
H33   H     H_    0.270689 0.359644 0.717298 0.161542
H34   H     H_    0.280680 0.807899 0.300256 0.194451
H35   H     H_    0.729309 0.640355 0.717298 0.161511
H36   H     H_    0.640361 0.270683 0.282711 0.161314
H37   H     H_    0.729317 0.359639 0.282711 0.161314
H38   H     H_    0.640355 0.729311 0.717297 0.161540
H39   H     H_    0.192101 0.719320 0.300256 0.194451
H40   H     H_    0.359645 0.270691 0.717298 0.161512
H41   H     H_    0.692114 0.780691 0.199745 0.195632
H42   H     H_    0.859640 0.229314 0.782699 0.161161
H43   H     H_    0.307878 0.219299 0.199745 0.195680
H44   H     H_    0.217681 0.693714 0.800379 0.194119
H45   H     H_    0.306286 0.782319 0.800379 0.194119
H46   H     H_    0.219299 0.307877 0.199744 0.195630
H47   H     H_    0.770686 0.140360 0.782699 0.161161
H48   H     H_    0.780691 0.692113 0.199745 0.195682
C41   C     C_3   0.274146 0.334135 0.740813 -0.392968
C42   C     C_3   0.294638 0.765351 0.282614 -0.385889
C43   C     C_3   0.725852 0.665866 0.740814 -0.393166
C44   C     C_3   0.665864 0.274147 0.259194 -0.393060
C45   C     C_3   0.725852 0.334136 0.259194 -0.393061
C46   C     C_3   0.665865 0.725854 0.740813 -0.392966
C47   C     C_3   0.234649 0.705361 0.282614 -0.385888
C48   C     C_3   0.334133 0.274147 0.740814 -0.393166
C49   C     C_3   0.734656 0.794644 0.217390 -0.385341
C50   C     C_3   0.834129 0.225858 0.759184 -0.393443
C51   C     C_3   0.265339 0.205350 0.217391 -0.385302
C52   C     C_3   0.204339 0.735672 0.782391 -0.386260
C53   C     C_3   0.264328 0.795661 0.782391 -0.386260
C54   C     C_3   0.205350 0.265338 0.217391 -0.385342
C55   C     C_3   0.774142 0.165871 0.759184 -0.393442
C56   C     C_3   0.794645 0.734655 0.217390 -0.385298
C57   C     C_3   0.205326 0.265315 0.782622 -0.385300
C58   C     C_3   0.320169 0.739386 0.226019 -0.372685
C59   C     C_3   0.794673 0.734686 0.782622 -0.385332
C60   C     C_3   0.734672 0.205340 0.217378 -0.385913
C61   C     C_3   0.794660 0.265327 0.217378 -0.385917
C62   C     C_3   0.734685 0.794674 0.782622 -0.385300
C63   C     C_3   0.260614 0.679831 0.226019 -0.372684
C64   C     C_3   0.265314 0.205327 0.782622 -0.385333
C65   C     C_3   0.760600 0.820155 0.273989 -0.372468
C66   C     C_3   0.765310 0.294678 0.717376 -0.385893
C67   C     C_3   0.239405 0.179849 0.273992 -0.372223
C68   C     C_3   0.180731 0.759714 0.725469 -0.372774
C69   C     C_3   0.240285 0.819269 0.725469 -0.372775
C70   C     C_3   0.179850 0.239405 0.273992 -0.372469
C71   C     C_3   0.705322 0.234690 0.717376 -0.385894
C72   C     C_3   0.820156 0.760600 0.273989 -0.372225
C73   C     C_3   0.198834 0.300641 0.749866 0.178593
C74   C     C_3   0.301106 0.800700 0.249862 0.179808
C75   C     C_3   0.801165 0.699359 0.749866 0.178746
C76   C     C_3   0.699356 0.198837 0.250136 0.179790
C77   C     C_3   0.801163 0.300644 0.250136 0.179790
C78   C     C_3   0.699359 0.801166 0.749866 0.178596
C79   C     C_3   0.199300 0.698894 0.249862 0.179808
C80   C     C_3   0.300641 0.198834 0.749866 0.178742
C81   C     C_3   0.699295 0.801101 0.250140 0.178744
C82   C     C_3   0.800637 0.301170 0.750132 0.179815
C83   C     C_3   0.300706 0.198899 0.250141 0.178563
C84   C     C_3   0.198974 0.699220 0.749814 0.179877
C85   C     C_3   0.300780 0.801026 0.749814 0.179877
C86   C     C_3   0.198899 0.300705 0.250141 0.178742
C87   C     C_3   0.698830 0.199363 0.750132 0.179815
C88   C     C_3   0.801102 0.699295 0.250140 0.178564
H49   H     H_    0.219300 0.307875 0.800256 0.195714
H50   H     H_    0.373997 0.714005 0.231953 0.179880
H51   H     H_    0.780699 0.692125 0.800256 0.195664
H52   H     H_    0.692106 0.219320 0.199746 0.194639
H53   H     H_    0.780680 0.307893 0.199746 0.194640
H54   H     H_    0.692124 0.780700 0.800256 0.195714
H55   H     H_    0.285995 0.626003 0.231953 0.179880
H56   H     H_    0.307874 0.219300 0.800256 0.195664
H57   H     H_    0.785983 0.873985 0.268061 0.179389
H58   H     H_    0.807869 0.280706 0.699742 0.194481
H59   H     H_    0.214019 0.126019 0.268065 0.179632
H60   H     H_    0.126703 0.785328 0.730907 0.180242
H61   H     H_    0.214672 0.873297 0.730907 0.180242
H62   H     H_    0.126019 0.214021 0.268067 0.179395
H63   H     H_    0.719294 0.192130 0.699742 0.194481
H64   H     H_    0.873985 0.785985 0.268060 0.179626
H65   H     H_    0.151795 0.240752 0.789526 0.158617
H66   H     H_    0.324957 0.763044 0.202185 0.190951
H67   H     H_    0.848204 0.759250 0.789526 0.158555
H68   H     H_    0.759235 0.151811 0.210469 0.158456
H69   H     H_    0.848189 0.240765 0.210469 0.158457
H70   H     H_    0.759248 0.848205 0.789526 0.158616
H71   H     H_    0.236956 0.675043 0.202185 0.190950
H72   H     H_    0.240750 0.151796 0.789526 0.158556
H73   H     H_    0.736933 0.824932 0.297822 0.192037
H74   H     H_    0.740746 0.348210 0.710473 0.158726
H75   H     H_    0.263076 0.175073 0.297823 0.192052
H76   H     H_    0.176758 0.735209 0.701756 0.190163
H77   H     H_    0.264791 0.823242 0.701756 0.190163
H78   H     H_    0.175077 0.263077 0.297824 0.192033
H79   H     H_    0.651790 0.259254 0.710473 0.158726
H80   H     H_    0.824937 0.736934 0.297821 0.192056
H81   H     H_    0.289581 0.378162 0.757558 0.186035
H82   H     H_    0.348175 0.740781 0.289508 0.158730
H83   H     H_    0.710416 0.621842 0.757559 0.185812
H84   H     H_    0.621832 0.289589 0.242453 0.185920
H85   H     H_    0.710411 0.378167 0.242453 0.185920
H86   H     H_    0.621837 0.710418 0.757558 0.186034
H87   H     H_    0.259219 0.651825 0.289508 0.158730
H88   H     H_    0.378157 0.289583 0.757560 0.185814
H89   H     H_    0.759228 0.848182 0.210501 0.158540
H90   H     H_    0.878154 0.210422 0.742438 0.185453
H91   H     H_    0.240766 0.151810 0.210505 0.158612
H92   H     H_    0.150568 0.760490 0.788803 0.158361
H93   H     H_    0.239510 0.849433 0.788803 0.158362
H94   H     H_    0.151811 0.240765 0.210505 0.158539
H95   H     H_    0.789578 0.121846 0.742438 0.185453
H96   H     H_    0.848183 0.759226 0.210501 0.158613
C89   C     C_R   0.066370 0.500410 0.885078 -0.231934
C90   C     C_R   0.499629 0.933630 0.114922 -0.232121
C91   C     C_R   0.933629 0.499606 0.885077 -0.232118
C92   C     C_R   0.500389 0.066370 0.114922 -0.231945
C93   C     C_R   0.933630 0.499600 0.114922 -0.231945
C94   C     C_R   0.499600 0.933631 0.885078 -0.231934
C95   C     C_R   0.066370 0.500381 0.114922 -0.232121
C96   C     C_R   0.500384 0.066371 0.885077 -0.232118
C97   C     C_R   0.566367 0.000537 0.385077 -0.232318
C98   C     C_R   0.999493 0.433632 0.614922 -0.232146
C99   C     C_R   0.433633 0.999446 0.385077 -0.232147
C100  C     C_R   0.000491 0.566369 0.614923 -0.232344
C101  C     C_R   0.433632 0.999481 0.614923 -0.232345
C102  C     C_R   0.999499 0.433632 0.385077 -0.232317
C103  C     C_R   0.566367 0.000539 0.614922 -0.232148
C104  C     C_R   0.000520 0.566368 0.385077 -0.232147
H97   H     H_    0.117952 0.501741 0.872535 0.206749
H98   H     H_    0.498315 0.882047 0.127465 0.206578
H99   H     H_    0.882047 0.498275 0.872535 0.206578
H100  H     H_    0.501703 0.117952 0.127465 0.206740
H101  H     H_    0.882048 0.498278 0.127465 0.206740
H102  H     H_    0.498277 0.882048 0.872535 0.206749
H103  H     H_    0.117953 0.501703 0.127465 0.206578
H104  H     H_    0.501707 0.117952 0.872534 0.206578
H105  H     H_    0.617944 0.001983 0.372534 0.206382
H106  H     H_    0.998084 0.382053 0.627465 0.206542
H107  H     H_    0.382056 0.997999 0.372534 0.206544
H108  H     H_    0.001900 0.617947 0.627466 0.206380
H109  H     H_    0.382055 0.998048 0.627466 0.206379
H110  H     H_    0.998081 0.382053 0.372534 0.206384
H111  H     H_    0.617944 0.001972 0.627465 0.206543
H112  H     H_    0.001937 0.617946 0.372534 0.206543
C105  C     C_R   0.067299 0.501524 0.917694 0.284396
C106  C     C_R   0.498517 0.932699 0.082306 0.284454
C107  C     C_R   0.932699 0.498494 0.917694 0.284451
C108  C     C_R   0.501503 0.067300 0.082306 0.284402
C109  C     C_R   0.932700 0.498486 0.082306 0.284399
C110  C     C_R   0.498486 0.932701 0.917694 0.284400
C111  C     C_R   0.067301 0.501493 0.082306 0.284450
C112  C     C_R   0.501495 0.067301 0.917694 0.284453
C113  C     C_R   0.567295 0.001654 0.417693 0.284545
C114  C     C_R   0.998377 0.432704 0.582306 0.284491
C115  C     C_R   0.432705 0.998328 0.417693 0.284493
C116  C     C_R   0.001607 0.567297 0.582307 0.284542
C117  C     C_R   0.432704 0.998366 0.582307 0.284551
C118  C     C_R   0.998384 0.432703 0.417693 0.284540
C119  C     C_R   0.567294 0.001659 0.582306 0.284496
C120  C     C_R   0.001637 0.567296 0.417693 0.284491
C121  C     C_R   0.999999 0.500008 0.934248 -0.179502
C122  C     C_R   0.500009 1.000000 0.065752 -0.179503
C123  C     C_R   0.000000 0.499990 0.065752 -0.179501
C124  C     C_R   0.499991 0.000001 0.934248 -0.179502
C125  C     C_R   0.500000 0.999993 0.434248 -0.179532
C126  C     C_R   0.999993 0.500001 0.565752 -0.179530
C127  C     C_R   0.499999 0.000012 0.565752 -0.179532
C128  C     C_R   0.000010 0.500000 0.434248 -0.179531
C129  C     C_R   1.000000 0.500006 0.868603 -0.126365
C130  C     C_R   0.500006 1.000000 0.131397 -0.126359
C131  C     C_R   0.000000 0.499993 0.131397 -0.126357
C132  C     C_R   0.499994 0.000000 0.868603 -0.126367
C133  C     C_R   0.500000 0.999994 0.368603 -0.126332
C134  C     C_R   0.999994 0.500000 0.631397 -0.126319
C135  C     C_R   0.500000 0.000007 0.631397 -0.126324
C136  C     C_R   0.000007 0.500000 0.368603 -0.126327
N1    N     N_R   0.961273 0.551243 0.984502 -0.092181
N2    N     N_R   0.448756 0.038721 0.015500 -0.092218
N3    N     N_R   0.038726 0.448759 0.984499 -0.092222
N4    N     N_R   0.551249 0.961279 0.015498 -0.092182
N5    N     N_R   0.038726 0.448754 0.015498 -0.092182
N6    N     N_R   0.448752 0.038721 0.984502 -0.092181
N7    N     N_R   0.961273 0.551239 0.015500 -0.092218
N8    N     N_R   0.551244 0.961279 0.984499 -0.092222
N9    N     N_R   0.461160 0.051154 0.484499 -0.092280
N10   N     N_R   0.948825 0.538814 0.515498 -0.092242
N11   N     N_R   0.538839 0.948846 0.484502 -0.092244
N12   N     N_R   0.051173 0.461186 0.515500 -0.092283
N13   N     N_R   0.538839 0.948851 0.515500 -0.092282
N14   N     N_R   0.948830 0.538814 0.484499 -0.092282
N15   N     N_R   0.461160 0.051159 0.515498 -0.092235
N16   N     N_R   0.051178 0.461186 0.484502 -0.092246
C137  C     C_R   0.499999 0.000007 0.531507 0.416809
C138  C     C_R   0.000006 0.500000 0.468493 0.416813
C139  C     C_R   0.500000 0.999998 0.468493 0.416822
C140  C     C_R   0.999997 0.500000 0.531507 0.416805
C141  C     C_R   1.000000 0.499994 0.031507 0.416767
C142  C     C_R   0.499996 0.000001 0.968493 0.416770
C143  C     C_R   0.999999 0.500004 0.968493 0.416775
C144  C     C_R   0.500005 0.000000 0.031507 0.416763
N17   N     N_R   0.136850 0.506606 0.933481 0.226444
O53   O     O_R   0.194818 0.475753 0.921535 -0.329324
O54   O     O_R   0.144858 0.550207 0.957258 -0.305583
N18   N     N_R   0.493457 0.863147 0.066520 0.226386
O55   O     O_R   0.524335 0.805191 0.078465 -0.329529
O56   O     O_R   0.449853 0.855122 0.042745 -0.305669
N19   N     N_R   0.863148 0.493413 0.933480 0.226387
O57   O     O_R   0.805181 0.524268 0.921534 -0.329522
O58   O     O_R   0.855138 0.449811 0.957256 -0.305679
N20   N     N_R   0.506565 0.136852 0.066520 0.226440
O59   O     O_R   0.475690 0.194809 0.078465 -0.329338
O60   O     O_R   0.550168 0.144874 0.042744 -0.305580
N21   N     N_R   0.863148 0.493413 0.066520 0.226440
O61   O     O_R   0.805185 0.524277 0.078465 -0.329334
O62   O     O_R   0.855133 0.449810 0.042744 -0.305583
N22   N     N_R   0.493415 0.863150 0.933481 0.226442
O63   O     O_R   0.524282 0.805188 0.921536 -0.329326
O64   O     O_R   0.449811 0.855135 0.957256 -0.305582
N23   N     N_R   0.136853 0.506564 0.066520 0.226386
O65   O     O_R   0.194814 0.475697 0.078465 -0.329525
O66   O     O_R   0.144870 0.550168 0.042745 -0.305671
N24   N     N_R   0.506565 0.136853 0.933480 0.226388
O67   O     O_R   0.475700 0.194815 0.921534 -0.329526
O68   O     O_R   0.550167 0.144870 0.957256 -0.305676
N25   N     N_R   0.636832 0.006891 0.433480 0.226355
O69   O     O_R   0.694865 0.976165 0.421534 -0.330055
O70   O     O_R   0.644744 0.050511 0.457256 -0.305770
N26   N     N_R   0.993186 0.363162 0.566520 0.226407
O71   O     O_R   0.023951 0.305149 0.578465 -0.329879
O72   O     O_R   0.949570 0.355221 0.542744 -0.305660
N27   N     N_R   0.363168 0.993089 0.433480 0.226409
O73   O     O_R   0.305131 0.023803 0.421532 -0.329867
O74   O     O_R   0.355260 0.949474 0.457258 -0.305682
N28   N     N_R   0.006796 0.636840 0.566520 0.226351
O75   O     O_R   0.976030 0.694852 0.578466 -0.330068
O76   O     O_R   0.050414 0.644783 0.542745 -0.305760
N29   N     N_R   0.363166 0.993147 0.566520 0.226349
O77   O     O_R   0.305141 0.023889 0.578466 -0.330061
O78   O     O_R   0.355242 0.949525 0.542746 -0.305770
N30   N     N_R   0.993186 0.363162 0.433480 0.226355
O79   O     O_R   0.023942 0.305144 0.421533 -0.330064
O80   O     O_R   0.949571 0.355226 0.457256 -0.305755
N31   N     N_R   0.636832 0.006885 0.566520 0.226407
O81   O     O_R   0.694860 0.976149 0.578465 -0.329873
O82   O     O_R   0.644751 0.050506 0.542745 -0.305672
N32   N     N_R   0.006837 0.636837 0.433480 0.226409
O83   O     O_R   0.976084 0.694856 0.421534 -0.329875
O84   O     O_R   0.050451 0.644771 0.457257 -0.305668

loop_
_geom_bond_atom_site_label_1
_geom_bond_atom_site_label_2
_geom_bond_distance
_ccdc_geom_bond_type
C69   H77   1.113834 S    
C102  C118  1.400321 A    
C108  N20   1.439727 S    
C58   H66   1.113536 S    
C59   H51   1.113028 S    
N12   N16   1.330627 A    
C101  H109  1.083162 S    
C63   C79   1.554192 S    
Zn12  O7    1.921329 S    
C61   C77   1.550854 S    
Zn2   O13   1.921330 S    
Zn15  O28   1.942118 S    
C111  N23   1.439734 S    
Zn1   O30   1.942114 S    
C30   H6    1.113545 S    
Zn5   O20   1.921329 S    
C31   C79   1.550857 S    
Zn3   O32   1.942114 S    
C70   C86   1.554191 S    
C33   C81   1.550869 S    
C117  N29   1.439686 S    
C100  C134  1.400610 A    
O34   C22   1.278380 A    
C110  N22   1.439726 S    
O41   C15   1.278410 A    
H36   C44   1.113046 S    
C45   H85   1.113045 S    
C64   C80   1.550835 S    
Zn4   O2    1.945765 S    
C111  C123  1.417244 A    
O47   C17   1.275218 A    
C34   H10   1.113533 S    
H34   C42   1.113016 S    
C128  C138  1.469977 S    
N11   C139  1.356809 A    
C36   C37   1.545375 S    
N21   O62   1.301446 A    
C32   C80   1.554196 S    
Zn10  O5    1.921330 S    
C67   H59   1.113555 S    
Zn15  O4    1.945764 S    
C92   C108  1.400317 A    
N10   C140  1.356824 A    
N1    C143  1.356846 A    
O22   C10   1.275194 A    
O46   C20   1.275222 A    
Zn8   O19   1.921330 S    
C50   H90   1.113027 S    
N32   O84   1.301436 A    
C26   C74   1.550855 S    
C8    C131  1.475463 S    
C62   C78   1.550847 S    
C5    C130  1.475463 S    
C25   C32   1.534297 S    
C42   H82   1.113035 S    
H33   C41   1.113028 S    
C52   C53   1.545345 S    
Zn7   O3    1.945764 S    
C90   C130  1.400628 A    
N31   O81   1.301399 A    
O11   C3    1.286876 A    
O52   C22   1.275218 A    
O49   C23   1.275215 A    
Zn13  O4    1.945766 S    
Zn14  O3    1.945764 S    
C51   C83   1.550827 S    
C32   H24   1.113548 S    
C4    C135  1.475458 S    
C114  C126  1.417224 A    
C33   H25   1.113025 S    
Zn2   O31   1.942118 S    
Zn6   O17   1.921329 S    
C60   H52   1.113035 S    
N25   O69   1.301400 A    
C119  C127  1.417207 A    
C22   C77   1.487251 S    
H37   C45   1.113046 S    
H43   C51   1.113013 S    
C72   C88   1.554194 S    
N9    N15   1.330627 A    
N20   O59   1.301437 A    
C54   C86   1.550831 S    
C104  C136  1.400608 A    
C92   C130  1.400627 A    
O5    C1    1.286878 A    
N23   O65   1.301446 A    
C58   H50   1.113560 S    
C59   H67   1.113041 S    
C2    C133  1.475463 S    
Zn7   O41   1.941158 S    
N30   O79   1.301417 A    
C99   C133  1.400598 A    
C20   C75   1.487253 S    
C96   C112  1.400321 A    
Zn11  O2    1.945763 S    
C97   C113  1.400317 A    
C94   H102  1.083185 S    
O27   C15   1.275192 A    
C98   C134  1.400610 A    
Zn13  O26   1.942118 S    
C65   C81   1.554196 S    
C34   H26   1.113551 S    
O8    C2    1.286875 A    
C70   H62   1.113552 S    
C28   H20   1.113563 S    
Zn7   O36   1.942118 S    
C42   C74   1.550833 S    
O16   C6    1.286877 A    
O14   C6    1.286876 A    
C99   H107  1.083165 S    
N19   O58   1.301445 A    
N24   O67   1.301441 A    
C29   C77   1.554216 S    
H42   C50   1.113028 S    
O40   C10   1.278408 A    
C68   C69   1.534165 S    
C62   H54   1.113026 S    
C64   H56   1.113019 S    
N28   O75   1.301418 A    
N4    C144  1.356847 A    
O45   C19   1.278409 A    
C66   H74   1.113037 S    
C68   C84   1.554596 S    
C47   H87   1.113036 S    
O9    C3    1.286877 A    
C113  N25   1.439696 S    
Zn8   O42   1.941162 S    
C102  H110  1.083173 S    
Zn16  O11   1.921330 S    
C11   C82   1.487250 S    
C96   C132  1.400629 A    
C36   C84   1.551377 S    
C15   C86   1.487252 S    
C13   C88   1.487243 S    
N28   O76   1.301435 A    
Zn4   O29   1.942118 S    
N17   O54   1.301443 A    
H40   C48   1.113030 S    
H41   C49   1.113017 S    
C67   C70   1.534169 S    
C53   H93   1.113333 S    
N11   N13   1.330627 A    
O50   C24   1.278409 A    
C12   C83   1.487243 S    
H48   C56   1.113017 S    
C105  C121  1.417242 A    
O31   C19   1.275189 A    
C39   C87   1.554197 S    
N6    C142  1.356845 A    
C37   C85   1.551376 S    
C38   H14   1.113023 S    
N22   O64   1.301449 A    
C45   C77   1.550889 S    
C34   C39   1.534300 S    
C41   C48   1.545313 S    
C42   C47   1.545350 S    
Zn2   O40   1.941158 S    
C19   C74   1.487252 S    
C122  C144  1.469977 S    
C115  N27   1.439697 S    
C93   C109  1.400318 A    
C67   H75   1.113539 S    
C43   H83   1.113036 S    
C60   H68   1.113050 S    
Zn9   O47   1.941162 S    
Zn10  O48   1.941158 S    
Zn11  O45   1.941162 S    
C48   C80   1.550861 S    
C25   C73   1.554194 S    
Zn1   O1    1.945762 S    
C28   C76   1.554217 S    
Zn1   O39   1.941162 S    
C104  C120  1.400322 A    
C6    C129  1.475467 S    
H39   C47   1.113015 S    
Zn3   O37   1.941162 S    
Zn9   O22   1.942114 S    
C98   C114  1.400318 A    
C123  C141  1.469977 S    
C63   H71   1.113540 S    
Zn11  O24   1.942114 S    
C9    C84   1.487251 S    
N29   O78   1.301425 A    
C37   H29   1.113308 S    
C96   H104  1.083188 S    
Zn9   O2    1.945762 S    
C97   H105  1.083163 S    
N18   O55   1.301438 A    
N13   C137  1.356811 A    
Zn14  O27   1.942114 S    
C65   H57   1.113554 S    
C106  N18   1.439727 S    
Zn16  O25   1.942114 S    
C117  C127  1.417209 A    
O18   C8    1.286876 A    
C70   H78   1.113536 S    
O10   C4    1.286877 A    
C32   H8    1.113534 S    
C39   H15   1.113533 S    
C57   H65   1.113035 S    
N26   O72   1.301435 A    
N21   O61   1.301444 A    
H38   C46   1.113040 S    
Zn3   O1    1.945763 S    
N4    N8    1.330627 A    
C40   H16   1.113026 S    
C31   H7    1.113023 S    
C91   C129  1.400631 A    
C103  C135  1.400597 A    
C68   H60   1.113856 S    
C120  N32   1.439711 S    
N27   O73   1.301406 A    
Zn15  O49   1.941158 S    
C91   C107  1.400321 A    
C30   C78   1.554206 S    
C27   H3    1.113542 S    
C69   C85   1.554594 S    
Zn12  O21   1.942118 S    
C56   C88   1.550829 S    
N26   O71   1.301417 A    
O35   C23   1.278379 A    
C89   H97   1.083189 S    
C66   C82   1.550835 S    
Zn12  O1    1.945765 S    
N10   N14   1.330627 A    
O32   C20   1.278380 A    
Zn13  O12   1.921329 S    
C95   H103  1.083191 S    
C46   H86   1.113040 S    
C36   H28   1.113304 S    
C105  N17   1.439734 S    
C3    C136  1.475463 S    
C94   C110  1.400317 A    
C33   C40   1.545374 S    
C90   C106  1.400321 A    
O12   C4    1.286875 A    
O48   C18   1.275215 A    
H44   C52   1.113303 S    
C65   C72   1.534171 S    
C59   C62   1.545318 S    
O38   C12   1.278406 A    
C72   H64   1.113558 S    
N2    N6    1.330627 A    
C112  N24   1.439729 S    
C43   C75   1.550871 S    
C44   C76   1.550888 S    
C119  N31   1.439692 S    
N19   O57   1.301442 A    
C71   H63   1.113017 S    
C57   C64   1.545317 S    
O21   C9    1.275191 A    
C64   H72   1.113035 S    
Zn10  O23   1.942118 S    
C101  C135  1.400596 A    
O23   C11   1.278384 A    
C102  C136  1.400610 A    
C49   C81   1.550833 S    
C54   H94   1.113033 S    
C28   H4    1.113553 S    
C47   C79   1.550833 S    
O25   C13   1.275187 A    
C30   H22   1.113559 S    
C43   C46   1.545313 S    
N20   O60   1.301446 A    
C90   H98   1.083187 S    
C58   C74   1.554194 S    
C16   C87   1.487250 S    
C41   H81   1.113030 S    
C115  C125  1.417210 A    
C107  N19   1.439734 S    
C109  C123  1.417243 A    
Zn7   O18   1.921329 S    
Zn5   O34   1.942118 S    
O36   C24   1.275189 A    
Zn16  O50   1.941162 S    
C114  N26   1.439708 S    
C48   H88   1.113027 S    
N30   O80   1.301436 A    
N2    C144  1.356847 A    
C52   C84   1.551090 S    
C108  C122  1.417239 A    
C106  C122  1.417239 A    
O43   C13   1.278407 A    
O28   C16   1.278384 A    
C14   C85   1.487251 S    
H35   C43   1.113037 S    
Zn5   O3    1.945766 S    
C31   H23   1.113029 S    
Zn6   O4    1.945764 S    
C101  C117  1.400321 A    
C33   H9    1.113026 S    
N25   O70   1.301427 A    
N32   O83   1.301416 A    
N12   C140  1.356826 A    
H46   C54   1.113013 S    
C118  N30   1.439712 S    
N24   O68   1.301444 A    
Zn16  O3    1.945761 S    
C51   H91   1.113033 S    
C26   H2    1.113026 S    
C109  N21   1.439735 S    
Zn14  O9    1.921329 S    
C55   C87   1.550848 S    
C25   H17   1.113552 S    
Zn4   O15   1.921329 S    
O15   C5    1.286877 A    
C53   C85   1.551094 S    
C27   H19   1.113558 S    
H45   C53   1.113301 S    
Zn14  O52   1.941162 S    
C57   H49   1.113017 S    
C100  C116  1.400322 A    
Zn8   O33   1.942114 S    
C118  C128  1.417226 A    
C36   H12   1.113311 S    
C116  N28   1.439712 S    
Zn2   O2    1.945765 S    
O7    C1    1.286875 A    
O26   C14   1.275192 A    
C24   C79   1.487252 S    
C50   C82   1.550848 S    
C27   C30   1.534297 S    
C91   H99   1.083190 S    
N17   O53   1.301443 A    
C17   C76   1.487251 S    
C92   H100  1.083186 S    
O19   C7    1.286876 A    
Zn8   O4    1.945761 S    
C69   H61   1.113854 S    
C104  H112  1.083172 S    
O37   C11   1.275214 A    
N16   C138  1.356823 A    
C34   C82   1.554197 S    
C59   C75   1.550846 S    
O39   C9    1.278409 A    
C89   C105  1.400321 A    
C60   C76   1.550850 S    
O13   C5    1.286876 A    
Zn10  O1    1.945765 S    
C98   H106  1.083175 S    
C63   H55   1.113557 S    
O51   C21   1.275222 A    
Zn12  O46   1.941158 S    
C61   H53   1.113032 S    
C35   H27   1.113026 S    
O20   C8    1.286877 A    
C95   C131  1.400632 A    
C124  C142  1.469977 S    
N27   O74   1.301429 A    
O24   C12   1.275188 A    
C10   C81   1.487252 S    
C103  H111  1.083161 S    
Zn6   O35   1.942114 S    
C72   H80   1.113541 S    
C27   C75   1.554209 S    
C71   C87   1.550834 S    
C120  C128  1.417222 A    
C49   C56   1.545339 S    
C50   C55   1.545300 S    
C39   H31   1.113549 S    
C121  C143  1.469973 S    
O44   C14   1.278409 A    
O17   C7    1.286877 A    
C51   C54   1.545340 S    
C26   H18   1.113026 S    
Zn5   O43   1.941158 S    
C89   C129  1.400631 A    
Zn6   O44   1.941162 S    
C49   H89   1.113032 S    
C68   H76   1.113834 S    
C65   H73   1.113541 S    
C40   H32   1.113031 S    
C23   C78   1.487241 S    
Zn15  O10   1.921329 S    
C21   C80   1.487253 S    
C61   H69   1.113049 S    
C56   H96   1.113037 S    
Zn1   O16   1.921329 S    
C67   C83   1.554188 S    
C125  C139  1.469977 S    
N3    C143  1.356847 A    
Zn3   O14   1.921329 S    
O29   C17   1.278379 A    
N31   O82   1.301428 A    
O42   C16   1.275214 A    
C38   C86   1.550866 S    
C113  C125  1.417209 A    
N1    N7    1.330627 A    
N5    C141  1.356848 A    
C95   C111  1.400317 A    
C28   C29   1.534296 S    
C46   C78   1.550869 S    
C37   H13   1.113311 S    
N23   O66   1.301444 A    
C35   C83   1.550863 S    
C103  C119  1.400318 A    
N15   C137  1.356811 A    
N29   O77   1.301397 A    
C7    C132  1.475463 S    
C55   H95   1.113029 S    
C60   C61   1.545310 S    
C52   H92   1.113333 S    
C38   H30   1.113023 S    
N18   O56   1.301445 A    
N7    C141  1.356849 A    
C107  C121  1.417243 A    
N9    C139  1.356808 A    
C29   H5    1.113553 S    
Zn13  O51   1.941158 S    
C18   C73   1.487241 S    
C99   C115  1.400318 A    
C44   H84   1.113046 S    
Zn4   O38   1.941158 S    
C1    C134  1.475463 S    
C35   H11   1.113023 S    
O33   C21   1.278379 A    
C126  C140  1.469981 S    
Zn9   O8    1.921329 S    
Zn11  O6    1.921329 S    
C93   H101  1.083189 S    
C97   C133  1.400598 A    
N8    C142  1.356846 A    
C44   C45   1.545327 S    
C93   C131  1.400632 A    
C29   H21   1.113564 S    
C40   C88   1.550865 S    
C94   C132  1.400628 A    
C26   C31   1.545361 S    
C116  C126  1.417225 A    
C57   C73   1.550835 S    
N22   O63   1.301448 A    
C100  H108  1.083175 S    
O6    C2    1.286877 A    
C112  C124  1.417237 A    
C35   C38   1.545372 S    
C66   C71   1.545328 S    
C41   C73   1.550859 S    
C62   H70   1.113044 S    
H47   C55   1.113029 S    
C110  C124  1.417236 A    
N14   C138  1.356824 A    
C25   H1    1.113533 S    
C127  C137  1.469981 S    
C66   H58   1.113017 S    
N3    N5    1.330627 A    
C58   C63   1.534173 S    
C71   H79   1.113037 S    
O30   C18   1.278378 A    
