data_mof_unit_17804.cif
_audit_creation_date              2012-12-10T19:48:01-0500
_audit_creation_method            fapswitch 2.2
_symmetry_space_group_name_H-M    P1
_symmetry_Int_Tables_number       1
_space_group_crystal_system       triclinic
_cell_length_a                    14.98695
_cell_length_b                    14.142293
_cell_length_c                    10.651621
_cell_angle_alpha                 90.402252
_cell_angle_beta                  90.098444
_cell_angle_gamma                 89.871824
_cell_volume                      2257.54478776

loop_
_atom_site_label
_atom_site_type_symbol
_atom_type_description
_atom_site_fract_x
_atom_site_fract_y
_atom_site_fract_z
_atom_type_partial_charge
C1    C     C_R   0.327704 0.500098 0.501021 0.835389
C2    C     C_R   0.575807 0.794214 0.467400 -0.146958
C3    C     C_R   0.557420 0.205190 0.576514 -0.137894
C4    C     C_R   0.425011 0.797029 0.531470 -0.139624
C5    C     C_R   0.503139 0.053407 0.497124 -0.034622
C6    C     C_R   0.502366 0.946800 0.498914 -0.035620
C7    C     C_R   0.500094 0.499733 0.260643 0.882940
C8    C     C_R   0.500165 0.500271 0.739365 0.880776
C9    C     C_R   0.655814 0.559020 0.131566 -0.155689
C10   C     C_R   0.344292 0.441785 0.868461 -0.151711
C11   C     C_R   0.655611 0.560037 0.870693 -0.152064
C12   C     C_R   0.672324 0.499938 0.501054 0.834444
C13   C     C_R   0.344598 0.440255 0.129305 -0.162566
C14   C     C_R   0.731332 0.588729 0.066876 -0.149450
C15   C     C_R   0.268638 0.412423 0.933070 -0.143700
C16   C     C_R   0.731262 0.589149 0.936477 -0.141440
C17   C     C_R   0.268782 0.411693 0.063460 -0.138653
C18   C     C_R   0.577628 0.530799 0.935067 0.070197
C19   C     C_R   0.422655 0.469337 0.064956 0.069797
C20   C     C_R   0.577765 0.530145 0.066087 0.072936
C21   C     C_R   0.422484 0.470137 0.933951 0.071454
C22   C     C_R   0.499999 0.500750 0.871593 -0.197621
C23   C     C_R   0.048229 0.501317 0.522634 0.114488
C24   C     C_R   0.500313 0.499289 0.128432 -0.195833
C25   C     C_R   0.092510 0.579756 0.473403 -0.176003
C26   C     C_R   0.907574 0.419481 0.476705 -0.177441
C27   C     C_R   0.904299 0.579416 0.562530 -0.182677
C28   C     C_R   0.095936 0.422934 0.566076 -0.183155
C29   C     C_R   0.184471 0.579507 0.466643 -0.192685
C30   C     C_R   0.815595 0.419455 0.469898 -0.188761
C31   C     C_R   0.812361 0.579805 0.554453 -0.216639
C32   C     C_R   0.187861 0.422205 0.557978 -0.208125
C33   C     C_R   0.232014 0.500373 0.507809 -0.026649
C34   C     C_R   0.951933 0.499579 0.522585 0.114728
C35   C     C_R   0.768080 0.499904 0.507751 -0.028085
C36   C     C_3   0.431691 0.039249 0.222325 0.076110
C37   C     C_3   0.377965 0.966619 0.147238 -0.278681
C38   C     C_3   0.425685 0.938295 0.026224 -1.025487
C39   C     C_3   0.671925 0.926990 0.299162 0.052663
C40   C     C_3   0.761383 0.876808 0.279473 -0.321478
C41   C     C_3   0.780802 0.861889 0.140072 -0.968747
C42   C     C_3   0.589219 0.061791 0.781314 0.048913
C43   C     C_3   0.666968 0.088814 0.867202 -0.282317
C44   C     C_3   0.639299 0.088402 0.004990 -1.018991
C45   C     C_R   0.445546 0.104357 0.416783 0.370297
C46   C     C_3   0.345014 0.973871 0.684803 0.077809
C47   C     C_3   0.278602 0.055409 0.699145 -0.295180
C48   C     C_3   0.277335 0.094347 0.833100 -0.985770
C49   C     C_R   0.578520 0.894006 0.464131 0.393846
C50   C     C_R   0.559473 0.105380 0.578333 0.381560
C51   C     C_R   0.424537 0.896712 0.532874 0.366731
C52   C     C_R   0.444439 0.203994 0.421428 -0.147534
H1    H     H_    0.209835 0.389524 0.113843 0.140360
H2    H     H_    0.944115 0.358001 0.443686 0.135023
H3    H     H_    0.938261 0.641233 0.599382 0.134269
H4    H     H_    0.062041 0.362483 0.605603 0.132955
H5    H     H_    0.218213 0.640166 0.427379 0.155466
H6    H     H_    0.781835 0.357444 0.433236 0.159005
H7    H     H_    0.776007 0.641938 0.585730 0.153758
H8    H     H_    0.224324 0.361244 0.591953 0.153233
H9    H     H_    0.399551 0.242788 0.360898 0.165030
H10   H     H_    0.634553 0.754025 0.442435 0.159778
H11   H     H_    0.601833 0.245003 0.637048 0.162607
H12   H     H_    0.790106 0.611572 0.886035 0.140101
H13   H     H_    0.364908 0.759287 0.555929 0.166784
H14   H     H_    0.500029 0.010126 0.237104 0.122686
H15   H     H_    0.436588 0.105761 0.167431 0.139875
H16   H     H_    0.367860 0.902422 0.205157 0.234039
H17   H     H_    0.311485 0.996807 0.123986 0.222617
H18   H     H_    0.438750 0.001573 0.968111 0.264528
H19   H     H_    0.383302 0.888497 0.971672 0.268490
H20   H     H_    0.489915 0.902625 0.048023 0.267570
H21   H     H_    0.675571 0.998123 0.256076 0.164615
H22   H     H_    0.618463 0.887393 0.247737 0.114751
H23   H     H_    0.209604 0.390801 0.881745 0.136675
H24   H     H_    0.815630 0.919864 0.322156 0.234036
H25   H     H_    0.760479 0.806924 0.326355 0.211480
H26   H     H_    0.728112 0.817484 0.096041 0.272981
H27   H     H_    0.845975 0.825341 0.128812 0.263739
H28   H     H_    0.783872 0.930955 0.091248 0.271977
H29   H     H_    0.565847 0.989818 0.806305 0.158909
H30   H     H_    0.532889 0.112119 0.799223 0.111666
H31   H     H_    0.722799 0.037935 0.853319 0.232257
H32   H     H_    0.690826 0.160651 0.842367 0.217572
H33   H     H_    0.583455 0.138749 0.021422 0.269225
H34   H     H_    0.790199 0.610929 0.118138 0.143428
H35   H     H_    0.696741 0.109969 0.064500 0.268101
H36   H     H_    0.618254 0.016326 0.032743 0.263984
H37   H     H_    0.411428 0.999226 0.717702 0.111714
H38   H     H_    0.323806 0.913960 0.744850 0.141650
H39   H     H_    0.297295 0.113284 0.634185 0.230594
H40   H     H_    0.210654 0.030402 0.673576 0.226637
H41   H     H_    0.258524 0.037908 0.899933 0.273588
H42   H     H_    0.227655 0.152501 0.840167 0.267063
H43   H     H_    0.343920 0.122936 0.858897 0.264238
H44   H     H_    0.659670 0.558539 0.232900 0.137251
H45   H     H_    0.340420 0.442523 0.767172 0.136558
H46   H     H_    0.659262 0.560408 0.769377 0.136920
H47   H     H_    0.340944 0.439731 0.230642 0.137304
H48   H     H_    0.055918 0.640052 0.437746 0.134062
N1    N     N_R   0.500000 0.252470 0.500000 -0.130533
N2    N     N_R   0.500000 0.747530 0.500000 -0.128152
O1    O     O_R   0.369060 0.579480 0.500010 -0.622737
O2    O     O_3   0.655986 0.939937 0.429316 -0.601364
O3    O     O_3   0.619400 0.059098 0.655415 -0.600924
O4    O     O_3   0.345791 0.944210 0.557896 -0.601899
O5    O     O_R   0.630940 0.420520 0.499990 -0.614177
O6    O     O_R   0.630940 0.579480 0.499990 -0.639015
O7    O     O_R   0.369060 0.420520 0.500010 -0.628455
O8    O     O_R   0.499990 0.579480 0.316780 -0.608007
O9    O     O_R   0.500010 0.420520 0.683220 -0.617802
O10   O     O_R   0.500010 0.579480 0.683220 -0.607848
O11   O     O_R   0.499990 0.420520 0.316780 -0.616235
O12   O     O_3   0.387649 0.057317 0.337136 -0.602233
Zn1   Zn    Zn3+2 0.500000 0.606140 0.500000 0.941662
Zn2   Zn    Zn3+2 0.500000 0.393860 0.500000 0.939337

loop_
_geom_bond_atom_site_label_1
_geom_bond_atom_site_label_2
_ccdc_geom_bond_type
C15   H23   S    
C38   H18   S    
C11   C18   A    
C48   H43   S    
C37   H17   S    
C43   H31   S    
C47   H40   S    
C42   H30   S    
C43   C44   S    
C36   O12   S    
C41   H28   S    
C28   H4    S    
C36   H15   S    
C1    C33   S    
C39   O2    S    
C46   H37   S    
C48   H42   S    
C30   C35   A    
C11   H46   S    
O6    Zn1   S    
C36   C37   S    
C19   C21   A    
C10   C15   A    
C8    O10   A    
C4    H13   S    
C36   H14   S    
C2    N2    A    
C7    C24   S    
C37   H16   S    
C29   C33   A    
C39   H22   S    
C31   H7    S    
N2    Zn1   S    
C9    C20   A    
O7    Zn2   S    
C1    O7    A    
C46   C47   S    
C45   O12   S    
C26   C34   A    
C20   C24   A    
C4    N2    A    
C50   O3    S    
C8    C22   S    
O9    Zn2   S    
C6    C51   A    
C44   H35   S    
C1    O1    A    
O11   Zn2   S    
C3    N1    A    
C23   C25   A    
C10   C21   A    
C21   C22   A    
C43   H32   S    
C42   H29   S    
C49   O2    S    
C26   H2    S    
C3    C50   A    
C27   C34   A    
C25   C29   A    
C38   H20   S    
C52   N1    A    
C48   H41   S    
C13   C19   A    
C4    C51   A    
C27   C31   A    
C28   C32   A    
C14   H34   S    
C8    O9    A    
C41   H26   S    
C12   O6    A    
C30   H6    S    
C45   C52   A    
C5    C45   A    
C40   H24   S    
C13   H47   S    
C10   H45   S    
O1    Zn1   S    
C9    C14   A    
C37   C38   S    
C2    C49   A    
C11   C16   A    
C25   H48   S    
C47   C48   S    
C23   C34   S    
C23   C28   A    
C12   C35   S    
C9    H44   S    
C40   C41   S    
C29   H5    S    
C26   C30   A    
C14   C16   A    
C5    C50   A    
C42   C43   S    
C32   H8    S    
C44   H33   S    
C17   H1    S    
C39   C40   S    
C15   C17   A    
C38   H19   S    
C18   C22   A    
C47   H39   S    
C41   H27   S    
C12   O5    A    
C46   H38   S    
C3    H11   S    
C27   H3    S    
C7    O8    A    
C13   C17   A    
C52   H9    S    
C32   C33   A    
C7    O11   A    
C19   C24   A    
C5    C6    S    
C51   O4    S    
C46   O4    S    
C31   C35   A    
C18   C20   A    
C39   H21   S    
C6    C49   A    
C42   O3    S    
O5    Zn2   S    
N1    Zn2   S    
C40   H25   S    
C16   H12   S    
C44   H36   S    
O8    Zn1   S    
O10   Zn1   S    
C2    H10   S    
