data_mof_unit_16148.cif
_audit_creation_date              2012-12-11T18:11:25-0500
_audit_creation_method            fapswitch 2.2
_symmetry_space_group_name_H-M    P1
_symmetry_Int_Tables_number       1
_space_group_crystal_system       triclinic
_cell_length_a                    8.276978
_cell_length_b                    12.782928
_cell_length_c                    18.699564
_cell_angle_alpha                 99.898087
_cell_angle_beta                  90.791903
_cell_angle_gamma                 99.044162
_cell_volume                      1923.11085083

loop_
_atom_site_label
_atom_site_type_symbol
_atom_type_description
_atom_site_fract_x
_atom_site_fract_y
_atom_site_fract_z
_atom_type_partial_charge
Ba1   Ba    Ba6+2 0.852780 0.548340 0.465070 1.700737
Ba2   Ba    Ba6+2 0.337060 0.451750 0.534940 1.719553
Br1   Br    Br    0.266281 0.134324 0.265856 -0.576577
Br2   Br    Br    0.485745 0.359329 0.320193 -0.568930
Br3   Br    Br    0.089903 0.262404 0.819037 -0.532532
Br4   Br    Br    0.742283 0.256463 0.054899 -0.544211
Br5   Br    Br    0.417064 0.868414 0.757554 -0.652650
C1    C     C_3   0.663853 0.907952 0.243482 -0.264663
C2    C     C_R   0.908589 0.378236 0.091430 0.254672
C3    C     C_R   0.761018 0.434920 0.958402 -0.053527
C4    C     C_3   0.121767 0.764397 0.267399 0.354470
C5    C     C_R   0.929302 0.460081 0.978061 0.065140
C6    C     C_R   0.703847 0.434138 0.887893 -0.106322
C7    C     C_R   0.812344 0.461903 0.834714 -0.010594
C8    C     C_R   0.975714 0.507720 0.856780 0.051083
C9    C     C_R   0.034231 0.508243 0.929167 0.058033
C10   C     C_R   0.762610 0.447508 0.760555 -0.043010
C11   C     C_R   0.872910 0.481388 0.710095 -0.264281
C12   C     C_3   0.646786 0.816122 0.286368 0.264141
C13   C     C_R   0.026742 0.540593 0.732333 0.071623
C14   C     C_R   0.079575 0.554080 0.806812 -0.026209
C15   C     C_R   0.152489 0.501061 0.071066 -0.000113
C16   C     C_3   0.108143 0.793163 0.192192 -0.294900
C17   C     C_R   0.209679 0.502595 0.143737 0.000613
C18   C     C_R   0.108961 0.449571 0.192006 -0.083311
C19   C     C_R   0.964341 0.382771 0.163106 -0.001295
C20   C     C_R   0.231735 0.613178 0.833541 -0.003096
C21   C     C_R   0.289940 0.613571 0.903815 -0.065942
C22   C     C_R   0.196480 0.556880 0.951918 0.019428
C23   C     C_3   0.482243 0.207816 0.299526 0.681259
C24   C     C_R   0.256726 0.552103 0.022880 0.042926
C25   C     C_R   0.420858 0.592601 0.046469 -0.070639
C26   C     C_R   0.370187 0.554076 0.167448 -0.015600
C27   C     C_R   0.476137 0.592817 0.116865 -0.082352
C28   C     C_3   0.306223 0.801511 0.665715 0.569620
C29   C     C_R   0.419825 0.565428 0.241138 0.014714
C30   C     C_R   0.305337 0.532739 0.290693 -0.226719
C31   C     C_R   0.159564 0.462877 0.266787 0.078481
C32   C     C_R   0.753806 0.186098 0.544104 -0.273246
C33   C     C_R   0.433445 0.808424 0.470867 -0.295374
C34   C     C_3   0.592969 0.188529 0.235673 -0.258311
C35   C     C_R   0.400892 0.986276 0.453572 -0.086931
C36   C     C_R   0.341276 0.876820 0.444485 -0.013322
C37   C     C_R   0.580908 0.849230 0.510772 0.049779
C38   C     C_R   0.642333 0.961936 0.522034 -0.028136
C39   C     C_R   0.549805 0.031109 0.492996 -0.069866
C40   C     C_3   0.267914 0.888485 0.625144 -0.306379
C41   C     C_R   0.608115 0.143390 0.503958 0.045284
C42   C     C_R   0.850520 0.118859 0.569172 -0.036538
C43   C     C_R   0.793765 0.007785 0.559768 -0.008192
C44   C     C_3   0.961520 0.221058 0.388950 0.343744
C45   C     C_3   0.016650 0.152738 0.734824 0.567715
C46   C     C_3   0.913432 0.099300 0.377454 -0.378635
C47   C     C_3   0.733946 0.702911 0.680684 0.318321
C48   C     C_3   0.790706 0.742293 0.760003 -0.372037
C49   C     C_2   0.605573 0.869852 0.165600 0.542283
C50   C     C_2   0.873737 0.026990 0.814049 0.507554
C51   C     C_2   0.536465 0.127150 0.697977 0.434349
C52   C     C_3   0.993492 0.040355 0.755685 -0.220254
C53   C     C_3   0.548397 0.209335 0.766110 0.256847
C54   C     C_3   0.492277 0.156640 0.830905 -0.172748
C55   C     C_R   0.992801 0.447362 0.046920 -0.011659
H1    H     H_    0.704705 0.846589 0.341585 0.066533
H2    H     H_    0.832563 0.666785 0.651336 0.022734
H3    H     H_    0.623200 0.640891 0.678119 0.066312
H4    H     H_    0.590511 0.967862 0.270298 0.101803
H5    H     H_    0.908431 0.798441 0.763713 0.138260
H6    H     H_    0.807416 0.673987 0.786845 0.043111
H7    H     H_    0.698452 0.783927 0.790269 0.167018
H8    H     H_    0.514090 0.789871 0.292111 -0.062210
H9    H     H_    0.577423 0.102544 0.210926 0.157080
H10   H     H_    0.563113 0.232989 0.192465 0.157519
H11   H     H_    0.722445 0.215579 0.254025 0.126082
H12   H     H_    0.200793 0.945020 0.659393 0.130986
H13   H     H_    0.794146 0.946123 0.244654 0.094978
H14   H     H_    0.140335 0.727567 0.150573 0.064551
H15   H     H_    0.898109 0.170086 0.715458 -0.056933
H16   H     H_    0.112524 0.022374 0.773975 0.130059
H17   H     H_    0.948205 0.979613 0.706922 0.039684
H18   H     H_    0.678626 0.246407 0.777972 -0.024872
H19   H     H_    0.575200 0.101257 0.842604 0.131944
H20   H     H_    0.366309 0.111312 0.820384 0.155420
H21   H     H_    0.029608 0.692035 0.269993 0.084177
H22   H     H_    0.492883 0.219132 0.880151 0.138139
H23   H     H_    0.381823 0.934702 0.609729 0.098028
H24   H     H_    0.832918 0.470040 0.653559 0.053636
H25   H     H_    0.573810 0.411465 0.875842 0.116069
H26   H     H_    0.895410 0.330490 0.195208 0.114501
H27   H     H_    0.310075 0.658713 0.800430 0.132701
H28   H     H_    0.603040 0.625352 0.131022 0.085584
H29   H     H_    0.340573 0.549072 0.347976 0.093061
H30   H     H_    0.670685 0.418899 0.997843 0.124338
H31   H     H_    0.408755 0.660879 0.919065 0.082361
H32   H     H_    0.245916 0.745389 0.275342 -0.076198
H33   H     H_    0.511494 0.623615 0.011373 0.064449
H34   H     H_    0.190529 0.851290 0.575689 0.084273
H35   H     H_    0.325363 0.035327 0.431404 0.135809
H36   H     H_    0.871733 0.958744 0.580265 0.093424
H37   H     H_    0.800688 0.271098 0.549026 0.045549
H38   H     H_    0.384310 0.723590 0.464520 0.069817
H39   H     H_    0.981414 0.805062 0.180079 0.127869
H40   H     H_    0.192648 0.868722 0.189539 0.202614
H41   H     H_    0.382519 0.750783 0.631708 -0.003071
H42   H     H_    0.671964 0.817108 0.129805 0.014803
H43   H     H_    0.750724 0.985199 0.799595 0.094235
H44   H     H_    0.457508 0.132441 0.652377 0.065441
H45   H     H_    0.861912 0.259286 0.415773 -0.020556
H46   H     H_    0.072282 0.243139 0.425263 0.100134
H47   H     H_    0.786595 0.075779 0.354988 0.105723
H48   H     H_    0.921345 0.070503 0.429560 0.081404
H49   H     H_    0.995766 0.058629 0.340141 0.199070
O1    O     O_2   0.873090 0.425890 0.325140 -0.441258
O2    O     O_2   0.178097 0.121694 0.545551 -0.497145
O3    O     O_3   0.140350 0.158312 0.683898 -0.581242
O4    O     O_3   0.122420 0.434370 0.414380 -0.490379
O5    O     O_3   0.578370 0.633800 0.536380 -0.493225
O6    O     O_2   0.341510 0.231850 0.465510 -0.450480
O7    O     O_3   0.537951 0.161915 0.356655 -0.666840
O8    O     O_2   0.450036 0.483125 0.754867 -0.460289
O9    O     O_3   0.444587 0.283880 0.757956 -0.549295
O10   O     O_3   0.659500 0.627100 0.368810 -0.448187
O11   O     O_2   0.746120 0.531296 0.241689 -0.465555
O12   O     O_3   0.697667 0.790292 0.650839 -0.604884
O13   O     O_3   0.992210 0.254154 0.321885 -0.592041
O14   O     O_3   0.725927 0.733582 0.250838 -0.627347
O15   O     O_2   0.848200 0.768190 0.534530 -0.461356
O16   O     O_3   0.081160 0.685950 0.404810 -0.496154
O17   O     O_2   0.007241 0.879179 0.453392 -0.483600
O18   O     O_2   0.486072 0.899434 0.141526 -0.562444
O19   O     O_2   0.914179 0.060853 0.877879 -0.484436
O20   O     O_2   0.616634 0.054281 0.692935 -0.639974
O21   O     O_3   0.093705 0.851829 0.319727 -0.583501
O22   O     O_2   0.316610 0.574140 0.674900 -0.476411
O23   O     O_3   0.067290 0.565720 0.585630 -0.488464
O24   O     O_3   0.530210 0.372990 0.631200 -0.480573
O25   O     O_3   0.157670 0.745029 0.681931 -0.651052
O26   O     O_3   0.611340 0.366290 0.463630 -0.429141
O27   O     O_3   0.108550 0.314140 0.595200 -0.456469
P1    P     P_3+3 0.041040 0.394770 0.336330 1.040342
P2    P     P_3+3 0.672880 0.754030 0.556100 0.991372
P3    P     P_3+3 0.132214 0.823995 0.406262 0.964889
P4    P     P_3+3 0.148670 0.605320 0.663680 0.982237
P5    P     P_3+3 0.064874 0.176624 0.599576 0.964294
P6    P     P_3+3 0.635945 0.612561 0.274915 0.988139
P7    P     P_3+3 0.525660 0.228510 0.447324 1.004591
P8    P     P_3+3 0.550869 0.394846 0.726117 0.975172

loop_
_geom_bond_atom_site_label_1
_geom_bond_atom_site_label_2
_ccdc_geom_bond_type
C46   H48   S    
C50   H43   S    
C47   O12   S    
C1    H4    S    
O13   P1    S    
O10   P6    S    
O11   P6    D    
C16   H14   S    
C28   C40   S    
C4    O21   S    
C1    C49   S    
Br4   C2    S    
C48   H6    S    
C47   H3    S    
C38   C39   A    
O8    P8    D    
O9    P8    S    
O15   P2    D    
O22   P4    D    
Ba2   O23   S    
C40   H23   S    
O26   P7    S    
C29   C30   A    
C28   H41   S    
O27   P5    S    
Ba1   O1    S    
C35   C39   A    
C50   C52   S    
C16   H40   S    
C15   C55   A    
O14   P6    S    
C51   C53   S    
C8    C9    A    
C26   C29   A    
O6    P7    D    
Ba1   Ba2   S    
O16   P3    S    
O25   P4    S    
Ba2   O5    S    
C33   C36   A    
C53   H18   S    
C5    C9    A    
C12   H1    S    
C44   H46   S    
C40   H34   S    
Br3   C45   S    
C53   O9    S    
Ba1   O5    S    
O17   P3    D    
C49   O18   D    
Ba1   P1    S    
C34   H9    S    
C46   H49   S    
C14   C20   A    
C3    H30   S    
C37   P2    S    
C6    C7    A    
C44   O13   S    
O1    P1    D    
C52   H16   S    
Ba2   O6    S    
C2    C19   A    
C26   C27   A    
C39   C41   A    
C43   H36   S    
C1    C12   S    
C15   C24   A    
C30   H29   S    
C2    C55   A    
Ba2   O22   S    
C13   P4    S    
C50   O19   D    
Ba1   O15   S    
C49   H42   S    
C35   H35   S    
C52   H17   S    
C23   O7    S    
C4    H21   S    
C9    C22   A    
O12   P2    S    
C12   O14   S    
C1    H13   S    
O2    P5    D    
C21   H31   S    
C44   C46   S    
Ba2   O27   S    
Br1   C23   S    
C27   H28   S    
C30   C31   A    
C45   C52   S    
C18   C31   A    
O23   P4    S    
C5    C55   A    
Ba2   O4    S    
C32   H37   S    
C24   C25   A    
C8    C14   A    
C51   O20   D    
C31   P1    S    
O24   P8    S    
C41   P7    S    
C6    H25   S    
C10   C11   A    
C23   C34   S    
C11   H24   S    
C17   C18   A    
C48   H7    S    
Ba1   P2    S    
C3    C5    A    
C34   H10   S    
C4    H32   S    
C19   H26   S    
C32   C42   A    
O4    P1    S    
Ba2   P4    S    
C15   C17   A    
C36   P3    S    
C35   C36   A    
C45   H15   S    
Ba1   O26   S    
C37   C38   A    
C46   H47   S    
O21   P3    S    
C47   C48   S    
C21   C22   A    
Ba2   O26   S    
Br5   C28   S    
O7    P7    S    
Ba1   O16   S    
C40   H12   S    
C3    C6    A    
C28   O25   S    
C33   H38   S    
C48   H5    S    
C54   H22   S    
C45   O3    S    
Ba2   O24   S    
C54   H20   S    
O3    P5    S    
C10   P8    S    
C18   C19   A    
C22   C24   A    
C54   H19   S    
C16   H39   S    
C47   H2    S    
C38   C43   A    
C42   P5    S    
C4    C16   S    
C20   H27   S    
C11   C13   A    
C29   P6    S    
Ba1   O10   S    
C34   H11   S    
C33   C37   A    
C25   H33   S    
C13   C14   A    
C44   H45   S    
C42   C43   A    
C20   C21   A    
C7    C8    A    
C53   C54   S    
C12   H8    S    
Ba1   O4    S    
C51   H44   S    
Br2   C23   S    
Ba1   O23   S    
C17   C26   A    
C25   C27   A    
C32   C41   A    
O5    P2    S    
C7    C10   A    
