data_mof_unit_42495.cif
_audit_creation_date              2012-12-11T14:30:13-0500
_audit_creation_method            fapswitch 2.2
_symmetry_space_group_name_H-M    P1
_symmetry_Int_Tables_number       1
_space_group_crystal_system       triclinic
_cell_length_a                    12.677357
_cell_length_b                    12.677378
_cell_length_c                    27.116318
_cell_angle_alpha                 90.000374
_cell_angle_beta                  89.99998
_cell_angle_gamma                 120.000131
_cell_volume                      3774.14808997

loop_
_atom_site_label
_atom_site_type_symbol
_atom_type_description
_atom_site_fract_x
_atom_site_fract_y
_atom_site_fract_z
_atom_type_partial_charge
C1    C     C_R   0.557932 0.455345 0.822109 0.563696
C2    C     C_R   0.454823 0.561353 0.176812 0.573755
C3    C     C_R   0.880154 0.282387 0.461658 -0.046217
C4    C     C_R   0.269014 0.860507 0.012181 -0.055994
C5    C     C_R   0.717594 0.597674 0.461654 -0.046273
C6    C     C_R   0.407857 0.138917 0.512223 -0.055746
C7    C     C_R   0.120332 0.402809 0.961622 -0.046421
C8    C     C_R   0.731051 0.592125 0.512223 -0.055748
C9    C     C_R   0.282496 0.879577 0.961615 -0.046471
C10   C     C_R   0.861160 0.268932 0.512228 -0.055692
C11   C     C_R   0.597047 0.717513 0.961611 -0.046509
C12   C     C_R   0.442078 0.897434 0.322105 0.563579
C13   C     C_R   0.106524 0.545172 0.176813 0.573767
C14   C     C_R   0.009952 0.513101 0.971508 -0.064054
C15   C     C_R   0.519595 0.030228 0.522671 -0.069392
C16   C     C_R   0.486869 0.496842 0.971507 -0.064060
C17   C     C_R   0.969788 0.489362 0.522671 -0.069387
C18   C     C_R   0.503167 0.990066 0.971511 -0.064048
C19   C     C_R   0.510623 0.480418 0.522674 -0.069388
C20   C     C_R   0.513131 0.010042 0.471494 -0.064261
C21   C     C_R   0.893455 0.438634 0.676807 0.573616
C22   C     C_R   0.030161 0.519569 0.022683 -0.069238
C23   C     C_R   0.496900 0.486880 0.471497 -0.064257
C24   C     C_R   0.489421 0.969842 0.022685 -0.069231
C25   C     C_R   0.989962 0.503083 0.471494 -0.064257
C26   C     C_R   0.480384 0.510589 0.022680 -0.069244
C27   C     C_R   0.899475 0.623139 0.981812 0.419137
C28   C     C_R   0.630975 0.921075 0.532611 0.428880
C29   C     C_R   0.376934 0.276329 0.981820 0.419137
C30   C     C_R   0.078901 0.709899 0.532608 0.428876
C31   C     C_R   0.723682 0.100660 0.981825 0.419154
C32   C     C_R   0.544656 0.102589 0.822110 0.563697
C33   C     C_R   0.290089 0.369080 0.532617 0.428900
C34   C     C_R   0.623711 0.900088 0.481752 0.418953
C35   C     C_R   0.920488 0.630411 0.032669 0.429105
C36   C     C_R   0.276365 0.376343 0.481758 0.418971
C37   C     C_R   0.709939 0.079646 0.032682 0.429141
C38   C     C_R   0.099877 0.723620 0.481748 0.418959
C39   C     C_R   0.369647 0.290074 0.032675 0.429111
C40   C     C_R   0.916207 0.549054 0.900740 -0.149292
C41   C     C_R   0.585261 0.007844 0.604568 -0.089382
C42   C     C_R   0.450994 0.367141 0.900746 -0.149292
C43   C     C_R   0.561362 0.454820 0.676808 0.573633
C44   C     C_R   0.992154 0.577417 0.604568 -0.089317
C45   C     C_R   0.632866 0.083875 0.900749 -0.149288
C46   C     C_R   0.422575 0.414773 0.604573 -0.089354
C47   C     C_R   0.549350 0.916561 0.400701 -0.149253
C48   C     C_R   0.007559 0.584984 0.104601 -0.089188
C49   C     C_R   0.367200 0.450678 0.400705 -0.149248
C50   C     C_R   0.577433 0.992503 0.104607 -0.089217
C51   C     C_R   0.083407 0.632783 0.400697 -0.149249
C52   C     C_R   0.415026 0.422577 0.104602 -0.089273
C53   C     C_R   0.070850 0.530820 0.124657 0.024482
C54   C     C_R   0.897417 0.442070 0.822109 0.563675
C55   C     C_R   0.482131 0.952895 0.370937 0.001457
C56   C     C_R   0.469147 0.540037 0.124654 0.024438
C57   C     C_R   0.047099 0.529231 0.370935 0.001450
C58   C     C_R   0.459971 0.929132 0.124657 0.024542
C59   C     C_R   0.470755 0.517875 0.370939 0.001463
C60   C     C_R   0.530828 0.070865 0.624650 0.023809
C61   C     C_R   0.952802 0.482095 0.870951 0.001578
C62   C     C_R   0.540031 0.469178 0.624652 0.023879
C63   C     C_R   0.529308 0.047223 0.870955 0.001592
C64   C     C_R   0.929155 0.459963 0.624652 0.023847
C65   C     C_R   0.545182 0.106547 0.676807 0.573611
C66   C     C_R   0.517908 0.470697 0.870953 0.001592
C67   C     C_R   0.943087 0.563833 0.951105 -0.065075
C68   C     C_R   0.578654 0.985602 0.553553 -0.056097
C69   C     C_R   0.436199 0.379244 0.951109 -0.065045
C70   C     C_R   0.014396 0.593050 0.553552 -0.056100
C71   C     C_R   0.620765 0.056993 0.951113 -0.065047
C72   C     C_R   0.406938 0.421381 0.553558 -0.056083
C73   C     C_R   0.564134 0.943446 0.451067 -0.065146
C74   C     C_R   0.985286 0.578361 0.053588 -0.055957
C75   C     C_R   0.379300 0.435896 0.451071 -0.065137
C76   C     C_R   0.455354 0.557924 0.322106 0.563591
C77   C     C_R   0.593086 0.014779 0.053595 -0.055935
C78   C     C_R   0.056531 0.620683 0.451064 -0.065163
C79   C     C_R   0.421642 0.406925 0.053589 -0.055950
C80   C     C_R   0.025888 0.438541 0.890703 0.400653
C81   C     C_R   0.469954 0.112472 0.593563 0.391021
C82   C     C_R   0.561407 0.587335 0.890699 0.400654
C83   C     C_R   0.887588 0.357478 0.593566 0.391053
C84   C     C_R   0.412670 0.974090 0.890702 0.400659
C85   C     C_R   0.642513 0.530033 0.593563 0.391032
C86   C     C_R   0.438336 0.025759 0.390711 0.400473
C87   C     C_R   0.438651 0.893477 0.176814 0.573788
C88   C     C_R   0.112699 0.470203 0.093550 0.391301
C89   C     C_R   0.587414 0.561651 0.390712 0.400476
C90   C     C_R   0.357505 0.887197 0.093545 0.391267
C91   C     C_R   0.974261 0.412570 0.390713 0.400482
C92   C     C_R   0.529685 0.642503 0.093543 0.391242
C93   C     C_R   0.053995 0.452906 0.940953 0.073326
C94   C     C_R   0.465424 0.093909 0.542928 0.066953
C95   C     C_R   0.547020 0.601078 0.940948 0.073279
C96   C     C_R   0.906142 0.371510 0.542931 0.066979
C97   C     C_R   0.398930 0.945973 0.940952 0.073319
C98   C     C_R   0.102565 0.544644 0.322105 0.563567
C99   C     C_R   0.628476 0.534570 0.542929 0.066968
C100  C     C_R   0.452676 0.053841 0.440963 0.072894
C101  C     C_R   0.094119 0.465674 0.042917 0.067316
C102  C     C_R   0.601155 0.547314 0.440964 0.072909
C103  C     C_R   0.371563 0.905806 0.042913 0.067299
C104  C     C_R   0.946185 0.398827 0.440964 0.072935
C105  C     C_R   0.534215 0.628446 0.042909 0.067266
C106  C     C_R   0.139375 0.408374 0.012189 -0.055922
C107  C     C_R   0.402304 0.119908 0.461654 -0.046268
C108  C     C_R   0.591460 0.730996 0.012177 -0.056023
Cr1   Cr    Cr6+3 0.487630 0.241180 0.750000 1.144300
Cr2   Cr    Cr6+3 0.753550 0.512370 0.750000 1.144288
Cr3   Cr    Cr6+3 0.758820 0.246450 0.750000 1.144312
Cr4   Cr    Cr6+3 0.241180 0.487630 0.250000 1.144329
Cr5   Cr    Cr6+3 0.512370 0.753550 0.250000 1.144310
Cr6   Cr    Cr6+3 0.246450 0.758820 0.250000 1.144302
F1    F     F_    0.876633 0.687550 0.061435 -0.555118
F2    F     F_    0.837716 0.165212 0.962735 -0.580795
F3    F     F_    0.122491 0.810915 0.561352 -0.554752
F4    F     F_    0.327458 0.162294 0.962730 -0.580755
F5    F     F_    0.176574 0.419395 0.112204 -0.618106
F6    F     F_    0.376836 0.064280 0.361589 -0.593610
F7    F     F_    0.580415 0.757184 0.112193 -0.618206
F8    F     F_    0.935768 0.312549 0.361594 -0.593608
F9    F     F_    0.242822 0.823209 0.112193 -0.618250
F10   F     F_    0.687435 0.623127 0.361587 -0.593619
F11   F     F_    0.418911 0.176127 0.612231 -0.617846
F12   F     F_    0.673526 0.835867 0.462633 -0.580425
F13   F     F_    0.064620 0.377267 0.861556 -0.593698
F14   F     F_    0.757213 0.581044 0.612229 -0.617889
F15   F     F_    0.312665 0.935324 0.861553 -0.593707
F16   F     F_    0.823985 0.242774 0.612236 -0.617779
F17   F     F_    0.622641 0.687339 0.861548 -0.593701
F18   F     F_    0.312556 0.189083 0.061445 -0.555159
F19   F     F_    0.164084 0.837658 0.462628 -0.580398
F20   F     F_    0.810933 0.123570 0.061453 -0.555169
F21   F     F_    0.162328 0.326550 0.462641 -0.580469
F22   F     F_    0.688388 0.877476 0.561355 -0.554769
F23   F     F_    0.834975 0.672673 0.962718 -0.580685
F24   F     F_    0.189076 0.311691 0.561363 -0.554786
H1    H     H_    0.188371 0.366243 0.027192 0.185941
H2    H     H_    0.201437 0.844688 0.938972 0.195895
H3    H     H_    0.812419 0.177806 0.527251 0.186433
H4    H     H_    0.643208 0.798572 0.938966 0.195885
H5    H     H_    0.976833 0.632475 0.128663 0.214169
H6    H     H_    0.582918 0.859943 0.385345 0.215112
H7    H     H_    0.367587 0.344360 0.128668 0.214146
H8    H     H_    0.140000 0.722970 0.385340 0.215130
H9    H     H_    0.655650 0.023289 0.128675 0.214110
H10   H     H_    0.277015 0.417127 0.385350 0.215112
H11   H     H_    0.632953 0.977310 0.628613 0.214543
H12   H     H_    0.355895 0.154573 0.439030 0.196298
H13   H     H_    0.859402 0.582417 0.885402 0.214935
H14   H     H_    0.344348 0.367100 0.628619 0.214505
H15   H     H_    0.723033 0.140727 0.885415 0.214917
H16   H     H_    0.022667 0.655645 0.628611 0.214545
H17   H     H_    0.417679 0.276975 0.885413 0.214912
H18   H     H_    0.633542 0.822125 0.027176 0.185868
H19   H     H_    0.845510 0.201312 0.439036 0.196313
H20   H     H_    0.177886 0.811466 0.027181 0.185881
H21   H     H_    0.798669 0.644072 0.439030 0.196289
H22   H     H_    0.365506 0.187691 0.527244 0.186390
H23   H     H_    0.155190 0.356607 0.938981 0.195917
H24   H     H_    0.822176 0.634472 0.527244 0.186382
O1    O     O_R   0.460870 0.120930 0.805240 -0.436315
O2    O     O_R   0.120930 0.460870 0.194760 -0.423428
O3    O     O_R   0.539130 0.660060 0.305240 -0.436220
O4    O     O_R   0.339940 0.879070 0.194760 -0.423467
O5    O     O_R   0.498910 0.350470 0.801870 -0.522713
O6    O     O_R   0.851560 0.501090 0.698130 -0.470623
O7    O     O_R   0.649530 0.148440 0.801870 -0.522701
O8    O     O_R   0.498910 0.350470 0.698130 -0.470623
O9    O     O_R   0.851560 0.501090 0.801870 -0.522715
O10   O     O_R   0.649530 0.148440 0.698130 -0.470660
O11   O     O_R   0.350470 0.498910 0.301870 -0.522744
O12   O     O_R   0.660060 0.539130 0.694760 -0.423256
O13   O     O_R   0.501090 0.851560 0.198130 -0.470414
O14   O     O_R   0.148440 0.649530 0.301870 -0.522758
O15   O     O_R   0.350470 0.498910 0.198130 -0.470467
O16   O     O_R   0.501090 0.851560 0.301870 -0.522760
O17   O     O_R   0.148440 0.649530 0.198130 -0.470423
O18   O     O_3   0.666667 0.333333 0.750000 -0.310534
O19   O     O_3   0.333333 0.666667 0.250000 -0.310410
O20   O     O_R   0.879070 0.339940 0.805240 -0.436297
O21   O     O_R   0.460870 0.120930 0.694760 -0.423237
O22   O     O_R   0.660060 0.539130 0.805240 -0.436315
O23   O     O_R   0.879070 0.339940 0.694760 -0.423237
O24   O     O_R   0.120930 0.460870 0.305240 -0.436197
O25   O     O_R   0.539130 0.660060 0.194760 -0.423443
O26   O     O_R   0.339940 0.879070 0.305240 -0.436208

loop_
_geom_bond_atom_site_label_1
_geom_bond_atom_site_label_2
_ccdc_geom_bond_type
C50   H9    S    
C3    C104  A    
C46   H14   S    
C32   O7    A    
C32   O1    A    
C35   C74   A    
C52   H7    S    
C89   C102  A    
C45   C71   A    
C90   F9    S    
C12   O16   A    
C91   C104  A    
C58   C87   S    
C15   C94   A    
C88   C101  A    
C44   C64   A    
C7    H23   S    
C27   F23   S    
C22   C101  A    
C46   C62   A    
C18   C24   A    
C84   C97   A    
C76   O11   A    
C28   C68   A    
C8    C99   A    
Cr4   O24   S    
C9    H2    S    
C87   O4    A    
C41   H11   S    
C39   F18   S    
C14   C67   A    
C61   C80   A    
C12   O26   A    
C4    C103  A    
C84   F15   S    
C101  C106  A    
C33   C36   A    
Cr6   O26   S    
C30   C38   A    
Cr3   O10   S    
C59   C89   A    
C38   F19   S    
C2    O25   A    
C21   C64   S    
Cr1   O5    S    
C33   C72   A    
C107  H12   S    
Cr2   O6    S    
C1    O22   A    
C4    H20   S    
C6    C94   A    
C91   F8    S    
C108  H18   S    
C6    C107  A    
C49   C75   A    
C44   C70   A    
C51   C57   A    
C18   C97   A    
C10   C96   A    
C52   C79   A    
C86   C100  A    
C4    C9    A    
C14   C93   A    
C29   C69   A    
Cr5   O13   S    
Cr2   O9    S    
Cr1   O21   S    
C31   C71   A    
Cr5   O16   S    
Cr2   O22   S    
C17   C70   A    
C19   C72   A    
C15   C20   A    
C7    C93   A    
C26   C105  A    
C30   C70   A    
C43   O8    A    
Cr6   O4    S    
C41   C68   A    
C13   C53   S    
Cr2   O12   S    
C16   C26   A    
C48   C53   A    
Cr4   O2    S    
C62   C85   A    
Cr5   O19   S    
Cr3   O23   S    
C65   O10   A    
C25   C78   A    
C50   C58   A    
C48   C74   A    
C42   C66   A    
C47   C73   A    
C83   F16   S    
Cr1   O1    S    
C19   C99   A    
C38   C78   A    
C51   H8    S    
C27   C35   A    
C13   O17   A    
C37   C77   A    
C47   H6    S    
C45   C63   A    
Cr3   O20   S    
C40   C61   A    
C31   C37   A    
C49   H10   S    
Cr3   O7    S    
C10   H3    S    
C39   C79   A    
C19   C23   A    
C64   C83   A    
C85   C99   A    
C36   C75   A    
C66   C82   A    
C89   F10   S    
C98   O14   A    
C60   C81   A    
C24   C77   A    
C20   C100  A    
Cr2   O18   S    
C33   F24   S    
C34   F12   S    
C29   C39   A    
C54   O20   A    
C1    C66   S    
C7    C106  A    
C76   O3    A    
C17   C96   A    
C105  C108  A    
C88   F5    S    
C35   F1    S    
C58   C90   A    
C2    O15   A    
C30   F3    S    
C60   C65   S    
Cr3   O18   S    
C45   H15   S    
C22   C74   A    
C36   F21   S    
C31   F2    S    
C11   C108  A    
Cr1   O8    S    
C40   C67   A    
C13   O2    A    
C47   C55   A    
C65   O21   A    
C11   C95   A    
C18   C71   A    
C5    C102  A    
C100  C107  A    
C9    C97   A    
C82   C95   A    
C57   C91   A    
C81   F11   S    
C28   F22   S    
C46   C72   A    
C54   O9    A    
C16   C69   A    
C41   C60   A    
C23   C75   A    
C54   C61   S    
C5    C8    A    
C6    H22   S    
C25   C104  A    
C21   O23   A    
Cr4   O19   S    
C80   F13   S    
C32   C63   S    
Cr6   O19   S    
C87   O13   A    
C29   F4    S    
C15   C68   A    
C26   C79   A    
C49   C59   A    
C63   C84   A    
C24   C103  A    
C17   C25   A    
C14   C22   A    
C55   C86   A    
C42   H17   S    
C80   C93   A    
C51   C78   A    
C44   H16   S    
C98   O24   A    
C3    C10   A    
C2    C56   S    
C92   F7    S    
Cr5   O3    S    
C81   C94   A    
C16   C95   A    
Cr1   O18   S    
C106  H1    S    
C21   O6    A    
C83   C96   A    
C57   C98   S    
Cr6   O14   S    
C43   O12   A    
C20   C73   A    
Cr4   O11   S    
C53   C88   A    
C42   C69   A    
C40   H13   S    
C11   H4    S    
C90   C103  A    
C12   C55   S    
C27   C67   A    
C34   C73   A    
C28   C34   A    
C23   C102  A    
C92   C105  A    
C56   C92   A    
C48   H5    S    
C5    H21   S    
Cr6   O17   S    
C50   C77   A    
C3    H19   S    
C1    O5    A    
C37   F20   S    
C85   F14   S    
C86   F6    S    
C8    H24   S    
C82   F17   S    
C59   C76   S    
C52   C56   A    
C43   C62   S    
Cr4   O15   S    
Cr5   O25   S    
