data_mof_unit_22128.cif
_audit_creation_date              2012-12-11T17:44:05-0500
_audit_creation_method            fapswitch 2.2
_symmetry_space_group_name_H-M    P1
_symmetry_Int_Tables_number       1
_space_group_crystal_system       triclinic
_cell_length_a                    20.235502
_cell_length_b                    22.744885
_cell_length_c                    6.939079
_cell_angle_alpha                 90.00267
_cell_angle_beta                  87.211037
_cell_angle_gamma                 89.999751
_cell_volume                      3189.95712083

loop_
_atom_site_label
_atom_site_type_symbol
_atom_type_description
_atom_site_fract_x
_atom_site_fract_y
_atom_site_fract_z
_atom_type_partial_charge
O1    O     O_R   0.751270 0.447300 0.600030 -0.542394
O2    O     O_R   0.248730 0.947300 0.399970 -0.542397
O3    O     O_R   0.613530 0.440160 0.952150 -0.540598
O4    O     O_R   0.386470 0.940160 0.047850 -0.540600
O5    O     O_R   0.613050 0.552700 0.122560 -0.536084
O6    O     O_R   0.386950 0.052700 0.877440 -0.536072
C1    C     C_R   0.591559 0.425415 0.786518 0.685467
C2    C     C_R   0.408441 0.925414 0.213472 0.685480
O7    O     O_R   0.750780 0.440350 0.929820 -0.547724
O8    O     O_R   0.249220 0.940350 0.070180 -0.547724
O9    O     O_R   0.751280 0.552900 0.100070 -0.529611
O10   O     O_R   0.248720 0.052900 0.899930 -0.529590
C3    C     C_R   0.774020 0.426242 0.757942 0.693792
C4    C     C_R   0.225980 0.926242 0.242053 0.693787
O11   O     O_R   0.613040 0.447100 0.622520 -0.540149
O12   O     O_R   0.386960 0.947100 0.377480 -0.540149
O13   O     O_3   0.682160 0.536920 0.777780 -0.341337
O14   O     O_3   0.317840 0.036920 0.222220 -0.341352
V1    V     V_3+5 0.682160 0.493150 0.052630 1.445721
V2    V     V_3+5 0.317840 0.993150 0.947370 1.445740
O15   O     O_R   0.750790 0.559840 0.429870 -0.512686
O16   O     O_R   0.249210 0.059840 0.570130 -0.512741
C5    C     C_R   0.773105 0.574946 0.258309 0.702848
C6    C     C_R   0.226896 0.074946 0.741698 0.702813
O17   O     O_R   0.613540 0.559650 0.452200 -0.537908
O18   O     O_R   0.386460 0.059650 0.547800 -0.537918
C7    C     C_R   0.591706 0.574478 0.286559 0.681549
C8    C     C_R   0.408294 0.074477 0.713451 0.681567
V3    V     V_3+5 0.682160 0.506850 0.552630 1.483318
V4    V     V_3+5 0.317840 0.006850 0.447370 1.483254
O19   O     O_3   0.682150 0.463080 0.277610 -0.377852
O20   O     O_3   0.317850 0.963080 0.722390 -0.377851
C9    C     C_R   0.579806 0.860946 0.177817 -0.159640
C10   C     C_R   0.420173 0.360977 0.821388 -0.159622
H1    H     H_    0.538506 0.947397 0.157485 0.106431
H2    H     H_    0.461473 0.447430 0.841699 0.106422
H3    H     H_    0.671083 0.777417 0.177309 0.124731
H4    H     H_    0.328886 0.277463 0.821508 0.124691
H5    H     H_    0.629909 0.876988 0.152384 0.113791
H6    H     H_    0.370060 0.377035 0.846433 0.113795
C11   C     C_R   0.462728 0.882159 0.213932 -0.037780
C12   C     C_R   0.537272 0.382162 0.785999 -0.037754
C13   C     C_R   0.472524 0.595418 0.318646 -0.168369
C14   C     C_R   0.527488 0.095396 0.681887 -0.168394
C15   C     C_R   0.418459 0.633152 0.323669 -0.118145
C16   C     C_R   0.581560 0.133121 0.677092 -0.118141
C17   C     C_R   0.427221 0.693453 0.297647 -0.155805
C18   C     C_R   0.572793 0.193430 0.702915 -0.155799
C19   C     C_R   0.491110 0.717905 0.265441 0.076398
C20   C     C_R   0.508893 0.217900 0.734673 0.076384
C21   C     C_R   0.546613 0.678692 0.259608 0.069047
C22   C     C_R   0.453383 0.178698 0.740239 0.069061
C23   C     C_R   0.501719 0.779836 0.238929 0.074050
C24   C     C_R   0.498280 0.279838 0.761001 0.074048
C25   C     C_R   0.567533 0.800728 0.206263 0.139428
C26   C     C_R   0.432453 0.300749 0.793183 0.139435
C27   C     C_R   0.620857 0.761541 0.201704 -0.202617
C28   C     C_R   0.379122 0.261573 0.797482 -0.202601
C29   C     C_R   0.610707 0.701600 0.228139 -0.187465
C30   C     C_R   0.389277 0.201624 0.771252 -0.187399
C31   C     C_R   0.449607 0.822008 0.243103 -0.215004
C32   C     C_R   0.550400 0.321999 0.757089 -0.214991
C33   C     C_R   0.527864 0.901185 0.180876 -0.172735
C34   C     C_R   0.472121 0.401208 0.818548 -0.172757
C35   C     C_R   0.536667 0.617234 0.286518 -0.082177
C36   C     C_R   0.463334 0.117231 0.713550 -0.082155
H7    H     H_    0.398448 0.809730 0.267291 0.092614
H8    H     H_    0.601568 0.309708 0.733262 0.092597
H9    H     H_    0.464290 0.548740 0.340126 0.105009
H10   H     H_    0.535727 0.048710 0.660611 0.104999
H11   H     H_    0.382874 0.719678 0.303673 0.108952
H12   H     H_    0.617146 0.219647 0.697099 0.108953
H13   H     H_    0.369091 0.615485 0.348427 0.120665
H14   H     H_    0.630936 0.115439 0.652691 0.120664
H15   H     H_    0.653737 0.673232 0.223453 0.108409
H16   H     H_    0.346241 0.173263 0.775726 0.108294
C37   C     C_R   0.170293 0.883325 0.258423 -0.048161
C38   C     C_R   0.829707 0.383325 0.741564 -0.048166
C39   C     C_R   0.146766 0.855745 0.093296 -0.221438
C40   C     C_R   0.853232 0.355745 0.906687 -0.221442
C41   C     C_R   0.093395 0.816416 0.108387 -0.146144
C42   C     C_R   0.906602 0.316416 0.891593 -0.146144
C43   C     C_R   0.062005 0.803833 0.289949 0.425167
C44   C     C_R   0.937996 0.303832 0.710033 0.425168
C45   C     C_R   0.085556 0.831313 0.453894 -0.185322
C46   C     C_R   0.914448 0.331311 0.546092 -0.185318
C47   C     C_R   0.139068 0.870345 0.439024 -0.199676
C48   C     C_R   0.860936 0.370344 0.560964 -0.199672
C49   C     C_R   0.891006 0.702784 0.357153 -0.207439
C50   C     C_R   0.109002 0.202785 0.642858 -0.207353
C51   C     C_R   0.837777 0.663317 0.381996 -0.053051
C52   C     C_R   0.162235 0.163319 0.618038 -0.053074
C53   C     C_R   0.936210 0.698666 0.196469 0.410781
C54   C     C_R   0.063789 0.198666 0.803520 0.410743
N1    N     N_2   0.006461 0.765199 0.315178 -0.306637
N2    N     N_2   0.993541 0.265198 0.684804 -0.306634
N3    N     N_2   0.991993 0.736983 0.168361 -0.304733
N4    N     N_2   0.008004 0.236982 0.831617 -0.304733
C55   C     C_R   0.828214 0.618749 0.241812 -0.092279
C56   C     C_R   0.171789 0.118751 0.758208 -0.092330
H17   H     H_    0.897014 0.736751 0.464461 0.139447
H18   H     H_    0.103000 0.236753 0.535561 0.139466
H19   H     H_    0.062125 0.822459 0.594575 0.122234
H20   H     H_    0.937882 0.322457 0.405412 0.122238
H21   H     H_    0.155492 0.890790 0.569269 0.131404
H22   H     H_    0.844514 0.390790 0.430723 0.131402
C57   C     C_R   0.872559 0.616368 0.079168 -0.161213
C58   C     C_R   0.127438 0.116371 0.920837 -0.161117
C59   C     C_R   0.925502 0.655768 0.056972 -0.180032
C60   C     C_R   0.074492 0.155770 0.943017 -0.180002
H23   H     H_    0.866883 0.583209 0.969145 0.163412
H24   H     H_    0.133112 0.083213 0.030858 0.163398
H25   H     H_    0.076571 0.796471 0.977879 0.135628
H26   H     H_    0.923425 0.296471 0.022099 0.135630
H27   H     H_    0.959010 0.652317 0.930930 0.134405
H28   H     H_    0.040980 0.152321 0.069048 0.134405
H29   H     H_    0.169421 0.864670 0.951724 0.132742
H30   H     H_    0.830574 0.364670 0.048258 0.132745
C61   C     C_2   0.792087 0.672872 0.551473 0.368328
H31   H     H_    0.764663 0.713776 0.565034 0.031072
O21   O     O_2   0.788217 0.637227 0.682916 -0.514626
C62   C     C_2   0.207946 0.172878 0.448617 0.368406
H32   H     H_    0.235438 0.213750 0.435240 0.031036
O22   O     O_2   0.211768 0.137272 0.317040 -0.514636

loop_
_geom_bond_atom_site_label_1
_geom_bond_atom_site_label_2
_ccdc_geom_bond_type
C9    C25   A    
C5    C55   S    
C10   C26   A    
O11   V3    S    
C29   H15   S    
O13   V3    S    
C14   C36   A    
C11   C31   A    
O4    C2    A    
V1    O19   S    
C17   C19   A    
O9    V1    S    
C9    H5    S    
C10   H6    S    
O16   C6    A    
C44   C46   A    
C60   H28   S    
O3    C1    A    
C44   N2    S    
C38   C40   A    
C4    C37   S    
C54   N4    S    
C28   C30   A    
C15   H13   S    
C21   C35   A    
C15   C17   A    
O9    C5    A    
O7    C3    A    
C50   H18   S    
C22   C30   A    
H4    C28   S    
C23   C31   A    
O7    V1    S    
O6    C8    A    
O8    V2    S    
C19   C21   A    
N2    N4    D    
C20   C22   A    
O3    V1    S    
O14   V4    S    
C49   C51   A    
C12   C32   A    
O14   V2    S    
C45   H19   S    
C9    C33   A    
C23   C25   A    
C46   H20   S    
C2    O12   A    
O5    C7    A    
C57   C59   A    
C18   H12   S    
C10   C34   A    
C41   C43   A    
C14   C16   A    
C50   C54   A    
C40   H30   S    
C45   C47   A    
O17   V3    S    
C24   C26   A    
C56   C58   A    
C2    C11   S    
C42   H26   S    
C40   C42   A    
O8    C4    A    
C39   C41   A    
C1    O11   A    
C24   C32   A    
O15   V3    S    
C30   H16   S    
C58   H24   S    
C8    C36   S    
C1    C12   S    
C7    C35   S    
C52   C62   S    
C48   H22   S    
C31   H7    S    
C50   C52   A    
C47   H21   S    
C13   C35   A    
C43   N1    S    
O10   V2    S    
O1    V3    S    
C37   C39   A    
C20   C24   A    
C14   H10   S    
C13   C15   A    
C17   H11   S    
C61   O21   D    
C43   C45   A    
O18   V4    S    
C42   C44   A    
O15   C5    A    
C51   C61   S    
O1    C3    A    
C11   C33   A    
C62   O22   D    
C53   N3    S    
C16   H14   S    
C22   C36   A    
C52   C56   A    
V2    O20   S    
C38   C48   A    
C3    C38   S    
O16   V4    S    
C49   H17   S    
C6    C56   S    
C57   H23   S    
C12   C34   A    
C61   H31   S    
N1    N3    D    
O5    V1    S    
O17   C7    A    
C55   C57   A    
O10   C6    A    
O18   C8    A    
C32   H8    S    
O2    V4    S    
C25   C27   A    
C54   C60   A    
V3    O19   S    
V4    O20   S    
C58   C60   A    
O6    V2    S    
C19   C23   A    
C39   H29   S    
C18   C20   A    
O13   V1    S    
C26   C28   A    
C46   C48   A    
C49   C53   A    
O2    C4    A    
C27   C29   A    
C59   H27   S    
O4    V2    S    
C16   C18   A    
C21   C29   A    
C37   C47   A    
C13   H9    S    
C41   H25   S    
H1    C33   S    
C51   C55   A    
C62   H32   S    
H2    C34   S    
O12   V4    S    
H3    C27   S    
C53   C59   A    
