data_mof_unit_30759.cif
_audit_creation_date              2012-10-26T19:15:28-0400
_audit_creation_method            fapswitch 2.2
_symmetry_space_group_name_H-M    P1
_symmetry_Int_Tables_number       1
_space_group_crystal_system       triclinic
_cell_length_a                    15.981176
_cell_length_b                    10.8272
_cell_length_c                    9.534117
_cell_angle_alpha                 90.142709
_cell_angle_beta                  90.149075
_cell_angle_gamma                 89.941296
_cell_volume                      1649.68994928

loop_
_atom_site_label
_atom_site_type_symbol
_atom_type_description
_atom_site_fract_x
_atom_site_fract_y
_atom_site_fract_z
_atom_type_partial_charge
C1    C     C_R   0.503068 0.262229 0.499598 0.590952
C2    C     C_R   0.534689 0.933041 0.378575 -0.135441
C3    C     C_R   0.511144 0.870224 0.500857 -0.009971
C4    C     C_R   0.341282 0.499565 0.499810 0.561335
C5    C     C_R   0.501954 0.936777 0.624846 -0.036348
C6    C     C_3   0.435449 0.930777 0.734208 -0.225448
C7    C     C_3   0.436476 0.071711 0.734850 0.144539
C8    C     C_R   0.536040 0.594948 0.074028 0.157692
C9    C     C_R   0.457178 0.413179 0.073994 -0.003951
C10   C     C_R   0.457130 0.413303 0.925038 -0.018009
C11   C     C_R   0.535817 0.595098 0.926612 0.155268
C12   C     C_R   0.044318 0.523748 0.630051 0.122553
C13   C     C_3   0.624939 0.634852 0.920543 -0.275244
C14   C     C_3   0.625455 0.634079 0.079817 -0.281345
C15   C     C_R   0.501743 0.737574 0.500171 0.550040
C16   C     C_R   0.658741 0.500026 0.500273 0.537787
C17   C     C_R   0.956433 0.521669 0.631043 0.325562
C18   C     C_R   0.912608 0.495053 0.506368 0.010414
C19   C     C_R   0.956038 0.466157 0.383482 -0.172573
C20   C     C_R   0.043171 0.465922 0.383004 -0.144213
C21   C     C_R   0.087470 0.495139 0.505300 -0.003404
C22   C     C_3   0.899658 0.446571 0.831518 0.002766
C23   C     C_1   0.822987 0.497399 0.503397 -0.035549
C24   C     C_3   0.866350 0.483338 0.974982 -0.365902
C25   C     C_3   0.301218 0.130056 0.788332 -0.008117
C26   C     C_3   0.228271 0.209246 0.738904 -0.362731
C27   C     C_1   0.177098 0.496603 0.501348 -0.068766
C28   C     C_1   0.252161 0.498119 0.499729 -0.033326
C29   C     C_1   0.747900 0.498906 0.501315 -0.031617
C30   C     C_R   0.502492 0.063536 0.623930 0.013884
C31   C     C_R   0.513302 0.128875 0.499022 0.059055
C32   C     C_R   0.536829 0.062648 0.376447 0.065280
Cu1   Cu    Cu3+1 0.500000 0.499980 0.640670 0.947941
Cu2   Cu    Cu3+1 0.500000 0.500020 0.359330 0.953047
H1    H     H_    0.461252 0.114597 0.832908 0.093126
H2    H     H_    0.548665 0.881860 0.283700 0.123242
H3    H     H_    0.376451 0.889394 0.693618 0.153291
H4    H     H_    0.459033 0.890201 0.833752 0.097127
H5    H     H_    0.125823 0.632404 0.736202 0.235121
H6    H     H_    0.127560 0.481512 0.782846 0.212696
H7    H     H_    0.958388 0.392667 0.847946 0.133758
H8    H     H_    0.852400 0.386779 0.778802 0.124056
H9    H     H_    0.808304 0.538651 0.963336 0.154940
H10   H     H_    0.852232 0.399347 0.037156 0.084984
H11   H     H_    0.913809 0.539263 0.031913 0.166500
H12   H     H_    0.423810 0.341540 0.129426 0.132023
H13   H     H_    0.617610 0.168221 0.268059 0.230085
H14   H     H_    0.568829 0.063264 0.167597 0.210130
H15   H     H_    0.326264 0.171979 0.886652 0.104078
H16   H     H_    0.277537 0.035727 0.811520 0.133927
H17   H     H_    0.201518 0.170804 0.640443 0.165234
H18   H     H_    0.178799 0.211364 0.820448 0.089547
H19   H     H_    0.249994 0.305059 0.719653 0.160806
H20   H     H_    0.423632 0.342219 0.868659 0.128364
H21   H     H_    0.666356 0.563396 0.873826 0.159082
H22   H     H_    0.631679 0.728844 0.875324 0.130539
H23   H     H_    0.667263 0.562004 0.124455 0.152696
H24   H     H_    0.632963 0.727599 0.126440 0.117948
H25   H     H_    0.922436 0.444431 0.287755 0.116487
H26   H     H_    0.076059 0.443872 0.286863 0.129164
N1    N     N_R   0.500520 0.500930 0.147930 -0.228825
N2    N     N_R   0.500520 0.500890 0.852020 -0.232608
N3    N     N_3   0.088412 0.555326 0.756318 -0.601178
N4    N     N_3   0.559795 0.125930 0.249828 -0.610512
O1    O     O_R   0.500000 0.319640 0.618810 -0.499367
O2    O     O_3   0.362160 0.124927 0.681480 -0.541931
O3    O     O_R   0.500010 0.319680 0.381230 -0.477241
O4    O     O_R   0.380300 0.499950 0.618760 -0.495713
O5    O     O_R   0.380310 0.499990 0.381180 -0.493378
O6    O     O_R   0.499990 0.680320 0.618770 -0.498414
O7    O     O_R   0.500000 0.680360 0.381190 -0.506013
O8    O     O_R   0.619690 0.500010 0.618820 -0.501993
O9    O     O_R   0.619700 0.500050 0.381240 -0.506677
O10   O     O_3   0.913811 0.554207 0.751707 -0.531258

loop_
_geom_bond_atom_site_label_1
_geom_bond_atom_site_label_2
_ccdc_geom_bond_type
C12   C17   A    
Cu2   O3    S    
C1    O1    A    
H13   N4    S    
C6    H4    S    
C6    C7    S    
C1    O3    A    
C12   C21   A    
C26   H18   S    
C20   H26   S    
C15   O7    A    
C9    C10   A    
C31   C32   A    
C16   O8    A    
C8    N1    A    
C13   H22   S    
C11   N2    A    
C19   C20   A    
C17   C18   A    
C21   C27   S    
C6    H3    S    
Cu1   O1    S    
C9    H12   S    
C7    C30   S    
C22   H8    S    
C26   H17   S    
C25   C26   S    
C7    O2    S    
C11   C13   S    
Cu2   O5    S    
C10   N2    A    
H6    N3    S    
C7    H1    S    
Cu1   O6    S    
C8    C11   A    
C9    N1    A    
C24   H11   S    
C23   C29   T    
C4    O5    A    
C4    C28   S    
C24   H10   S    
Cu1   Cu2   S    
C2    C3    A    
C5    C6    S    
C10   H20   S    
C13   C14   S    
C22   C24   S    
H14   N4    S    
C22   H7    S    
C24   H9    S    
C22   O10   S    
Cu2   O9    S    
C18   C23   S    
C15   O6    A    
C26   H19   S    
C3    C5    A    
C1    C31   S    
H5    N3    S    
C20   C21   A    
C32   N4    S    
C2    C32   A    
C5    C30   A    
Cu1   N2    S    
C2    H2    S    
C27   C28   T    
C12   N3    S    
C14   H23   S    
C30   C31   A    
C18   C19   A    
C3    C15   S    
C17   O10   S    
C8    C14   S    
Cu1   O8    S    
C19   H25   S    
C16   C29   S    
C25   H16   S    
C4    O4    A    
Cu2   O7    S    
Cu2   N1    S    
C25   O2    S    
C16   O9    A    
C14   H24   S    
Cu1   O4    S    
C13   H21   S    
C25   H15   S    
