data_mof_unit_45529.cif
_audit_creation_date              2013-03-05T15:48:50-0500
_audit_creation_method            fapswitch 2.2
_symmetry_space_group_name_H-M    P1
_symmetry_Int_Tables_number       1
_space_group_crystal_system       triclinic
_cell_length_a                    17.548089
_cell_length_b                    24.271634
_cell_length_c                    14.983143
_cell_angle_alpha                 89.95914
_cell_angle_beta                  125.713238
_cell_angle_gamma                 89.968992
_cell_volume                      5181.55288579

loop_
_atom_site_label
_atom_site_type_symbol
_atom_site_description
_atom_site_fract_x
_atom_site_fract_y
_atom_site_fract_z
_atom_type_partial_charge
C1    C     C_R   0.901656 0.876685 0.092150 -0.113858
C2    C     C_R   0.901767 0.123125 0.092378 -0.102314
C3    C     C_R   0.401656 0.376684 0.092149 -0.113860
C4    C     C_R   0.401767 0.623124 0.092378 -0.102317
H1    H     H_    0.930527 0.868765 0.177117 0.091629
H2    H     H_    0.930766 0.130762 0.177472 0.122538
H3    H     H_    0.430527 0.368764 0.177116 0.091628
H4    H     H_    0.430766 0.630761 0.177472 0.122561
N1    N     N_R   0.950530 0.896220 0.057200 -0.047514
N2    N     N_R   0.950530 0.103780 0.057200 -0.056869
N3    N     N_R   0.450530 0.396220 0.057200 -0.047513
N4    N     N_R   0.450530 0.603780 0.057200 -0.056870
C5    C     C_R   0.809619 0.123104 0.907970 -0.111310
C6    C     C_R   0.809606 0.876939 0.907767 -0.111941
C7    C     C_R   0.309619 0.623103 0.907970 -0.111315
C8    C     C_R   0.309606 0.376938 0.907767 -0.111944
N5    N     N_R   0.893330 0.103780 0.942800 -0.054547
N6    N     N_R   0.893330 0.896220 0.942800 -0.053373
N7    N     N_R   0.393330 0.603780 0.942800 -0.054547
N8    N     N_R   0.393330 0.396220 0.942800 -0.053373
C9    C     C_R   0.746577 0.954761 0.693594 -0.122087
C10   C     C_R   0.747433 0.046285 0.694786 -0.098621
C11   C     C_R   0.246579 0.454761 0.693593 -0.122079
C12   C     C_R   0.247434 0.546284 0.694784 -0.098631
H5    H     H_    0.732013 0.912291 0.667058 0.098828
H6    H     H_    0.736912 0.088950 0.669620 0.091137
H7    H     H_    0.232016 0.412291 0.667059 0.098819
H8    H     H_    0.236912 0.588949 0.669619 0.091142
N9    N     N_R   0.818150 0.971400 0.792440 -0.033967
N10   N     N_R   0.818150 0.028600 0.792440 -0.034919
N11   N     N_R   0.318150 0.471400 0.792440 -0.033967
N12   N     N_R   0.318150 0.528600 0.792440 -0.034918
C13   C     C_R   0.049845 0.045608 0.304943 0.004850
C14   C     C_R   0.047926 0.953958 0.303843 -0.114976
C15   C     C_R   0.549844 0.545607 0.304944 0.004862
C16   C     C_R   0.547923 0.453957 0.303839 -0.114980
H9    H     H_    0.063045 0.088093 0.331169 0.092562
H10   H     H_    0.059744 0.911319 0.329127 0.123259
H11   H     H_    0.563045 0.588092 0.331174 0.092605
H12   H     H_    0.559740 0.411318 0.329120 0.123275
N13   N     N_R   0.025710 0.028600 0.207560 -0.052697
N14   N     N_R   0.025710 0.971400 0.207560 -0.044644
N15   N     N_R   0.525710 0.528600 0.207560 -0.052701
N16   N     N_R   0.525710 0.471400 0.207560 -0.044646
C17   C     C_R   0.812497 0.863818 0.999927 0.093117
C18   C     C_R   0.812623 0.136088 0.000282 0.114149
C19   C     C_R   0.312497 0.363818 0.999926 0.093115
C20   C     C_R   0.312622 0.636087 0.000282 0.114155
C21   C     C_R   0.701055 0.000945 0.630711 0.019922
C22   C     C_R   0.201058 0.500944 0.630708 0.019915
C23   C     C_R   0.064285 0.999637 0.367057 0.083736
C24   C     C_R   0.564279 0.499635 0.367054 0.083690
C25   C     C_R   0.268673 0.953982 0.251604 -0.032320
C26   C     C_R   0.267684 0.046576 0.250816 -0.002464
C27   C     C_R   0.768674 0.453982 0.251611 -0.032347
C28   C     C_R   0.767685 0.546576 0.250819 -0.002448
H13   H     H_    0.290590 0.911420 0.267412 0.124758
H14   H     H_    0.287173 0.089415 0.264889 0.085770
H15   H     H_    0.790590 0.411420 0.267423 0.124759
H16   H     H_    0.787174 0.589415 0.264894 0.085782
N17   N     N_R   0.181850 0.971400 0.207560 -0.040068
N18   N     N_R   0.181850 0.028600 0.207560 -0.043708
N19   N     N_R   0.681850 0.471400 0.207560 -0.040077
N20   N     N_R   0.681850 0.528600 0.207560 -0.043712
C29   C     C_R   0.020826 0.046005 0.753003 -0.112475
C30   C     C_R   0.020401 0.953583 0.753127 -0.108438
C31   C     C_R   0.520829 0.546004 0.753006 -0.112479
C32   C     C_R   0.520407 0.453582 0.753136 -0.108451
H17   H     H_    0.026407 0.088593 0.737022 0.129048
H18   H     H_    0.025530 0.910823 0.738204 0.122207
H19   H     H_    0.526408 0.588591 0.737018 0.129046
H20   H     H_    0.525546 0.410821 0.738229 0.122231
N21   N     N_R   0.974290 0.028600 0.792440 -0.055111
N22   N     N_R   0.974290 0.971400 0.792440 -0.056102
N23   N     N_R   0.474290 0.528600 0.792440 -0.055108
N24   N     N_R   0.474290 0.471400 0.792440 -0.056104
C33   C     C_R   0.056493 0.847426 0.908637 -0.035922
C34   C     C_R   0.056532 0.152474 0.908246 -0.035607
C35   C     C_R   0.556491 0.347425 0.908638 -0.035931
C36   C     C_R   0.556533 0.652474 0.908246 -0.035606
H21   H     H_    0.013423 0.834471 0.823807 0.090218
H22   H     H_    0.013750 0.165302 0.823257 0.098687
H23   H     H_    0.513418 0.334469 0.823808 0.090210
H24   H     H_    0.513751 0.665301 0.823256 0.098689
N25   N     N_R   0.049470 0.896220 0.942800 -0.045160
N26   N     N_R   0.049470 0.103780 0.942800 -0.044519
N27   N     N_R   0.549470 0.396220 0.942800 -0.045159
N28   N     N_R   0.549470 0.603780 0.942800 -0.044518
C37   C     C_R   0.148924 0.152316 0.091202 -0.156955
C38   C     C_R   0.149388 0.847774 0.091605 -0.156242
C39   C     C_R   0.648925 0.652316 0.091202 -0.156956
C40   C     C_R   0.649387 0.347774 0.091606 -0.156232
H25   H     H_    0.191425 0.165214 0.176057 0.097699
H26   H     H_    0.192552 0.835092 0.176669 0.116340
H27   H     H_    0.691426 0.665214 0.176058 0.097705
H28   H     H_    0.692552 0.335092 0.176669 0.116330
N29   N     N_R   0.106670 0.103780 0.057200 -0.041941
N30   N     N_R   0.106670 0.896220 0.057200 -0.041670
N31   N     N_R   0.606670 0.603780 0.057200 -0.041941
N32   N     N_R   0.606670 0.396220 0.057200 -0.041665
Ni1   Ni    Ni4+2 0.065600 0.934400 0.131190 0.262265
Ni2   Ni    Ni4+2 0.065600 0.065600 0.131190 0.243535
Ni3   Ni    Ni4+2 0.565600 0.434400 0.131190 0.262257
Ni4   Ni    Ni4+2 0.565600 0.565600 0.131190 0.243541
Ni5   Ni    Ni4+2 0.934400 0.065600 0.868810 0.224264
Ni6   Ni    Ni4+2 0.934400 0.934400 0.868810 0.219403
Ni7   Ni    Ni4+2 0.434400 0.565600 0.868810 0.224264
Ni8   Ni    Ni4+2 0.434400 0.434400 0.868810 0.219400
C41   C     C_R   0.324774 0.000499 0.282656 -0.017204
C42   C     C_R   0.824775 0.500498 0.282660 -0.017208
C43   C     C_R   0.050390 0.999604 0.726653 0.115660
C44   C     C_R   0.550394 0.499601 0.726658 0.115664
C45   C     C_R   0.118393 0.816043 0.000064 0.031561
C46   C     C_R   0.118143 0.183928 0.999475 0.032026
C47   C     C_R   0.618390 0.316042 0.000064 0.031562
C48   C     C_R   0.618144 0.683928 0.999475 0.032026
C49   C     C_3   0.963134 0.003211 0.428584 0.238509
C50   C     C_3   0.108764 0.944165 0.533465 0.173017
C51   C     C_3   0.463132 0.503228 0.428587 0.238506
C52   C     C_3   0.608732 0.444154 0.533438 0.173072
C53   C     C_3   0.960337 0.001748 0.528694 -0.504180
C54   C     C_3   0.111704 0.946314 0.638054 -0.421239
C55   C     C_3   0.460338 0.501783 0.528700 -0.504165
C56   C     C_3   0.611638 0.446289 0.638005 -0.421279
H29   H     H_    0.922019 0.038224 0.529053 0.212429
H30   H     H_    0.184938 0.945623 0.713913 0.244009
H31   H     H_    0.422074 0.538283 0.529080 0.212436
H32   H     H_    0.684860 0.445552 0.713884 0.244041
H33   H     H_    0.085023 0.088969 0.639606 0.201492
H34   H     H_    0.190494 0.048977 0.720886 0.216823
H35   H     H_    0.585144 0.588957 0.639718 0.201469
H36   H     H_    0.690561 0.548911 0.720914 0.216835
C57   C     C_3   0.125151 0.048817 0.544411 -0.307930
C58   C     C_3   0.625177 0.548802 0.544429 -0.307923
C59   C     C_3   0.067417 0.999560 0.467204 -0.022720
C60   C     C_3   0.567413 0.499557 0.467202 -0.022737
C61   C     C_3   0.061354 0.999304 0.636719 0.177436
C62   C     C_3   0.561354 0.499300 0.636721 0.177422
C63   C     C_3   0.118763 0.049641 0.642471 -0.315451
C64   C     C_3   0.618821 0.549615 0.642514 -0.315375
C65   C     C_3   0.652596 0.180576 0.894034 0.237956
C66   C     C_3   0.652181 0.819595 0.893515 0.236588
C67   C     C_3   0.152595 0.680574 0.894037 0.237961
C68   C     C_3   0.152181 0.319594 0.893514 0.236585
H37   H     H_    0.653970 0.187744 0.821594 0.087988
H38   H     H_    0.653392 0.812895 0.820863 0.091408
H39   H     H_    0.153967 0.687742 0.821595 0.087998
H40   H     H_    0.153392 0.312894 0.820863 0.091406
C69   C     C_3   0.097667 0.729380 0.896768 -0.462363
C70   C     C_3   0.097495 0.270540 0.895851 -0.449831
C71   C     C_3   0.597666 0.229381 0.896764 -0.462372
C72   C     C_3   0.597495 0.770540 0.895852 -0.449835
H41   H     H_    0.538820 0.214882 0.899304 0.206622
H42   H     H_    0.538156 0.784807 0.897691 0.210312
H43   H     H_    0.038823 0.714881 0.899314 0.206624
H44   H     H_    0.038156 0.284807 0.897690 0.210313
H45   H     H_    0.064597 0.752587 0.818753 0.181505
H46   H     H_    0.065098 0.247339 0.818027 0.188824
H47   H     H_    0.564601 0.252589 0.818751 0.181503
H48   H     H_    0.565099 0.747340 0.818027 0.188826
C73   C     C_3   0.303793 0.735043 0.001190 -0.572323
C74   C     C_3   0.303344 0.264852 0.000182 -0.568045
C75   C     C_3   0.803794 0.235044 0.001194 -0.572325
C76   C     C_3   0.803344 0.764852 0.000181 -0.568044
C77   C     C_3   0.756490 0.180057 0.104245 -0.278209
C78   C     C_3   0.756483 0.819620 0.103795 -0.343673
C79   C     C_3   0.256494 0.680058 0.104248 -0.278202
C80   C     C_3   0.256482 0.319620 0.103794 -0.343675
C81   C     C_3   0.755989 0.180894 0.000049 0.094249
C82   C     C_3   0.755718 0.819034 0.999442 0.130797
C83   C     C_3   0.255989 0.680894 0.000049 0.094238
C84   C     C_3   0.255717 0.319034 0.999442 0.130801
H49   H     H_    0.829269 0.183695 0.179903 0.174404
H50   H     H_    0.829306 0.815387 0.179197 0.148098
H51   H     H_    0.329273 0.683697 0.179904 0.174421
H52   H     H_    0.329304 0.315388 0.179197 0.148097
H53   H     H_    0.728375 0.140694 0.111452 0.245035
H54   H     H_    0.729150 0.859119 0.111820 0.219362
H55   H     H_    0.228379 0.640696 0.111458 0.245039
H56   H     H_    0.229148 0.359119 0.111818 0.219360
C85   C     C_3   0.165024 0.765935 0.999243 0.139638
C86   C     C_3   0.164766 0.234005 0.998583 0.139217
C87   C     C_3   0.665021 0.265934 0.999243 0.139645
C88   C     C_3   0.664766 0.734005 0.998583 0.139216
C89   C     C_3   0.251995 0.785100 0.003236 0.282229
C90   C     C_3   0.251970 0.214817 0.003024 0.281342
C91   C     C_3   0.751996 0.285101 0.003243 0.282229
C92   C     C_3   0.751971 0.714817 0.003024 0.281338
C93   C     C_3   0.200066 0.729272 0.101893 -0.462053
C94   C     C_3   0.199442 0.270699 0.100966 -0.446330
C95   C     C_3   0.700060 0.229269 0.101889 -0.462047
C96   C     C_3   0.699443 0.770698 0.100967 -0.446325
H57   H     H_    0.639521 0.214243 0.100609 0.211880
H58   H     H_    0.638690 0.786018 0.098999 0.207676
H59   H     H_    0.139530 0.714247 0.100618 0.211878
H60   H     H_    0.138689 0.286018 0.098999 0.207674
H61   H     H_    0.246593 0.752697 0.179395 0.174322
H62   H     H_    0.245492 0.247248 0.178664 0.156796
H63   H     H_    0.746584 0.252693 0.179393 0.174314
H64   H     H_    0.745493 0.747248 0.178665 0.156798
H65   H     H_    0.378160 0.736417 0.074964 0.170338
H66   H     H_    0.377925 0.263387 0.073473 0.172066
H67   H     H_    0.878161 0.236418 0.074969 0.170334
H68   H     H_    0.877925 0.763388 0.073471 0.172067
H69   H     H_    0.300998 0.806389 0.083470 0.075899
H70   H     H_    0.301098 0.193777 0.083649 0.072739
H71   H     H_    0.800998 0.306387 0.083480 0.075893
H72   H     H_    0.801099 0.693778 0.083648 0.072741
C97   C     C_3   0.480018 0.959978 0.348617 -0.347282
C98   C     C_3   0.469143 0.058574 0.382889 -0.409394
C99   C     C_3   0.980014 0.459967 0.348628 -0.347283
C100  C     C_3   0.969150 0.558569 0.382868 -0.409380
H73   H     H_    0.449076 0.918116 0.326892 0.196015
H74   H     H_    0.435102 0.091721 0.398876 0.197195
H75   H     H_    0.949069 0.418106 0.326916 0.196013
H76   H     H_    0.935113 0.591725 0.398841 0.197193
H77   H     H_    0.475909 0.974370 0.275334 0.188913
H78   H     H_    0.459724 0.069536 0.304820 0.186034
H79   H     H_    0.975905 0.474349 0.275340 0.188910
H80   H     H_    0.959733 0.569519 0.304795 0.186039
C101  C     C_3   0.583877 0.957447 0.448345 -0.380188
C102  C     C_3   0.573559 0.058690 0.477485 -0.377653
C103  C     C_3   0.083873 0.457437 0.448354 -0.380203
C104  C     C_3   0.073567 0.558685 0.477465 -0.377646
H81   H     H_    0.599623 0.915429 0.484551 0.191301
H82   H     H_    0.584993 0.091451 0.535980 0.186337
H83   H     H_    0.099614 0.415421 0.484573 0.191295
H84   H     H_    0.085003 0.591453 0.535950 0.186335
H85   H     H_    0.568323 0.948449 0.624022 0.216035
H86   H     H_    0.561229 0.018784 0.643317 0.238421
H87   H     H_    0.068322 0.448463 0.624033 0.216042
H88   H     H_    0.061238 0.518801 0.643315 0.238412
C105  C     C_3   0.438827 0.986133 0.484900 0.526275
C106  C     C_3   0.938829 0.486149 0.484907 0.526268
C107  C     C_3   0.425678 0.000773 0.372942 0.091864
C108  C     C_3   0.925679 0.500773 0.372943 0.091878
C109  C     C_3   0.603053 0.001432 0.534386 0.243192
C110  C     C_3   0.103056 0.501431 0.534383 0.243197
C111  C     C_3   0.544723 0.988363 0.578947 -0.439989
C112  C     C_3   0.044726 0.488375 0.578951 -0.439995
H89   H     H_    0.925701 0.965732 0.378676 0.061589
H90   H     H_    0.059137 0.910387 0.481837 0.050693
H91   H     H_    0.425684 0.465749 0.378688 0.061602
H92   H     H_    0.559102 0.410382 0.481783 0.050664
H93   H     H_    0.919835 0.964866 0.522808 0.146211
H94   H     H_    0.077270 0.908313 0.639230 0.165424
H95   H     H_    0.419786 0.464925 0.522798 0.146226
H96   H     H_    0.577128 0.408304 0.639101 0.165326
H97   H     H_    0.099655 0.088901 0.501227 0.193338
H98   H     H_    0.199470 0.046473 0.573781 0.240081
H99   H     H_    0.599688 0.588892 0.501266 0.193360
H100  H     H_    0.699489 0.546451 0.573771 0.240096
N33   N     N_R   0.605028 0.127873 0.878001 0.253794
O1    O     O_R   0.582918 0.096378 0.795929 -0.346810
O2    O     O_R   0.580028 0.113231 0.941021 -0.349305
N34   N     N_R   0.604282 0.872142 0.878162 0.258244
O3    O     O_R   0.579330 0.903307 0.794539 -0.347786
O4    O     O_R   0.580173 0.886420 0.942190 -0.348490
N35   N     N_R   0.105028 0.627872 0.878009 0.253794
O5    O     O_R   0.082916 0.596375 0.795937 -0.346804
O6    O     O_R   0.080031 0.613231 0.941031 -0.349309
N36   N     N_R   0.104282 0.372141 0.878160 0.258245
O7    O     O_R   0.079330 0.403306 0.794535 -0.347778
O8    O     O_R   0.080173 0.386421 0.942187 -0.348484
H101  H     H_    0.306206 0.736668 0.928590 0.214913
H102  H     H_    0.305056 0.263273 0.927089 0.210465
H103  H     H_    0.806208 0.236671 0.928595 0.214914
H104  H     H_    0.805055 0.763274 0.927087 0.210466
H105  H     H_    0.753534 0.130614 0.822857 0.113282
H106  H     H_    0.753597 0.869592 0.822596 0.113483
H107  H     H_    0.253533 0.630613 0.822857 0.113284
H108  H     H_    0.253597 0.369592 0.822595 0.113482
N37   N     N_R   0.227921 0.824129 0.915107 0.240242
O9    O     O_R   0.179405 0.808648 0.812773 -0.432296
O10   O     O_R   0.258958 0.874478 0.939827 -0.385441
N38   N     N_R   0.228378 0.175504 0.915631 0.237568
O11   O     O_R   0.179727 0.190642 0.813017 -0.434362
O12   O     O_R   0.259902 0.125230 0.941281 -0.391357
N39   N     N_R   0.727926 0.324132 0.915118 0.240244
O13   O     O_R   0.679412 0.308654 0.812783 -0.432291
O14   O     O_R   0.758965 0.374480 0.939846 -0.385441
N40   N     N_R   0.728378 0.675504 0.915630 0.237568
O15   O     O_R   0.679727 0.690642 0.813016 -0.434355
O16   O     O_R   0.759904 0.625230 0.941281 -0.391350
H109  H     H_    0.629901 0.964821 0.421009 0.168566
H110  H     H_    0.615812 0.069165 0.446240 0.174890
H111  H     H_    0.129896 0.464801 0.421014 0.168564
H112  H     H_    0.115821 0.569151 0.446217 0.174889
N41   N     N_R   0.406118 0.929408 0.483493 0.217779
O17   O     O_R   0.446795 0.886690 0.475707 -0.444816
O18   O     O_R   0.348565 0.920452 0.509781 -0.239669
N42   N     N_R   0.387291 0.026827 0.505845 0.242109
O19   O     O_R   0.297979 0.020929 0.460523 -0.368138
O20   O     O_R   0.426023 0.073187 0.555819 -0.381773
N43   N     N_R   0.906111 0.429429 0.483520 0.217787
O21   O     O_R   0.946769 0.386703 0.475727 -0.444807
O22   O     O_R   0.848587 0.420488 0.509856 -0.239611
N44   N     N_R   0.887303 0.526855 0.505844 0.242094
O23   O     O_R   0.797995 0.520960 0.460543 -0.368179
O24   O     O_R   0.926041 0.573219 0.555791 -0.381811
N45   N     N_R   0.912156 0.051503 0.359036 0.239178
O25   O     O_R   0.930506 0.101011 0.399946 -0.432422
O26   O     O_R   0.842651 0.044427 0.256377 -0.400371
N46   N     N_R   0.201029 0.929456 0.560117 0.278357
O27   O     O_R   0.275311 0.958238 0.630162 -0.284635
O28   O     O_R   0.211593 0.881813 0.528850 -0.335886
N47   N     N_R   0.412168 0.551520 0.359030 0.239167
O29   O     O_R   0.430549 0.601033 0.399926 -0.432438
O30   O     O_R   0.342647 0.544443 0.256378 -0.400379
N48   N     N_R   0.701007 0.429443 0.560120 0.278357
O31   O     O_R   0.775296 0.458204 0.630233 -0.284668
O32   O     O_R   0.711566 0.381812 0.528807 -0.335914

loop_
_geom_bond_atom_site_label_1
_geom_bond_atom_site_label_2
_geom_bond_distance
_ccdc_geom_bond_type
N23   N24   1.388337 A    
N23   Ni7   1.881943 S    
C27   H15   1.078924 S    
C66   H38   1.113140 S    
C14   N14   1.324658 A    
C58   H100  1.107976 S    
C17   C82   1.472103 S    
C35   N27   1.324438 A    
N45   O25   1.301688 A    
C55   C62   1.554253 S    
C75   H67   1.114457 S    
N40   O15   1.301597 A    
N4    Ni4   1.883679 S    
C90   N38   1.471666 S    
C25   C41   1.388362 A    
C101  H81   1.111137 S    
C80   C94   1.538000 S    
N21   N22   1.388337 A    
H35   C64   1.110523 S    
C76   H68   1.114461 S    
N48   O31   1.301367 A    
C36   C48   1.377401 A    
C4    N4    1.325501 A    
C65   H37   1.113197 S    
C66   C82   1.566401 S    
C71   H41   1.112613 S    
C106  C108  1.593936 S    
C33   C45   1.377341 A    
C104  H84   1.112014 S    
C6    C17   1.388617 A    
C77   C81   1.556190 S    
C110  C112  1.546622 S    
N3    N8    1.391742 A    
C78   H50   1.110919 S    
C44   C62   1.468165 S    
N2    Ni2   1.883679 S    
C21   C109  1.463872 S    
C79   C83   1.556187 S    
C100  H80   1.113616 S    
N35   O6    1.301389 A    
C80   H56   1.109343 S    
C9    N9    1.328070 A    
C97   H73   1.108109 S    
C101  C109  1.552677 S    
C11   N11   1.328069 A    
N15   N16   1.388337 A    
C97   C107  1.558130 S    
C61   C63   1.554074 S    
C34   H22   1.079442 S    
C16   H12   1.079365 S    
C32   H20   1.076546 S    
C99   C103  1.542248 S    
C65   C81   1.565405 S    
C105  N42   1.490881 S    
C98   C107  1.562339 S    
C101  H109  1.112789 S    
C62   C64   1.554077 S    
C10   C21   1.373096 A    
C57   C63   1.537521 S    
C91   N39   1.471718 S    
C16   N16   1.324642 A    
C13   C23   1.377771 A    
N44   O23   1.302225 A    
C49   C59   1.566836 S    
C43   C61   1.468157 S    
C74   C90   1.528161 S    
C93   H61   1.110357 S    
C54   C61   1.553502 S    
C76   C92   1.528158 S    
N36   O8    1.301364 A    
C51   C55   1.529529 S    
C51   C60   1.566848 S    
C97   H77   1.113474 S    
N42   O20   1.302548 A    
C105  C111  1.544324 S    
C65   N33   1.469104 S    
C36   N28   1.324561 A    
C30   H18   1.076550 S    
C96   H64   1.110198 S    
C69   H43   1.112612 S    
N28   N31   1.391742 A    
C3    N3    1.326272 A    
C31   C44   1.390183 A    
C67   C69   1.542370 S    
C102  H110  1.113031 S    
C37   N29   1.325868 A    
C57   C59   1.558529 S    
C86   C94   1.558664 S    
C104  C110  1.551937 S    
C96   H58   1.112910 S    
N8    Ni8   1.881274 S    
C98   C102  1.527859 S    
C35   C47   1.377340 A    
C77   H53   1.109251 S    
C76   C82   1.554373 S    
C9    C21   1.378850 A    
N43   O22   1.298806 A    
C14   C23   1.375910 A    
C51   N47   1.472710 S    
C74   H66   1.114462 S    
N5    Ni5   1.881667 S    
N33   O1    1.300668 A    
C103  H83   1.111140 S    
C30   N22   1.321031 A    
C40   H28   1.079353 S    
C66   N34   1.469274 S    
N13   Ni2   1.881527 S    
C50   C54   1.538446 S    
C53   C61   1.554256 S    
N26   N29   1.391742 A    
N15   Ni4   1.881527 S    
C68   C70   1.542781 S    
C25   N17   1.326884 A    
C45   C85   1.469564 S    
C73   H101  1.113682 S    
N34   O4    1.301364 A    
C28   N20   1.319310 A    
H85   C111  1.112765 S    
C15   N15   1.326047 A    
C31   H19   1.078209 S    
C16   C24   1.375906 A    
N39   O14   1.301199 A    
C33   N25   1.324438 A    
C106  N44   1.490880 S    
H86   C111  1.111027 S    
C7    C20   1.389481 A    
C8    C19   1.388616 A    
C100  C108  1.562342 S    
N16   Ni3   1.881944 S    
C12   C22   1.373100 A    
C79   C93   1.538312 S    
C90   H70   1.116290 S    
C67   N35   1.469102 S    
H87   C112  1.112767 S    
C71   H47   1.107773 S    
C56   H96   1.108697 S    
N17   Ni1   1.885628 S    
N6    Ni6   1.881274 S    
C53   H29   1.113349 S    
N9    N10   1.388337 A    
C5    H105  1.078118 S    
C20   C83   1.471451 S    
C55   H31   1.113349 S    
N11   N12   1.388337 A    
H33   C63   1.110518 S    
N41   O17   1.301808 A    
C106  C112  1.544317 S    
C41   C107  1.472721 S    
C78   C82   1.555802 S    
N10   Ni5   1.885629 S    
C24   C60   1.469120 S    
C105  N41   1.487378 S    
C31   N23   1.325842 A    
C91   H71   1.116300 S    
N25   Ni6   1.883680 S    
N14   Ni1   1.881944 S    
C57   H97   1.107265 S    
C79   H51   1.110843 S    
N27   N32   1.391742 A    
C100  C104  1.527869 S    
N20   Ni4   1.883798 S    
C9    H5    1.080833 S    
C10   N10   1.320532 A    
C52   N48   1.467216 S    
C12   H8    1.080084 S    
C72   H42   1.112685 S    
C71   C87   1.557590 S    
N36   O7    1.300614 A    
C32   N24   1.321020 A    
C99   H79   1.113475 S    
C102  C109  1.551933 S    
N40   O16   1.301201 A    
C54   H94   1.108682 S    
N21   Ni5   1.881943 S    
C106  N43   1.487377 S    
C1    C17   1.389948 A    
C48   C88   1.469916 S    
C3    C19   1.389947 A    
N37   O10   1.301197 A    
C37   H25   1.079129 S    
N17   N18   1.388337 A    
C39   H27   1.079128 S    
N19   N20   1.388337 A    
C73   C83   1.554297 S    
N1    N6    1.391742 A    
C74   C84   1.554372 S    
N38   O11   1.301594 A    
C39   N31   1.325868 A    
C50   H90   1.115408 S    
N18   Ni2   1.883798 S    
N7    Ni7   1.881667 S    
C79   H55   1.109249 S    
C97   C101  1.542254 S    
N13   N14   1.388337 A    
C36   H24   1.079442 S    
C68   N36   1.469274 S    
C70   C86   1.557151 S    
C7    N7    1.324428 A    
C76   H104  1.113643 S    
C40   N32   1.325661 A    
C1    H1    1.077452 S    
C56   C62   1.553507 S    
C3    H3    1.077450 S    
C4    C20   1.388871 A    
C80   H52   1.110919 S    
C86   C90   1.563135 S    
C66   C72   1.542783 S    
C73   C89   1.527975 S    
C85   C93   1.558469 S    
N12   Ni7   1.885629 S    
N39   O13   1.301596 A    
C88   C96   1.558667 S    
C78   H54   1.109342 S    
C30   C43   1.387681 A    
N29   Ni2   1.881271 S    
C4    H4    1.077894 S    
C56   H32   1.112821 S    
C53   H93   1.114393 S    
N31   Ni4   1.881271 S    
N24   Ni8   1.881525 S    
C69   C85   1.557588 S    
C34   C46   1.377401 A    
N44   O24   1.302552 A    
C58   H99   1.107272 S    
H34   C63   1.112873 S    
C8    H108  1.078214 S    
C42   C108  1.472718 S    
C38   H26   1.079355 S    
C92   N40   1.471669 S    
N45   O26   1.301314 A    
N47   O29   1.301700 A    
C1    N1    1.326270 A    
N19   Ni3   1.885628 S    
N43   O21   1.301812 A    
N28   Ni7   1.885531 S    
C25   H13   1.078924 S    
C11   C22   1.378852 A    
C26   N18   1.319307 A    
C46   C86   1.469917 S    
C74   H102  1.113642 S    
N32   Ni3   1.881667 S    
C2    C18   1.388872 A    
C28   H16   1.076607 S    
C52   C60   1.573493 S    
C15   H11   1.079807 S    
C95   H57   1.112906 S    
C87   C91   1.563147 S    
C93   H59   1.112908 S    
C33   H21   1.079313 S    
C94   H62   1.110196 S    
C37   C46   1.378670 A    
C92   H72   1.116293 S    
C70   H46   1.107855 S    
C75   H103  1.113683 S    
C47   C87   1.469566 S    
C6    H106  1.078215 S    
C5    N5    1.324428 A    
H36   C64   1.112878 S    
N30   Ni1   1.881667 S    
C68   C84   1.566399 S    
C13   N13   1.326039 A    
C67   C83   1.565403 S    
C35   H23   1.079314 S    
C29   H17   1.078205 S    
N4    N7    1.391742 A    
C77   C95   1.538315 S    
C78   C96   1.538000 S    
C75   C81   1.554299 S    
C40   C47   1.378849 A    
C13   H9    1.079804 S    
C80   C84   1.555802 S    
C10   H6    1.080086 S    
C49   N45   1.472701 S    
C15   C24   1.377775 A    
C69   H45   1.107772 S    
C50   C59   1.573493 S    
C99   H75   1.108110 S    
C72   H48   1.107857 S    
N11   Ni8   1.883800 S    
C6    N6    1.324332 A    
C68   H40   1.113139 S    
C12   N12   1.320536 A    
C19   C84   1.472103 S    
C39   C48   1.378671 A    
C67   H39   1.113197 S    
C73   H65   1.114456 S    
N42   O19   1.302223 A    
C95   H63   1.110358 S    
C58   C64   1.537536 S    
C5    C18   1.389479 A    
C102  H82   1.112016 S    
N2    N5    1.391742 A    
C77   H49   1.110845 S    
C29   N21   1.325828 A    
C99   C108  1.558137 S    
C75   C91   1.527974 S    
C52   H92   1.115412 S    
C38   C45   1.378849 A    
C49   C53   1.529535 S    
C29   C43   1.390172 A    
N25   N30   1.391742 A    
C23   C59   1.469119 S    
N27   Ni8   1.883680 S    
C100  H76   1.108282 S    
C11   H7    1.080833 S    
C72   C88   1.557151 S    
C8    N8    1.324332 A    
C34   N26   1.324560 A    
C70   H44   1.112684 S    
C2    H2    1.077894 S    
C7    H107  1.078119 S    
C28   C42   1.386385 A    
C89   H69   1.116300 S    
C22   C110  1.463876 S    
N33   O2    1.301390 A    
C85   C89   1.563141 S    
C58   C60   1.558522 S    
C98   H74   1.108284 S    
C88   C92   1.563136 S    
C26   C41   1.386383 A    
C27   N19   1.326881 A    
N47   O30   1.301320 A    
C54   H30   1.112812 S    
C89   N37   1.471716 S    
N22   Ni6   1.881525 S    
N34   O3    1.300617 A    
N37   O9    1.301596 A    
C50   N46   1.467204 S    
C105  C107  1.593935 S    
C103  H111  1.112792 S    
N46   O27   1.301346 A    
C104  H112  1.113031 S    
N38   O12   1.301197 A    
C109  C111  1.546623 S    
C27   C42   1.388361 A    
N9    Ni6   1.883800 S    
N26   Ni5   1.885531 S    
N35   O5    1.300667 A    
C2    N2    1.325503 A    
N48   O32   1.301154 A    
C65   C71   1.542369 S    
C26   H14   1.076610 S    
C14   H10   1.079369 S    
C103  C110  1.552682 S    
C87   C95   1.558470 S    
C94   H60   1.112908 S    
C98   H78   1.113615 S    
C18   C81   1.471450 S    
C55   H95   1.114395 S    
N46   O28   1.301143 A    
N41   O18   1.298804 A    
N1    Ni1   1.885533 S    
H88   C112  1.111028 S    
N3    Ni3   1.885533 S    
C51   H91   1.116393 S    
C57   H98   1.107966 S    
C38   N30   1.325659 A    
C32   C44   1.387670 A    
C52   C56   1.538437 S    
C49   H89   1.116387 S    
