data_mof_unit_43631.cif
_audit_creation_date              2012-12-11T14:21:02-0500
_audit_creation_method            fapswitch 2.2
_symmetry_space_group_name_H-M    P1
_symmetry_Int_Tables_number       1
_space_group_crystal_system       triclinic
_cell_length_a                    21.959313
_cell_length_b                    7.208461
_cell_length_c                    14.936514
_cell_angle_alpha                 90.157652
_cell_angle_beta                  107.003957
_cell_angle_gamma                 90.047098
_cell_volume                      2260.97325261

loop_
_atom_site_label
_atom_site_type_symbol
_atom_type_description
_atom_site_fract_x
_atom_site_fract_y
_atom_site_fract_z
_atom_type_partial_charge
O1    O     O_R   0.584770 0.505770 0.002090 -0.541858
O2    O     O_R   0.415230 0.005770 0.997910 -0.542163
O3    O     O_R   0.467060 0.173340 0.861950 -0.538997
O4    O     O_R   0.532940 0.673340 0.138050 -0.539869
C1    C     C_R   0.455122 0.343942 0.826006 0.679779
C2    C     C_R   0.544849 0.844592 0.173947 0.681212
O5    O     O_R   0.587510 0.175890 0.993210 -0.539795
O6    O     O_R   0.412490 0.675890 0.006790 -0.540081
O7    O     O_R   0.536540 0.008150 0.130100 -0.531597
O8    O     O_R   0.463460 0.508150 0.869900 -0.531593
C3    C     C_R   0.612969 0.344971 0.997454 0.737250
C4    C     C_R   0.387034 0.844876 0.002538 0.738257
O9    O     O_3   0.483140 0.340040 0.044760 -0.380420
O10   O     O_3   0.516860 0.840040 0.955240 -0.379774
V1    V     V_3+5 0.503130 0.064190 0.991700 1.444981
V2    V     V_3+5 0.496870 0.564190 0.008300 1.443611
C5    C     C_2   0.213910 0.727699 0.003147 -0.117317
C6    C     C_2   0.785970 0.227547 0.996674 -0.116931
C7    C     C_2   0.180334 0.886824 0.996298 -0.299901
C8    C     C_2   0.819676 0.386663 0.003710 -0.299392
H1    H     H_    0.190721 0.596898 0.008658 0.138883
H2    H     H_    0.809042 0.096680 0.990997 0.139373
H3    H     H_    0.201989 0.019059 0.989657 0.131567
H4    H     H_    0.798125 0.518956 0.010502 0.132783
C9    C     C_2   0.281786 0.714610 0.002910 -0.104650
C10   C     C_2   0.718090 0.214662 0.996918 -0.104954
C11   C     C_2   0.319950 0.861354 0.003517 -0.290070
C12   C     C_2   0.680060 0.361494 0.996486 -0.292480
H5    H     H_    0.300839 0.575633 0.002910 0.139570
H6    H     H_    0.698909 0.075711 0.996768 0.141638
H7    H     H_    0.302139 0.001154 0.004390 0.129391
H8    H     H_    0.697973 0.501283 0.995742 0.131113
C13   C     C_R   0.927050 0.888119 0.724134 -0.031419
C14   C     C_R   0.072781 0.391819 0.276088 -0.034470
C15   C     C_R   0.573372 0.854550 0.275191 -0.058212
C16   C     C_R   0.426705 0.350732 0.724637 -0.059362
C17   C     C_R   0.937246 0.928022 0.568954 -0.128038
C18   C     C_R   0.064733 0.467302 0.429630 -0.127941
C19   C     C_R   0.965113 0.915660 0.665191 -0.164075
C20   C     C_R   0.036123 0.443639 0.334119 -0.161076
C21   C     C_R   0.860977 0.872306 0.686913 -0.181207
C22   C     C_R   0.138251 0.362403 0.313770 -0.182344
C23   C     C_R   0.831081 0.891044 0.589537 0.080289
C24   C     C_R   0.169152 0.393061 0.410215 0.079970
C25   C     C_R   0.870790 0.917908 0.530882 0.037221
C26   C     C_R   0.130787 0.445387 0.467766 0.037027
C27   C     C_R   0.763427 0.887196 0.548884 -0.007230
C28   C     C_R   0.236649 0.378297 0.450761 -0.006688
C29   C     C_R   0.736792 0.899583 0.449302 -0.073484
C30   C     C_R   0.264226 0.407522 0.549354 -0.072708
C31   C     C_R   0.778569 0.937298 0.394681 0.589920
C32   C     C_R   0.223998 0.470712 0.602246 0.589071
C33   C     C_R   0.844056 0.942258 0.435083 -0.252233
C34   C     C_R   0.158675 0.484519 0.562107 -0.251999
C35   C     C_R   0.721501 0.878018 0.604820 -0.147967
C36   C     C_R   0.277671 0.341501 0.395421 -0.147797
C37   C     C_R   0.655984 0.877425 0.565384 -0.198033
C38   C     C_R   0.343075 0.330001 0.434604 -0.197241
C39   C     C_R   0.629360 0.876876 0.468701 0.135128
C40   C     C_R   0.370270 0.345432 0.530876 0.135057
C41   C     C_R   0.669244 0.881183 0.409066 0.102603
C42   C     C_R   0.331247 0.378536 0.590149 0.102758
C43   C     C_R   0.562806 0.869232 0.431145 -0.166508
C44   C     C_R   0.436395 0.323342 0.568538 -0.166003
C45   C     C_R   0.534950 0.860818 0.334721 -0.172063
C46   C     C_R   0.464494 0.327336 0.664961 -0.170627
C47   C     C_R   0.639652 0.860369 0.311809 -0.147369
C48   C     C_R   0.360847 0.372740 0.687951 -0.144806
H9    H     H_    0.874240 0.971061 0.390822 0.157474
H10   H     H_    0.129689 0.532793 0.605084 0.157137
H11   H     H_    0.483555 0.856325 0.306585 0.106822
H12   H     H_    0.515474 0.308440 0.693125 0.107582
H13   H     H_    0.625798 0.873598 0.611288 0.119105
H14   H     H_    0.372598 0.304062 0.389034 0.118981
H15   H     H_    0.967615 0.950144 0.524315 0.118425
H16   H     H_    0.035447 0.509025 0.473350 0.118482
H17   H     H_    0.016269 0.929868 0.693859 0.111565
H18   H     H_    0.985572 0.469412 0.305062 0.112913
H19   H     H_    0.834601 0.849015 0.736359 0.088323
H20   H     H_    0.163596 0.322251 0.265040 0.090387
H21   H     H_    0.737578 0.876560 0.680111 0.116761
H22   H     H_    0.261082 0.324912 0.320604 0.116317
H23   H     H_    0.532281 0.869067 0.476551 0.118911
H24   H     H_    0.466300 0.300195 0.523282 0.118785
O11   O     O_R   0.036450 0.233070 0.130130 -0.538590
O12   O     O_R   0.963550 0.733070 0.869870 -0.538545
O13   O     O_R   0.912470 0.560570 0.006790 -0.544459
O14   O     O_R   0.087530 0.060570 0.993210 -0.544828
C49   C     C_R   0.886986 0.391867 0.002573 0.731205
C50   C     C_R   0.113014 0.891962 0.997427 0.730341
O15   O     O_R   0.032920 0.562940 0.138050 -0.538547
O16   O     O_R   0.967080 0.062940 0.861950 -0.538265
O17   O     O_R   0.084790 0.730500 0.002090 -0.537097
O18   O     O_R   0.915210 0.230500 0.997910 -0.537220
C51   C     C_R   0.044777 0.394944 0.174505 0.682410
C52   C     C_R   0.955215 0.894299 0.825566 0.682067
O19   O     O_3   0.016820 0.396170 0.955260 -0.377804
O20   O     O_3   0.983180 0.896170 0.044740 -0.377688
V3    V     V_3+5 0.996880 0.672090 0.008300 1.427498
V4    V     V_3+5 0.003120 0.172090 0.991700 1.426794
F1    F     F_    0.757603 0.987853 0.303506 -0.706085
F2    F     F_    0.246726 0.537452 0.690675 -0.705681
H25   H     H_    0.666419 0.840106 0.262657 0.185482
H26   H     H_    0.334047 0.373459 0.737818 0.185328

loop_
_geom_bond_atom_site_label_1
_geom_bond_atom_site_label_2
_ccdc_geom_bond_type
C43   C45   A    
C22   H20   S    
C14   C22   A    
O2    C4    A    
C2    O7    A    
C47   H25   S    
C27   C29   A    
C18   H16   S    
O5    C3    A    
C32   F2    S    
C13   C19   A    
C14   C20   A    
C19   H17   S    
C16   C46   A    
C37   C39   A    
C15   C45   A    
C38   C40   A    
C1    C16   S    
O16   C52   A    
C2    C15   S    
C40   C42   A    
C37   H13   S    
C49   O18   A    
C44   H24   S    
C46   H12   S    
C8    H4    S    
C24   C26   A    
C29   C31   A    
C6    C10   S    
C30   C32   A    
C15   C47   A    
C35   H21   S    
O17   V3    S    
O5    V1    S    
C17   H15   S    
C33   H9    S    
O6    V2    S    
C21   C23   A    
C22   C24   A    
C32   C34   A    
O13   V3    S    
C9    H5    S    
C39   C41   A    
C29   C41   A    
C4    C11   S    
C11   H7    S    
C12   H8    S    
C14   C51   S    
O4    C2    A    
O16   V4    S    
C45   H11   S    
O15   C51   A    
C5    H1    S    
C43   H23   S    
C31   C33   A    
C44   C46   A    
O4    V2    S    
C7    H3    S    
O2    V1    S    
C41   C47   A    
C34   H10   S    
O18   V4    S    
O6    C4    A    
C26   C34   A    
O1    V2    S    
O12   V3    S    
C23   C25   A    
O14   V4    S    
O12   C52   A    
O14   C50   A    
C10   H6    S    
O13   C49   A    
C30   C42   A    
C20   H18   S    
C9    C11   D    
C17   C25   A    
C13   C52   S    
O19   V4    S    
O3    V1    S    
C38   H14   S    
C50   O17   A    
C27   C35   A    
C28   C36   A    
C6    H2    S    
C10   C12   D    
C48   H26   S    
O3    C1    A    
C21   H19   S    
C16   C48   A    
C36   H22   S    
C31   F1    S    
C8    C49   S    
C39   C43   A    
C42   C48   A    
C40   C44   A    
C13   C21   A    
C35   C37   A    
O7    V1    S    
C5    C9    S    
C1    O8    A    
C17   C19   A    
C7    C50   S    
O8    V2    S    
C18   C20   A    
O11   C51   A    
C3    C12   S    
C28   C30   A    
C5    C7    D    
C36   C38   A    
C6    C8    D    
C18   C26   A    
C25   C33   A    
O20   V3    S    
O9    V2    S    
O11   V4    S    
O10   V1    S    
O1    C3    A    
O15   V3    S    
C23   C27   A    
C24   C28   A    
