data_mof_unit_44580.cif
_audit_creation_date              2012-12-11T14:21:23-0500
_audit_creation_method            fapswitch 2.2
_symmetry_space_group_name_H-M    P1
_symmetry_Int_Tables_number       1
_space_group_crystal_system       triclinic
_cell_length_a                    11.564319
_cell_length_b                    11.499182
_cell_length_c                    19.520846
_cell_angle_alpha                 90.508515
_cell_angle_beta                  90.103655
_cell_angle_gamma                 59.947566
_cell_volume                      2246.81571728

loop_
_atom_site_label
_atom_site_type_symbol
_atom_type_description
_atom_site_fract_x
_atom_site_fract_y
_atom_site_fract_z
_atom_type_partial_charge
C1    C     C_R   0.640413 0.117626 0.599214 0.548126
C2    C     C_1   0.652554 0.149826 0.668713 0.003308
C3    C     C_R   0.659552 0.678001 0.191535 -0.011736
C4    C     C_R   0.612430 0.745934 0.598596 0.545441
C5    C     C_R   0.534807 0.722633 0.222943 0.026715
C6    C     C_R   0.533980 0.695438 0.292477 0.036834
C7    C     C_R   0.763009 0.651120 0.302468 -0.148067
C8    C     C_R   0.773239 0.641585 0.231930 -0.140276
C9    C     C_R   0.414784 0.775659 0.185020 -0.078737
C10   C     C_R   0.302844 0.777780 0.212584 -0.122369
C11   C     C_R   0.307857 0.731706 0.278622 -0.153417
C12   C     C_1   0.641039 0.704161 0.668053 0.004460
C13   C     C_R   0.422901 0.688058 0.317854 -0.094127
C14   C     C_R   0.643445 0.679503 0.333669 -0.003095
C15   C     C_R   0.171928 0.178337 0.184238 -0.012772
C16   C     C_R   0.240657 0.145494 0.598120 0.557152
C17   C     C_R   0.251283 0.231680 0.206841 0.011896
C18   C     C_R   0.278147 0.228837 0.277719 -0.011923
C19   C     C_R   0.199032 0.069427 0.293330 -0.138648
C20   C     C_R   0.149278 0.094913 0.227216 -0.166369
C21   C     C_R   0.294524 0.298772 0.161507 0.289361
C22   C     C_R   0.317867 0.397852 0.187575 -0.080846
C23   C     C_1   0.127310 0.198063 0.859421 -0.005822
C24   C     C_R   0.320407 0.414139 0.257826 -0.199169
C25   C     C_R   0.313909 0.323219 0.301993 -0.120573
C26   C     C_R   0.260309 0.137857 0.320644 0.007554
C27   C     C_R   0.673767 0.185792 0.194595 -0.009319
C28   C     C_R   0.648521 0.112158 0.403066 0.535567
C29   C     C_R   0.741068 0.053049 0.219438 0.022298
C30   C     C_R   0.766568 0.033853 0.289910 0.040804
C31   C     C_R   0.613341 0.272126 0.310604 -0.162132
C32   C     C_R   0.616482 0.294389 0.240948 -0.142130
C33   C     C_R   0.798065 0.940035 0.174916 -0.086230
C34   C     C_1   0.171803 0.169995 0.727755 -0.031218
C35   C     C_R   0.902324 0.817639 0.196941 -0.120252
C36   C     C_R   0.944204 0.803411 0.264558 -0.147505
C37   C     C_R   0.876848 0.909447 0.310948 -0.084571
C38   C     C_R   0.682860 0.141602 0.335504 0.001125
C39   C     C_R   0.082051 0.230794 0.928649 0.538099
C40   C     C_R   0.616655 0.735839 0.402880 0.535026
C41   C     C_R   0.683628 0.604910 0.929665 0.533535
C42   C     C_R   0.708120 0.206228 0.930308 0.533762
C43   C     C_R   0.088018 0.232461 0.123462 0.576063
C44   C     C_R   0.681231 0.616225 0.124159 0.522556
C45   C     C_1   0.150780 0.181602 0.799034 -0.031445
C46   C     C_R   0.707026 0.210382 0.126340 0.526812
C47   C     C_R   0.300465 0.116693 0.393415 0.557755
C48   C     C_1   0.669825 0.647580 0.860375 0.000026
C49   C     C_1   0.654394 0.684395 0.728579 -0.031723
C50   C     C_1   0.662877 0.667836 0.799899 -0.033119
C51   C     C_3   0.416327 0.142096 0.079636 0.008184
C52   C     C_3   0.443259 0.120456 0.002683 -0.245376
C53   C     C_3   0.561609 0.981257 0.986749 -0.478598
C54   C     C_1   0.195249 0.160974 0.667359 0.001622
C55   C     C_1   0.678046 0.190436 0.861066 -0.002294
C56   C     C_1   0.657887 0.167016 0.729216 -0.031475
C57   C     C_1   0.664944 0.180208 0.800592 -0.032429
Cr1   Cr    Cr6+3 0.404720 0.198220 0.499960 1.010952
Cr2   Cr    Cr6+3 0.698290 0.897110 0.500380 1.020333
Cr3   Cr    Cr6+3 0.396970 0.904720 0.499610 1.021535
Cr4   Cr    Cr6+3 0.926180 0.151990 0.028120 1.018085
Cr5   Cr    Cr6+3 0.921330 0.451820 0.027470 1.043554
Cr6   Cr    Cr6+3 0.626260 0.446870 0.028710 1.024959
H1    H     H_    0.848574 0.634506 0.332675 0.134985
H2    H     H_    0.918880 0.894203 0.361686 0.142041
H3    H     H_    0.409765 0.809162 0.132830 0.114932
H4    H     H_    0.871607 0.599625 0.209335 0.146555
H5    H     H_    0.213316 0.812293 0.182205 0.116678
H6    H     H_    0.222462 0.729932 0.299754 0.101662
H7    H     H_    0.424542 0.645855 0.367376 0.133036
H8    H     H_    0.179502 0.004119 0.324835 0.149339
H9    H     H_    0.087242 0.053957 0.210864 0.146601
H10   H     H_    0.391935 0.065796 0.098530 0.119354
H11   H     H_    0.508686 0.127230 0.105448 0.121386
H12   H     H_    0.339038 0.458722 0.153503 0.138465
H13   H     H_    0.353125 0.131330 0.976442 0.172849
H14   H     H_    0.464504 0.197961 0.982554 0.181728
H15   H     H_    0.654225 0.970224 0.010023 0.150246
H16   H     H_    0.576248 0.967740 0.930421 0.152914
H17   H     H_    0.543001 0.901949 0.006824 0.146969
H18   H     H_    0.341551 0.488703 0.278266 0.116755
H19   H     H_    0.334066 0.334598 0.354378 0.177098
H20   H     H_    0.556664 0.356428 0.344991 0.112380
H21   H     H_    0.768567 0.948357 0.121731 0.111781
H22   H     H_    0.572653 0.396919 0.223230 0.148379
H23   H     H_    0.952491 0.734669 0.161098 0.115318
H24   H     H_    0.027557 0.709110 0.281388 0.104530
O1    O     O_R   0.267740 0.231960 0.575440 -0.500618
O2    O     O_R   0.596130 0.579390 0.952730 -0.507555
O3    O     O_R   0.639060 0.321160 0.958670 -0.493132
O4    O     O_R   0.527280 0.186640 0.570530 -0.494378
O5    O     O_R   0.821240 0.124200 0.104370 -0.521483
O6    O     O_R   0.036890 0.167040 0.097840 -0.515889
O7    O     O_R   0.056180 0.349610 0.102880 -0.468335
O8    O     O_R   0.797660 0.564870 0.097950 -0.512505
O9    O     O_R   0.595880 0.584250 0.104270 -0.520150
O10   O     O_R   0.638830 0.325670 0.099150 -0.498146
O11   O     O_3   0.824590 0.350230 0.028100 -0.249231
O12   O     O_R   0.685970 0.784660 0.430010 -0.496779
O13   O     O_R   0.728090 0.003450 0.576380 -0.503760
O14   O     O_R   0.682970 0.789190 0.570490 -0.492289
O15   O     O_R   0.499290 0.771880 0.575530 -0.506789
O16   O     O_R   0.285330 0.030870 0.569730 -0.488298
O17   O     O_R   0.270980 0.227080 0.423890 -0.530941
O18   O     O_R   0.530280 0.182120 0.430050 -0.527640
O19   O     O_R   0.731330 0.998570 0.424830 -0.527898
O20   O     O_3   0.308797 0.273620 0.091589 -0.554056
O21   O     O_R   0.502530 0.767000 0.423990 -0.535768
O22   O     O_R   0.288330 0.026350 0.429250 -0.496833
O23   O     O_3   0.499990 0.000020 0.499980 -0.265105
O24   O     O_R   0.821500 0.119340 0.952830 -0.509336
O25   O     O_R   0.037130 0.162530 0.957360 -0.496170
O26   O     O_R   0.056440 0.344740 0.951340 -0.491813
O27   O     O_R   0.797900 0.560360 0.957470 -0.496822

loop_
_geom_bond_atom_site_label_1
_geom_bond_atom_site_label_2
_ccdc_geom_bond_type
C41   O2    A    
C23   C45   T    
C27   C29   A    
Cr2   O12   S    
C19   H8    S    
C19   C20   A    
C18   C26   A    
C51   H11   S    
C41   O27   A    
C24   H18   S    
C43   O7    A    
C40   O12   A    
C12   C49   T    
C7    C8    A    
C36   C37   A    
C53   H16   S    
Cr5   O27   S    
Cr6   O11   S    
C5    C6    A    
C35   H23   S    
Cr4   O6    S    
C46   O5    A    
C13   H7    S    
C29   C33   A    
Cr2   O23   S    
C31   H20   S    
C56   C57   S    
C30   C38   A    
C1    C2    S    
C19   C26   A    
C9    H3    S    
Cr3   O22   S    
C43   O6    A    
Cr5   O11   S    
C7    C14   A    
Cr4   O11   S    
C28   O19   A    
C39   O26   A    
C37   H2    S    
C4    C12   S    
Cr3   O16   S    
Cr1   O4    S    
Cr3   O21   S    
Cr4   O5    S    
C40   O21   A    
C48   C50   T    
C1    O4    A    
Cr5   O8    S    
Cr2   O13   S    
C18   C25   A    
C22   H12   S    
Cr3   O15   S    
C1    O13   A    
C36   H24   S    
C15   C20   A    
C3    C44   S    
Cr2   O19   S    
C51   C52   S    
Cr2   O14   S    
C53   H17   S    
C24   C25   A    
Cr5   O26   S    
C3    C8    A    
C3    C5    A    
C47   O22   A    
Cr6   O9    S    
C17   C21   A    
C30   C37   A    
C4    O15   A    
C42   O3    A    
C35   C36   A    
C42   O24   A    
C5    C9    A    
C29   C30   A    
C44   O9    A    
C42   C55   S    
C6    C14   A    
C16   O16   A    
C31   C32   A    
C28   C38   S    
C28   O18   A    
C4    O14   A    
Cr6   O2    S    
C17   C18   A    
C34   C45   S    
C21   O20   S    
C26   C47   S    
C27   C46   S    
C39   O25   A    
C46   O10   A    
C34   C54   T    
Cr5   O7    S    
C25   H19   S    
C22   C24   A    
Cr1   O17   S    
C52   H14   S    
Cr4   O24   S    
C52   C53   S    
C9    C10   A    
C15   C17   A    
C47   O17   A    
C27   C32   A    
Cr1   O23   S    
C51   H10   S    
C52   H13   S    
Cr1   O1    S    
C11   H6    S    
C10   H5    S    
C31   C38   A    
Cr1   O18   S    
C55   C57   T    
C53   H15   S    
C15   C43   S    
Cr6   O10   S    
C44   O8    A    
C2    C56   T    
C6    C13   A    
C11   C13   A    
C23   C39   S    
C32   H22   S    
Cr6   O3    S    
C33   C35   A    
C41   C48   S    
C33   H21   S    
C16   C54   S    
C7    H1    S    
Cr3   O23   S    
C10   C11   A    
C14   C40   S    
C8    H4    S    
C51   O20   S    
C49   C50   S    
C16   O1    A    
C20   H9    S    
C21   C22   A    
Cr4   O25   S    
