data_mof_unit_38231.cif
_audit_creation_date              2013-03-05T15:48:29-0500
_audit_creation_method            fapswitch 2.2
_symmetry_space_group_name_H-M    P1
_symmetry_Int_Tables_number       1
_space_group_crystal_system       triclinic
_cell_length_a                    20.242051
_cell_length_b                    7.117139
_cell_length_c                    13.540166
_cell_angle_alpha                 89.992581
_cell_angle_beta                  103.382522
_cell_angle_gamma                 90.010696
_cell_volume                      1897.70313484

loop_
_atom_site_label
_atom_site_type_symbol
_atom_site_description
_atom_site_fract_x
_atom_site_fract_y
_atom_site_fract_z
_atom_type_partial_charge
O1    O     O_R   0.449830 0.506740 0.599960 -0.582939
O2    O     O_R   0.550170 0.006740 0.400040 -0.582436
O3    O     O_R   0.588980 0.179860 0.596720 -0.570047
O4    O     O_R   0.411020 0.679860 0.403280 -0.570285
C1    C     C_R   0.615920 0.344681 0.620339 0.909451
C2    C     C_R   0.384073 0.844660 0.379684 0.908596
O5    O     O_R   0.452740 0.177340 0.612040 -0.581877
O6    O     O_R   0.547260 0.677340 0.387960 -0.581783
O7    O     O_R   0.412960 0.002070 0.415460 -0.557368
O8    O     O_R   0.587040 0.502070 0.584540 -0.556793
C3    C     C_R   0.435663 0.345796 0.637713 1.010948
C4    C     C_R   0.564366 0.845834 0.362330 1.011470
O9    O     O_3   0.487110 0.337570 0.435490 -0.263181
O10   O     O_3   0.512890 0.837570 0.564510 -0.262951
V1    V     V_3+5 0.502390 0.064650 0.511970 1.269865
V2    V     V_3+5 0.497610 0.564650 0.488030 1.269898
C5    C     C_R   0.612627 0.802104 0.111948 -0.124938
C6    C     C_R   0.387375 0.300583 0.888039 -0.125192
H1    H     H_    0.522605 0.756147 0.166241 0.115927
H2    H     H_    0.477333 0.254368 0.833629 0.116054
H3    H     H_    0.693824 0.827693 0.983537 0.107206
H4    H     H_    0.306197 0.325601 0.016494 0.107327
H5    H     H_    0.587282 0.768771 0.034306 0.115940
H6    H     H_    0.412670 0.266422 0.965596 0.116057
C7    C     C_R   0.605550 0.853152 0.285990 -0.112188
C8    C     C_R   0.394529 0.352940 0.714124 -0.112924
C9    C     C_R   0.932123 0.844585 0.320114 0.342960
C10   C     C_R   0.067955 0.345966 0.679909 0.343302
C11   C     C_R   0.895165 0.837574 0.395077 -0.086326
C12   C     C_R   0.104910 0.339878 0.604924 -0.086592
C13   C     C_R   0.824708 0.845069 0.369685 -0.233939
C14   C     C_R   0.175374 0.347148 0.630343 -0.233203
C15   C     C_R   0.788227 0.868748 0.268066 0.081766
C16   C     C_R   0.211870 0.369572 0.732049 0.081722
C17   C     C_R   0.825257 0.866829 0.190636 0.093618
C18   C     C_R   0.174822 0.366909 0.809462 0.093520
C19   C     C_R   0.715601 0.875391 0.240536 -0.008705
C20   C     C_R   0.284507 0.375631 0.759630 -0.008400
C21   C     C_R   0.682361 0.840760 0.137973 0.202021
C22   C     C_R   0.317693 0.339928 0.862105 0.201731
C23   C     C_R   0.719249 0.843142 0.062676 -0.144321
C24   C     C_R   0.280796 0.341862 0.937392 -0.144313
C25   C     C_R   0.789416 0.863226 0.088202 -0.186212
C26   C     C_R   0.210647 0.362369 0.911894 -0.186123
C27   C     C_R   0.674584 0.910496 0.310961 -0.058933
C28   C     C_R   0.325580 0.410940 0.689308 -0.058836
C29   C     C_R   0.575637 0.796697 0.186741 -0.228674
C30   C     C_R   0.424361 0.295488 0.813233 -0.228168
C31   C     C_R   0.897297 0.859606 0.217223 -0.356863
C32   C     C_R   0.102776 0.359919 0.782840 -0.356793
H7    H     H_    0.799700 0.821084 0.430742 0.179912
H8    H     H_    0.200353 0.323823 0.569198 0.180614
H9    H     H_    0.921081 0.818314 0.473893 0.199342
H10   H     H_    0.078983 0.321489 0.526045 0.199081
H11   H     H_    0.815524 0.863251 0.026884 0.084360
H12   H     H_    0.184525 0.361927 0.973198 0.084309
C33   C     C_3   0.216797 0.649812 0.201819 -0.183102
C34   C     C_3   0.783143 0.149851 0.798307 -0.183013
H13   H     H_    0.220034 0.593335 0.126424 0.091771
H14   H     H_    0.779870 0.093529 0.873726 0.091560
C35   C     C_3   0.289917 0.650363 0.270494 -0.354856
C36   C     C_3   0.710035 0.150415 0.729602 -0.355532
H15   H     H_    0.325313 0.591101 0.226787 0.179118
H16   H     H_    0.674611 0.091147 0.773282 0.178645
H17   H     H_    0.293175 0.556239 0.336509 0.253782
H18   H     H_    0.706791 0.056268 0.663610 0.253796
H19   H     H_    0.148489 0.879243 0.323291 0.249593
H20   H     H_    0.851496 0.378993 0.676712 0.249796
H21   H     H_    0.252385 0.811072 0.418996 0.200530
H22   H     H_    0.747583 0.310985 0.581023 0.200336
C37   C     C_3   0.187868 0.945123 0.289781 -0.408387
C38   C     C_3   0.812145 0.445001 0.710209 -0.408728
C39   C     C_3   0.238495 0.976564 0.138377 -0.218358
C40   C     C_3   0.761534 0.476731 0.861602 -0.218627
C41   C     C_3   0.187965 0.856236 0.185161 -0.032825
C42   C     C_3   0.812029 0.356244 0.814867 -0.032536
H23   H     H_    0.222100 0.126126 0.137542 0.088439
H24   H     H_    0.777976 0.626262 0.862365 0.088084
C43   C     C_3   0.313314 0.852449 0.307886 -0.071866
C44   C     C_3   0.686679 0.352509 0.692144 -0.071505
C45   C     C_3   0.258178 0.923523 0.364374 -0.188701
C46   C     C_3   0.741825 0.423462 0.635632 -0.188351
C47   C     C_3   0.312782 0.962034 0.206620 -0.149669
C48   C     C_3   0.687244 0.462262 0.793365 -0.149599
H25   H     H_    0.344403 0.875536 0.166987 0.117445
H26   H     H_    0.655593 0.375853 0.833016 0.117573
H27   H     H_    0.173248 0.095667 0.278946 0.145443
H28   H     H_    0.826823 0.595527 0.720981 0.145652
O11   O     O_R   0.912980 0.203550 0.915410 -0.602579
O12   O     O_R   0.087020 0.703550 0.084590 -0.602568
O13   O     O_R   0.047270 0.535570 0.887960 -0.596195
O14   O     O_R   0.952730 0.035570 0.112040 -0.596235
C49   C     C_R   0.063876 0.368248 0.861868 1.021975
C50   C     C_R   0.936167 0.868192 0.138175 1.022062
O15   O     O_R   0.911030 0.532970 0.903270 -0.614715
O16   O     O_R   0.088970 0.032970 0.096730 -0.614804
O17   O     O_R   0.949820 0.708150 0.099970 -0.575525
O18   O     O_R   0.050180 0.208150 0.900030 -0.575517
C51   C     C_R   0.883876 0.364337 0.882433 0.888046
C52   C     C_R   0.116121 0.864343 0.117581 0.887969
O19   O     O_3   0.012900 0.375230 0.064480 -0.284274
O20   O     O_3   0.987100 0.875230 0.935520 -0.284197
V3    V     V_3+5 0.997610 0.648190 0.988040 1.191779
V4    V     V_3+5 0.002390 0.148190 0.011960 1.191657
C53   C     C_2   0.233470 0.926342 0.027559 0.443133
H29   H     H_    0.186537 0.954962 0.972106 0.038075
O21   O     O_2   0.280562 0.855793 0.998391 -0.587765
C54   C     C_2   0.766541 0.426733 0.972448 0.443378
H30   H     H_    0.813485 0.455337 0.027885 0.038034
O22   O     O_2   0.719417 0.356406 0.001660 -0.587723
C55   C     C_2   0.349004 0.148554 0.216833 0.429932
H31   H     H_    0.379002 0.186066 0.162943 0.010304
O23   O     O_2   0.344845 0.259578 0.283233 -0.610276
C56   C     C_2   0.651112 0.648907 0.783167 0.428839
H32   H     H_    0.621534 0.687016 0.837509 0.010547
O24   O     O_2   0.654885 0.759373 0.716288 -0.609342
C57   C     C_2   0.276185 0.097610 0.428140 0.599120
H33   H     H_    0.266937 0.235712 0.394410 0.110124
O25   O     O_2   0.299167 0.084247 0.519526 -0.599779
C58   C     C_2   0.723844 0.597542 0.571851 0.598473
H34   H     H_    0.733176 0.735652 0.605544 0.109699
O26   O     O_2   0.700741 0.584149 0.480493 -0.599972
C59   C     C_2   0.701105 0.031999 0.400728 0.488012
H35   H     H_    0.739655 0.136533 0.397684 0.054797
O27   O     O_2   0.682345 0.013697 0.479319 -0.595656
C60   C     C_2   0.299286 0.533319 0.599861 0.487546
H36   H     H_    0.261454 0.639649 0.603568 0.054843
O28   O     O_2   0.317373 0.513509 0.520791 -0.595724
N1    N     N_R   0.004672 0.825689 0.349262 0.220516
O29   O     O_R   0.038527 0.898562 0.434110 -0.399314
O30   O     O_R   0.035287 0.708863 0.300999 -0.405418
N2    N     N_R   0.995402 0.327213 0.650717 0.220544
O31   O     O_R   0.961553 0.401109 0.566146 -0.400028
O32   O     O_R   0.964771 0.209649 0.698585 -0.405055
C61   C     C_2   0.172001 0.514111 0.243092 0.584477
H37   H     H_    0.144019 0.406879 0.193591 0.023976
O33   O     O_2   0.166667 0.522731 0.330983 -0.567151
C62   C     C_2   0.827913 0.013981 0.757135 0.583933
H38   H     H_    0.855774 0.906605 0.806666 0.023766
O34   O     O_2   0.833366 0.022623 0.669297 -0.567346

loop_
_geom_bond_atom_site_label_1
_geom_bond_atom_site_label_2
_geom_bond_distance
_ccdc_geom_bond_type
C34   C36   1.555034 S    
C20   C22   1.417597 A    
C60   H36   1.086124 S    
C9    C11   1.394229 A    
C39   C41   1.574902 S    
C55   H31   1.085078 S    
O1    C3    1.312708 A    
C46   C58   1.505882 S    
C44   C48   1.575344 S    
O2    C4    1.312614 A    
C2    O7    1.304008 A    
C56   H32   1.085116 S    
C34   C42   1.577653 S    
C61   H37   1.084782 S    
C21   C23   1.396302 A    
C27   C59   1.487066 S    
C42   C51   1.529524 S    
O5    C3    1.316674 A    
C12   H10   1.083427 S    
C5    H5    1.084003 S    
C40   C42   1.574920 S    
O11   C51   1.316935 A    
C6    H6    1.084041 S    
C36   C44   1.561609 S    
C48   H26   1.111721 S    
C57   O25   1.220697 D    
C40   C48   1.575579 S    
O15   C51   1.322963 A    
C59   O27   1.216792 D    
C34   H14   1.113138 S    
C45   C57   1.505944 S    
C54   H30   1.085189 S    
C5    C21   1.400704 A    
C35   H15   1.112618 S    
C6    C22   1.400760 A    
C14   H8    1.078192 S    
C36   H16   1.112664 S    
C10   C32   1.412230 A    
O15   V3    2.032215 S    
N2    O31   1.301588 A    
C43   C47   1.575239 S    
C17   C31   1.419753 A    
C60   O28   1.217230 D    
C13   C15   1.412996 A    
C31   C50   1.469084 S    
C12   C14   1.388625 A    
C17   C25   1.408872 A    
C7    C29   1.399070 A    
H19   C37   1.108310 S    
C8    C30   1.399110 A    
C34   C62   1.517057 S    
O5    V1    2.029823 S    
O19   V3    2.189182 S    
C11   C13   1.388579 A    
C23   C25   1.389197 A    
C24   C26   1.389224 A    
O12   C52   1.316905 A    
C38   H28   1.112258 S    
C58   O26   1.220728 D    
C36   H18   1.106650 S    
C9    C31   1.412312 A    
C59   H35   1.085723 S    
H21   C45   1.114098 S    
C44   C46   1.575327 S    
H3    C23   1.081633 S    
O13   V3    2.029865 S    
C43   C45   1.575426 S    
O14   V4    2.029579 S    
C3    C8    1.471442 S    
C15   C19   1.431340 A    
C10   N2    1.435996 S    
C14   C16   1.413071 A    
O4    V2    2.032380 S    
O13   C49   1.308110 A    
C53   O21   1.221167 D    
C26   H12   1.082492 S    
C39   C53   1.522844 S    
H20   C38   1.108296 S    
O14   C50   1.308192 A    
H1    C29   1.083821 S    
C38   C42   1.551940 S    
C55   O23   1.214518 D    
O1    V2    2.019995 S    
O17   V3    2.023310 S    
C1    C44   1.534671 S    
O20   V4    2.189317 S    
O2    V1    2.020149 S    
H2    C30   1.083839 S    
C62   O34   1.221177 D    
N2    O32   1.300118 A    
C37   H27   1.112241 S    
O4    C2    1.301836 A    
C47   H25   1.111705 S    
O19   V4    1.758453 S    
O16   V4    2.032361 S    
O11   V4    2.011146 S    
C9    N1    1.436046 S    
C47   C55   1.507214 S    
C18   C26   1.408879 A    
C19   C27   1.423969 A    
C7    C27   1.419393 A    
C18   C32   1.419799 A    
C58   H34   1.081731 S    
N1    O29   1.301567 A    
C25   H11   1.082477 S    
C61   O33   1.221129 D    
C48   C56   1.507361 S    
C16   C20   1.431430 A    
C28   C60   1.486686 S    
C5    C29   1.392361 A    
C13   H7    1.078198 S    
O3    C1    1.301859 A    
C6    C30   1.392401 A    
C56   O24   1.214810 D    
C32   C49   1.469228 S    
C33   C35   1.555076 S    
C53   H29   1.085196 S    
C50   O17   1.306844 A    
C4    C7    1.471384 S    
C33   C41   1.577714 S    
C10   C12   1.394234 A    
O7    V1    2.021834 S    
C1    O8    1.303992 A    
C19   C21   1.417576 A    
O8    V2    2.021912 S    
C57   H33   1.081703 S    
C37   C41   1.551898 S    
C2    C43   1.534640 S    
H4    C24   1.081664 S    
C11   H9    1.083374 S    
C35   C43   1.561476 S    
O18   V4    2.023152 S    
O16   C52   1.323036 A    
C22   C24   1.396281 A    
C41   C52   1.529571 S    
C15   C17   1.423025 A    
C54   O22   1.221178 D    
C16   C18   1.423141 A    
O20   V3    1.758357 S    
H22   C46   1.114108 S    
O12   V3    2.011079 S    
C20   C28   1.423842 A    
C33   H13   1.113152 S    
C62   H38   1.084805 S    
C8    C28   1.419243 A    
C40   C54   1.522820 S    
C35   H17   1.106638 S    
O6    V2    2.029538 S    
C40   H24   1.114336 S    
O9    V2    1.758810 S    
C39   H23   1.114320 S    
O10   V1    1.758714 S    
C33   C61   1.517041 S    
O3    V1    2.032236 S    
N1    O30   1.300071 A    
C49   O18   1.306988 A    
C39   C47   1.575600 S    
C38   C46   1.550458 S    
O6    C4    1.316725 A    
C37   C45   1.550454 S    
