data_mof_unit_5077.cif
_audit_creation_date              2012-12-10T17:15:39-0500
_audit_creation_method            fapswitch 2.2
_symmetry_space_group_name_H-M    P1
_symmetry_Int_Tables_number       1
_space_group_crystal_system       triclinic
_cell_length_a                    17.149767
_cell_length_b                    13.064936
_cell_length_c                    11.664276
_cell_angle_alpha                 98.923622
_cell_angle_beta                  89.142754
_cell_angle_gamma                 91.036226
_cell_volume                      2581.25316935

loop_
_atom_site_label
_atom_site_type_symbol
_atom_type_description
_atom_site_fract_x
_atom_site_fract_y
_atom_site_fract_z
_atom_type_partial_charge
C1    C     C_R   0.501609 0.299494 0.479762 0.817167
C2    C     C_R   0.517173 0.862961 0.433057 0.401512
C3    C     C_R   0.509052 0.030070 0.557379 0.020979
C4    C     C_R   0.513314 0.970927 0.445279 0.016888
C5    C     C_R   0.414770 0.421650 0.035741 -0.328701
C6    C     C_R   0.587488 0.573184 0.962901 -0.357696
C7    C     C_R   0.424310 0.426983 0.155975 0.093135
C8    C     C_R   0.576782 0.570604 0.843468 0.076847
C9    C     C_R   0.539771 0.528351 0.149367 0.056388
C10   C     C_R   0.461197 0.469405 0.849945 0.041620
C11   C     C_R   0.532653 0.524882 0.028153 0.064205
C12   C     C_R   0.502656 0.700589 0.520206 0.822713
C13   C     C_R   0.468813 0.471678 0.970919 0.065177
C14   C     C_R   0.350688 0.499943 0.515927 0.789347
C15   C     C_R   0.649291 0.498056 0.483885 0.758260
C16   C     C_R   0.266561 0.490416 0.525927 -0.008739
C17   C     C_R   0.733001 0.485547 0.471864 0.001550
C18   C     C_R   0.228680 0.403012 0.465844 -0.187793
C19   C     C_R   0.768161 0.407517 0.521656 -0.180563
C20   C     C_R   0.148265 0.391749 0.476136 -0.122962
C21   C     C_R   0.847836 0.392050 0.507913 -0.140221
C22   C     C_R   0.104731 0.469973 0.542596 0.104882
C23   C     C_R   0.505982 0.813488 0.531264 -0.149844
C24   C     C_R   0.893457 0.457412 0.448754 0.122149
C25   C     C_R   0.143057 0.556996 0.603804 -0.167028
C26   C     C_R   0.858139 0.535191 0.398137 -0.163075
C27   C     C_R   0.224004 0.566417 0.596904 -0.203196
C28   C     C_R   0.777685 0.548067 0.407945 -0.214723
C29   C     C_2   0.018426 0.462659 0.546097 0.306364
C30   C     C_2   0.979232 0.447503 0.444446 0.309431
C31   C     C_3   0.983954 0.374556 0.247377 0.052663
C32   C     C_3   0.987887 0.259871 0.261686 -0.384624
C33   C     C_3   0.949014 0.190495 0.160534 -0.902032
C34   C     C_R   0.507885 0.186995 0.470104 -0.157039
C35   C     C_3   0.005084 0.446160 0.742668 0.049985
C36   C     C_3   0.967276 0.339157 0.743425 -0.365110
C37   C     C_3   0.993058 0.291540 0.847907 -0.923945
C38   C     C_3   0.616270 0.794893 0.314127 0.046945
C39   C     C_3   0.641507 0.806669 0.190698 -0.340338
C40   C     C_3   0.725360 0.772094 0.165319 -0.950996
C41   C     C_3   0.596618 0.229269 0.702556 0.108893
C42   C     C_3   0.640349 0.154937 0.767138 -0.397340
C43   C     C_3   0.721372 0.197820 0.802471 -0.915928
C44   C     C_R   0.514188 0.020452 0.347091 -0.185034
C45   C     C_R   0.501285 0.980022 0.654888 -0.199846
C46   C     C_R   0.509393 0.127216 0.359445 -0.288856
C47   C     C_R   0.498243 0.872859 0.641663 -0.288080
C48   C     C_R   0.512983 0.138242 0.570138 0.406692
Cu1   Cu    Cu3+1 0.505800 0.507690 0.615350 0.937423
Cu2   Cu    Cu3+1 0.494200 0.492310 0.384650 0.953999
H1    H     H_    0.261555 0.342895 0.412615 0.126069
H2    H     H_    0.119863 0.322666 0.431439 0.128357
H3    H     H_    0.490216 0.836525 0.718494 0.185942
H4    H     H_    0.507416 0.162965 0.281752 0.183834
H5    H     H_    0.515827 0.976784 0.260275 0.183789
H6    H     H_    0.495852 0.023349 0.741557 0.188037
H7    H     H_    0.015858 0.384549 0.166158 0.170739
H8    H     H_    0.923053 0.397298 0.234237 0.143486
H9    H     H_    0.049843 0.237427 0.265479 0.218716
H10   H     H_    0.958105 0.247057 0.343609 0.201879
H11   H     H_    0.886688 0.210847 0.155271 0.257207
H12   H     H_    0.733718 0.357484 0.569195 0.117265
H13   H     H_    0.952262 0.108287 0.173568 0.256187
H14   H     H_    0.979215 0.199176 0.077630 0.258297
H15   H     H_    0.988274 0.496792 0.824475 0.172635
H16   H     H_    0.069605 0.440678 0.744580 0.138010
H17   H     H_    0.902783 0.346466 0.747085 0.229094
H18   H     H_    0.983848 0.286775 0.662687 0.198448
H19   H     H_    0.057313 0.281900 0.845765 0.257399
H20   H     H_    0.964634 0.214248 0.845896 0.258220
H21   H     H_    0.975854 0.341594 0.929925 0.249772
H22   H     H_    0.110193 0.617730 0.655937 0.153929
H23   H     H_    0.619248 0.608571 0.794239 0.136962
H24   H     H_    0.892959 0.585974 0.351992 0.145742
H25   H     H_    0.630846 0.716311 0.331570 0.154812
H26   H     H_    0.650982 0.852277 0.375040 0.115634
H27   H     H_    0.601890 0.760143 0.127904 0.232130
H28   H     H_    0.636854 0.889153 0.179121 0.209597
H29   H     H_    0.765804 0.819159 0.226659 0.261788
H30   H     H_    0.741986 0.782521 0.075445 0.259898
H31   H     H_    0.731027 0.688949 0.173391 0.247095
H32   H     H_    0.594621 0.306191 0.758594 0.186509
H33   H     H_    0.630036 0.241042 0.622641 0.106269
H34   H     H_    0.382160 0.388454 0.205178 0.127864
H35   H     H_    0.606676 0.142778 0.846200 0.227441
H36   H     H_    0.646847 0.079076 0.710209 0.218405
H37   H     H_    0.756431 0.209556 0.724540 0.248993
H38   H     H_    0.751913 0.142158 0.848378 0.260288
H39   H     H_    0.716743 0.272826 0.861643 0.258167
H40   H     H_    0.413141 0.427082 0.804503 0.134991
H41   H     H_    0.588336 0.569612 0.194286 0.120547
H42   H     H_    0.365366 0.379199 0.994068 0.142249
H43   H     H_    0.638615 0.611882 0.003287 0.152195
H44   H     H_    0.750638 0.607997 0.368369 0.121549
H45   H     H_    0.253201 0.633814 0.644373 0.138570
H46   H     H_    0.874084 0.329615 0.543755 0.107828
N1    N     N_R   0.514530 0.519260 0.788680 -0.190973
N2    N     N_R   0.485470 0.480740 0.211320 -0.182415
O1    O     O_R   0.504120 0.354440 0.581590 -0.557227
O2    O     O_3   0.976858 0.492561 0.649520 -0.626607
O3    O     O_3   0.534363 0.806901 0.325336 -0.601328
O4    O     O_3   0.518382 0.195028 0.680785 -0.615804
O5    O     O_R   0.495880 0.645560 0.418410 -0.536436
O6    O     O_R   0.494320 0.341440 0.386760 -0.594628
O7    O     O_R   0.505680 0.658560 0.613240 -0.594484
O8    O     O_R   0.391870 0.507230 0.608700 -0.586765
O9    O     O_R   0.608130 0.492770 0.391300 -0.595539
O10   O     O_R   0.382070 0.494240 0.413880 -0.583240
O11   O     O_R   0.617930 0.505760 0.586120 -0.598615
O12   O     O_3   0.021139 0.439940 0.339716 -0.630276

loop_
_geom_bond_atom_site_label_1
_geom_bond_atom_site_label_2
_ccdc_geom_bond_type
Cu2   O6    S    
C9    N2    A    
C7    N2    A    
C37   H19   S    
C41   C42   S    
C15   O11   A    
C27   H45   S    
C35   C36   S    
C1    O1    A    
C36   H17   S    
C38   H26   S    
C12   C23   S    
C43   H39   S    
C30   O12   S    
C43   H38   S    
C39   H27   S    
C31   H8    S    
Cu1   O11   S    
C36   C37   S    
C22   C29   S    
C24   C26   A    
C38   O3    S    
C38   C39   S    
C35   H15   S    
C19   H12   S    
C41   H33   S    
C3    C48   A    
C41   O4    S    
C28   H44   S    
C15   O9    A    
C26   H24   S    
C45   H6    S    
C22   C25   A    
C1    C34   S    
C40   H30   S    
C42   H36   S    
C5    C13   A    
C47   H3    S    
C16   C27   A    
C14   O10   A    
C7    H34   S    
Cu2   O5    S    
C37   H20   S    
Cu2   O10   S    
C9    H41   S    
C44   C46   A    
C18   H1    S    
C38   H25   S    
C45   C47   A    
Cu2   N2    S    
C23   C47   A    
C39   H28   S    
C12   O5    A    
C6    C11   A    
C25   H22   S    
C6    C8    A    
C4    C44   A    
C2    O3    S    
C3    C45   A    
C10   N1    A    
C2    C4    A    
C8    N1    A    
C29   C30   D    
Cu1   O1    S    
C31   C32   S    
C33   H13   S    
C6    H43   S    
C48   O4    S    
C46   H4    S    
C40   H29   S    
C42   H35   S    
C9    C11   A    
C1    O6    A    
C34   C46   A    
C33   H11   S    
C20   C22   A    
C37   H21   S    
Cu2   O9    S    
C14   C16   S    
C34   C48   A    
C42   C43   S    
C32   H10   S    
C3    C4    A    
C39   C40   S    
C5    C7    A    
C15   C17   S    
C29   O2    S    
C19   C21   A    
C17   C28   A    
C40   H31   S    
C10   C13   A    
Cu1   O7    S    
C36   H18   S    
Cu1   O8    S    
C21   H46   S    
C25   C27   A    
C26   C28   A    
C35   H16   S    
C43   H37   S    
C32   C33   S    
C31   H7    S    
C20   H2    S    
C11   C13   A    
C44   H5    S    
C12   O7    A    
C33   H14   S    
C41   H32   S    
C8    H23   S    
C17   C19   A    
C31   O12   S    
C18   C20   A    
C24   C30   S    
C5    H42   S    
Cu1   N1    S    
C14   O8    A    
C10   H40   S    
C16   C18   A    
Cu1   Cu2   S    
C21   C24   A    
C2    C23   A    
C32   H9    S    
C35   O2    S    
