data_mof_unit_36879.cif
_audit_creation_date              2012-12-10T18:44:22-0500
_audit_creation_method            fapswitch 2.2
_symmetry_space_group_name_H-M    P1
_symmetry_Int_Tables_number       1
_space_group_crystal_system       triclinic
_cell_length_a                    12.871098
_cell_length_b                    10.722946
_cell_length_c                    9.833363
_cell_angle_alpha                 89.145959
_cell_angle_beta                  98.170142
_cell_angle_gamma                 90.898166
_cell_volume                      1343.11242361

loop_
_atom_site_label
_atom_site_type_symbol
_atom_type_description
_atom_site_fract_x
_atom_site_fract_y
_atom_site_fract_z
_atom_type_partial_charge
C1    C     C_R   0.499085 0.260075 0.500900 0.902243
C2    C     C_R   0.500605 0.740131 0.498918 0.889226
C3    C     C_R   0.499253 0.872683 0.496318 -0.095664
C4    C     C_R   0.498355 0.127804 0.502642 -0.090082
C5    C     C_R   0.572295 0.569251 0.084450 -0.153405
C6    C     C_R   0.429546 0.428346 0.915763 -0.186705
C7    C     C_R   0.571731 0.570754 0.939834 0.264481
C8    C     C_R   0.429493 0.427556 0.060169 0.250636
C9    C     C_R   0.297647 0.504228 0.471624 0.897875
C10   C     C_R   0.702125 0.499330 0.528429 0.929784
C11   C     C_R   0.815065 0.502682 0.549667 -0.184459
C12   C     C_R   0.184646 0.516962 0.453244 -0.202013
C13   C     C_R   0.018856 0.593158 0.334292 0.456720
C14   C     C_R   0.983386 0.457745 0.682611 0.440931
C15   C     C_R   0.127776 0.580148 0.339840 0.098051
C16   C     C_R   0.873322 0.452262 0.668882 0.081229
C17   C     C_R   0.135383 0.474219 0.562102 -0.211902
C18   C     C_R   0.863480 0.558030 0.446516 -0.208336
C19   C     C_R   0.030418 0.495099 0.565733 -0.038435
C20   C     C_R   0.970673 0.549957 0.448152 -0.062420
C21   C     C_R   0.543119 0.068968 0.400177 -0.304681
C22   C     C_R   0.455925 0.931572 0.600341 -0.316248
C23   C     C_R   0.539991 0.941267 0.392511 0.220199
C24   C     C_R   0.452513 0.059709 0.602518 0.225938
H1    H     H_    0.814728 0.603241 0.362454 0.236787
H2    H     H_    0.180644 0.422565 0.644463 0.211790
H3    H     H_    0.578378 0.122056 0.323446 0.177401
H4    H     H_    0.420648 0.878059 0.676757 0.170495
H5    H     H_    0.630086 0.623933 0.149703 0.190388
H6    H     H_    0.373569 0.371420 0.850676 0.168974
N1    N     N_R   0.499970 0.499970 0.857200 -0.102856
N2    N     N_R   0.500030 0.500030 0.142800 -0.108589
O1    O     O_R   0.499990 0.316750 0.614620 -0.592698
O2    O     O_R   0.500010 0.683250 0.385380 -0.597017
O3    O     O_R   0.499990 0.316780 0.385290 -0.605507
O4    O     O_R   0.500010 0.683220 0.614710 -0.607926
O5    O     O_R   0.346360 0.499970 0.595710 -0.622733
O6    O     O_R   0.653640 0.500030 0.404290 -0.625342
O7    O     O_R   0.346360 0.499990 0.366380 -0.616549
O8    O     O_R   0.653640 0.500010 0.633620 -0.587039
Zn1   Zn    Zn3+2 0.500000 0.499980 0.653120 0.979338
Zn2   Zn    Zn3+2 0.500000 0.500020 0.346880 0.972235
N3    N     N_2   0.819535 0.390657 0.768177 -0.278938
H7    H     H_    0.826005 0.430410 0.863514 0.292088
C25   C     C_3   0.819769 0.255901 0.766230 -0.671345
H8    H     H_    0.767251 0.218331 0.837794 0.232846
H9    H     H_    0.900185 0.220635 0.798885 0.277315
H10   H     H_    0.790124 0.222228 0.661307 0.219545
N4    N     N_2   0.178994 0.634888 0.234154 -0.229082
H11   H     H_    0.223793 0.576272 0.185205 0.273242
C26   C     C_3   0.224746 0.757151 0.264358 -0.706163
H12   H     H_    0.289545 0.751821 0.351458 0.221827
H13   H     H_    0.164178 0.821805 0.290624 0.243080
H14   H     H_    0.256196 0.795051 0.172565 0.235790
S1    S     S_3+6 0.943001 0.659464 0.184203 0.020578
O9    O     O_2   0.859061 0.567132 0.129029 -0.316278
O10   O     O_2   0.891070 0.775462 0.224105 -0.374650
O11   O     O_3   0.013547 0.695494 0.057006 -0.444642
H15   H     H_    0.024023 0.787164 0.060272 0.369559
S2    S     S_3+6 0.062239 0.426839 0.844411 0.002707
O12   O     O_2   0.001226 0.424652 0.963578 -0.216113
O13   O     O_2   0.113954 0.302658 0.839323 -0.400986
O14   O     O_3   0.154058 0.540735 0.871910 -0.533026
H16   H     H_    0.222363 0.498513 0.880419 0.343580
N5    N     N_2   0.573960 0.883478 0.277625 -0.280485
H17   H     H_    0.650441 0.905170 0.265200 0.239478
C27   C     C_3   0.501266 0.894773 0.151092 -0.781474
H18   H     H_    0.530669 0.965825 0.081908 0.219903
H19   H     H_    0.421570 0.921955 0.170195 0.244500
H20   H     H_    0.493393 0.803846 0.098676 0.251522
N6    N     N_2   0.400069 0.118708 0.701723 -0.300497
H21   H     H_    0.405300 0.071076 0.794370 0.216550
C28   C     C_3   0.293334 0.153171 0.650512 -0.735531
H22   H     H_    0.244568 0.068508 0.622194 0.242799
H23   H     H_    0.290976 0.216285 0.559547 0.231408
H24   H     H_    0.259806 0.202932 0.731593 0.263882
N7    N     N_2   0.648024 0.641431 0.879956 -0.255462
H25   H     H_    0.722977 0.608872 0.907664 0.265457
C29   C     C_3   0.642882 0.775048 0.894525 -0.731204
H26   H     H_    0.693968 0.821681 0.826650 0.250074
H27   H     H_    0.671003 0.801923 0.002290 0.248922
H28   H     H_    0.561324 0.807616 0.863942 0.232804
N8    N     N_2   0.356111 0.352061 0.120005 -0.261841
H29   H     H_    0.279682 0.379562 0.091423 0.244837
C30   C     C_3   0.367656 0.219217 0.104774 -0.725357
H30   H     H_    0.340224 0.191398 0.997155 0.227256
H31   H     H_    0.319789 0.168231 0.173542 0.245608
H32   H     H_    0.450921 0.192332 0.133262 0.241804

loop_
_geom_bond_atom_site_label_1
_geom_bond_atom_site_label_2
_ccdc_geom_bond_type
S1    O9    D    
C11   C18   A    
C8    N8    S    
C28   H22   S    
C3    C23   A    
C19   C20   A    
O2    Zn2   S    
C1    O1    A    
C25   H8    S    
S2    O14   S    
C17   H2    S    
S2    O13   D    
O6    Zn2   S    
C4    C24   A    
C25   H10   S    
C9    O7    A    
C10   O8    A    
C25   H9    S    
O3    Zn2   S    
N5    C27   S    
C12   C17   A    
C18   C20   A    
N7    H25   S    
C7    N7    S    
C5    N2    A    
C2    O2    A    
N7    C29   S    
C6    N1    A    
C21   H3    S    
C22   H4    S    
C28   H23   S    
O4    Zn1   S    
C18   H1    S    
O7    Zn2   S    
C5    H5    S    
C30   H31   S    
C21   C23   A    
C1    C4    S    
C7    N1    A    
C26   H12   S    
C8    N2    A    
C5    C7    A    
C6    C8    A    
N4    C26   S    
O11   H15   S    
C30   H30   S    
C27   H18   S    
S2    O12   D    
C26   H13   S    
N3    H7    S    
C11   C16   A    
N8    H29   S    
C12   C15   A    
C9    O5    A    
N3    C25   S    
C16   N3    S    
O8    Zn1   S    
N8    C30   S    
N4    H11   S    
C13   C15   A    
C28   H24   S    
C14   C16   A    
C1    O3    A    
C29   H27   S    
C30   H32   S    
C2    O4    A    
N1    Zn1   S    
C13   C20   A    
C6    H6    S    
C14   C19   A    
O14   H16   S    
C29   H28   S    
C14   S2    S    
C10   O6    A    
C26   H14   S    
O1    Zn1   S    
C23   N5    S    
S1    O10   D    
C2    C3    S    
N6    H21   S    
C4    C21   A    
C17   C19   A    
C22   C24   A    
C15   N4    S    
O5    Zn1   S    
C9    C12   S    
C10   C11   S    
C29   H26   S    
N5    H17   S    
S1    O11   S    
N6    C28   S    
N2    Zn2   S    
C3    C22   A    
C27   H20   S    
C27   H19   S    
C24   N6    S    
C13   S1    S    
