data_mof_unit_53007.cif
_audit_creation_date              2012-12-10T17:04:28-0500
_audit_creation_method            fapswitch 2.2
_symmetry_space_group_name_H-M    P1
_symmetry_Int_Tables_number       1
_space_group_crystal_system       triclinic
_cell_length_a                    14.930726
_cell_length_b                    10.712293
_cell_length_c                    10.056994
_cell_angle_alpha                 89.248108
_cell_angle_beta                  90.078489
_cell_angle_gamma                 90.107234
_cell_volume                      1608.39609191

loop_
_atom_site_label
_atom_site_type_symbol
_atom_type_description
_atom_site_fract_x
_atom_site_fract_y
_atom_site_fract_z
_atom_type_partial_charge
C1    C     C_R   0.495596 0.262799 0.500827 1.002319
C2    C     C_R   0.185945 0.419608 0.584783 0.329618
C3    C     C_R   0.231218 0.505779 0.503091 -0.240156
C4    C     C_R   0.327043 0.500403 0.500124 0.906737
C5    C     C_R   0.185539 0.600663 0.432693 0.380646
C6    C     C_2   0.461210 0.934005 0.393911 0.496536
C7    C     C_2   0.499583 0.869955 0.494588 -0.325025
C8    C     C_2   0.469822 0.069177 0.391042 -0.245518
C9    C     C_2   0.479004 0.132013 0.503850 -0.304803
C10   C     C_2   0.525217 0.594148 0.924217 -0.103904
C11   C     C_2   0.541821 0.581511 0.071080 0.487434
C12   C     C_R   0.905204 0.600365 0.438401 0.036194
C13   C     C_R   0.498750 0.737398 0.498804 0.926825
C14   C     C_R   0.672894 0.497844 0.500284 0.927254
C15   C     C_R   0.812849 0.589111 0.429746 -0.255720
C16   C     C_R   0.768580 0.497878 0.503261 -0.144215
C17   C     C_R   0.813824 0.414488 0.587639 0.402526
C18   C     C_R   0.906409 0.429545 0.606664 -0.134376
C19   C     C_R   0.952573 0.517149 0.524015 -0.026770
C20   C     C_R   0.954721 0.363023 0.705939 0.409095
C21   C     C_R   0.048021 0.367162 0.706954 0.425638
C22   C     C_R   0.094026 0.434287 0.606079 -0.151731
C23   C     C_R   0.046332 0.518594 0.523325 -0.087083
C24   C     C_R   0.092308 0.601893 0.436881 0.016388
C25   C     C_R   0.044540 0.687924 0.358609 -0.087020
C26   C     C_R   0.951818 0.690463 0.360984 0.422452
Cl1   Cl    Cl    0.621004 0.683053 0.140507 -0.549950
Cl2   Cl    Cl    0.400015 0.437801 0.094762 -0.480198
Cl3   Cl    Cl    0.754631 0.280295 0.645306 -0.510234
Cl4   Cl    Cl    0.903123 0.291841 0.846233 -0.387412
Cl5   Cl    Cl    0.243133 0.283115 0.641345 -0.520931
H1    H     H_    0.773908 0.648936 0.364273 0.207707
H2    H     H_    0.856320 0.809733 0.332734 0.350638
H3    H     H_    0.393006 0.936493 0.229204 0.357855
H4    H     H_    0.536097 0.914295 0.574457 0.123161
H5    H     H_    0.470240 0.116326 0.294678 0.204921
H6    H     H_    0.470957 0.088229 0.601059 0.174184
H7    H     H_    0.539768 0.682916 0.875800 0.184661
H8    H     H_    0.504169 0.414152 0.896003 0.228887
H9    H     H_    0.078948 0.754885 0.295064 0.235076
H10   H     H_    0.142879 0.367229 0.837396 0.375023
H11   H     H_    0.290264 0.704754 0.394535 0.358743
N1    N     N_2   0.500970 0.501330 0.852150 -0.177491
N2    N     N_2   0.500990 0.501360 0.147810 0.006945
O1    O     O_R   0.499990 0.319060 0.613040 -0.588611
O2    O     O_3   0.229446 0.691581 0.358205 -0.713575
O3    O     O_3   0.909838 0.780641 0.284259 -0.698964
O4    O     O_3   0.417312 0.873047 0.292157 -0.702214
O5    O     O_R   0.500010 0.319100 0.386900 -0.600308
O6    O     O_R   0.367830 0.499950 0.613080 -0.582778
O7    O     O_R   0.367860 0.499990 0.386940 -0.550836
O8    O     O_R   0.499990 0.680900 0.613100 -0.644460
O9    O     O_R   0.500010 0.680940 0.386960 -0.527746
O10   O     O_R   0.632140 0.500010 0.613060 -0.590168
O11   O     O_R   0.632170 0.500050 0.386920 -0.589844
O12   O     O_3   0.091740 0.312600 0.813762 -0.628366
Zn1   Zn    Zn3+2 0.499980 0.499970 0.650990 1.046946
Zn2   Zn    Zn3+2 0.500020 0.500030 0.349010 1.126000

loop_
_geom_bond_atom_site_label_1
_geom_bond_atom_site_label_2
_ccdc_geom_bond_type
C10   H7    S    
C2    C22   A    
C21   O12   S    
C19   C23   A    
C23   C24   A    
H10   O12   S    
C6    C7    D    
C13   O8    A    
C17   Cl3   S    
C5    O2    S    
C13   O9    A    
C12   C15   A    
C11   Cl1   S    
O9    Zn2   S    
O1    Zn1   S    
C9    H6    S    
C14   O11   A    
C10   N1    D    
C11   N2    D    
O7    Zn2   S    
C20   Cl4   S    
C21   C22   A    
C24   C25   A    
C1    O1    A    
C16   C17   A    
C5    C24   A    
C6    O4    S    
C26   O3    S    
C12   C19   A    
C7    H4    S    
C14   O10   A    
C12   C26   A    
C2    C3    A    
C18   C20   A    
C10   C11   S    
C25   H9    S    
C8    H5    S    
H2    O3    S    
C14   C16   S    
H3    O4    S    
O8    Zn1   S    
N1    Zn1   S    
C4    O7    A    
C3    C4    S    
C7    C13   S    
C1    C9    S    
C20   C21   A    
H8    N1    S    
C17   C18   A    
C18   C19   A    
H11   O2    S    
O11   Zn2   S    
C4    O6    A    
C22   C23   A    
C8    C9    D    
C6    C8    S    
C25   C26   A    
O6    Zn1   S    
C1    O5    A    
Cl2   N2    S    
O5    Zn2   S    
C15   C16   A    
N2    Zn2   S    
C2    Cl5   S    
C3    C5    A    
O10   Zn1   S    
C15   H1    S    
