data_mof_unit_51936.cif
_audit_creation_date              2012-12-11T14:28:25-0500
_audit_creation_method            fapswitch 2.2
_symmetry_space_group_name_H-M    P1
_symmetry_Int_Tables_number       1
_space_group_crystal_system       triclinic
_cell_length_a                    10.912396
_cell_length_b                    19.091193
_cell_length_c                    18.784282
_cell_angle_alpha                 89.947453
_cell_angle_beta                  89.933629
_cell_angle_gamma                 90.138392
_cell_volume                      3913.32613462

loop_
_atom_site_label
_atom_site_type_symbol
_atom_type_description
_atom_site_fract_x
_atom_site_fract_y
_atom_site_fract_z
_atom_type_partial_charge
C1    C     C_R   0.318187 0.964929 0.645068 0.550429
C2    C     C_3   0.216415 0.756640 0.048990 -0.178531
C3    C     C_3   0.097305 0.184531 0.962124 0.372586
C4    C     C_3   0.541981 0.305668 0.475296 0.385391
C5    C     C_3   0.540935 0.305389 0.024286 0.385374
C6    C     C_3   0.550693 0.701587 0.530034 0.381554
C7    C     C_3   0.597298 0.684534 0.962129 0.372633
C8    C     C_3   0.116857 0.799219 0.507095 -0.113080
C9    C     C_3   0.174476 0.817460 0.000238 -0.135808
C10   C     C_3   0.218718 0.208126 0.503163 -0.123813
C11   C     C_3   0.218160 0.208702 0.996937 -0.123447
C12   C     C_3   0.675691 0.317202 0.499170 -0.137698
C13   C     C_3   0.204682 0.280571 0.539425 -0.132790
C14   C     C_3   0.674492 0.317462 0.000242 -0.136250
C15   C     C_3   0.666414 0.728459 0.492448 -0.085502
C16   C     C_3   0.718151 0.708706 0.996942 -0.122792
C17   C     C_3   0.089720 0.749085 0.569448 0.000838
C18   C     C_3   0.152606 0.764393 0.939856 -0.003523
C19   C     C_3   0.142996 0.235588 0.439742 -0.005268
C20   C     C_3   0.142478 0.236273 0.060387 -0.002789
C21   C     C_3   0.652937 0.264505 0.559965 -0.005537
C22   C     C_3   0.652618 0.264396 0.939859 -0.004417
C23   C     C_3   0.585949 0.750309 0.429156 -0.004893
C24   C     C_3   0.204177 0.281091 0.960465 -0.131828
C25   C     C_3   0.642467 0.736276 0.060392 -0.001447
C26   C     C_3   0.956180 0.741100 0.546018 -0.133054
C27   C     C_3   0.019424 0.752946 0.963318 -0.104682
C28   C     C_3   0.022435 0.210133 0.474058 -0.127096
C29   C     C_3   0.021911 0.210783 0.026315 -0.127353
C30   C     C_3   0.519641 0.253610 0.536622 -0.104658
C31   C     C_3   0.519435 0.252951 0.963323 -0.104570
C32   C     C_3   0.470552 0.721395 0.465691 -0.134088
C33   C     C_3   0.521902 0.710785 0.026319 -0.127517
C34   C     C_3   0.994864 0.677454 0.499795 -0.179785
C35   C     C_3   0.716754 0.255981 0.450770 -0.179046
C36   C     C_3   0.062746 0.692760 0.011798 -0.157152
C37   C     C_3   0.010190 0.282332 0.510256 -0.167911
C38   C     C_3   0.009699 0.282949 0.989882 -0.169240
C39   C     C_3   0.562133 0.193049 0.488481 -0.155557
C40   C     C_3   0.562756 0.192765 0.011803 -0.156273
C41   C     C_3   0.450452 0.794944 0.499041 -0.193557
C42   C     C_3   0.509687 0.782951 0.989886 -0.170624
C43   C     C_3   0.129000 0.685801 0.524311 -0.110630
C44   C     C_3   0.196414 0.703812 0.987608 -0.119628
C45   C     C_3   0.130187 0.307557 0.475441 -0.089836
C46   C     C_3   0.716428 0.256641 0.048995 -0.178900
C47   C     C_3   0.129727 0.308290 0.024482 -0.088965
C48   C     C_3   0.695899 0.203527 0.512516 -0.118601
C49   C     C_3   0.696424 0.203814 0.987612 -0.119645
C50   C     C_3   0.566587 0.822910 0.461381 -0.106887
C51   C     C_3   0.629713 0.808293 0.024487 -0.089090
C52   C     C_3   0.646739 0.801654 0.525347 -0.100752
C53   C     C_3   0.704167 0.781096 0.960470 -0.131687
C54   C     C_3   0.022210 0.727188 0.437632 0.061505
C55   C     C_3   0.083388 0.746121 0.072047 0.072052
C56   C     C_3   0.085036 0.254648 0.573323 0.071856
C57   C     C_R   0.318083 0.965615 0.854616 0.549534
C58   C     C_3   0.084499 0.255080 0.926846 0.072678
C59   C     C_3   0.583599 0.246030 0.427882 0.073909
C60   C     C_3   0.583401 0.246124 0.072052 0.073297
C61   C     C_3   0.530821 0.773621 0.562440 0.054250
C62   C     C_3   0.584490 0.755082 0.926850 0.070861
C63   C     C_R   0.319853 0.019857 0.430730 -0.038339
C64   C     C_R   0.318184 0.019352 0.069369 -0.037483
C65   C     C_R   0.317485 0.990157 0.573695 0.001178
C66   C     C_R   0.316572 0.992082 0.925708 -0.005028
C67   C     C_R   0.820078 0.516917 0.429612 -0.036060
C68   C     C_R   0.318456 0.038257 0.356851 0.542432
C69   C     C_R   0.818183 0.519345 0.069372 -0.037447
C70   C     C_R   0.819399 0.488422 0.572930 -0.017871
C71   C     C_R   0.816574 0.492076 0.925712 -0.004918
C72   C     C_R   0.546376 0.000263 0.432686 -0.095750
C73   C     C_R   0.542505 0.993651 0.067911 -0.091403
C74   C     C_R   0.538728 0.022319 0.578430 -0.075989
C75   C     C_R   0.538693 0.021535 0.922833 -0.072183
C76   C     C_R   0.043497 0.488011 0.427588 -0.088132
C77   C     C_R   0.042503 0.493643 0.067918 -0.091374
C78   C     C_R   0.043985 0.511523 0.573368 -0.071671
C79   C     C_R   0.318220 0.037836 0.143309 0.543452
C80   C     C_R   0.038696 0.521527 0.922840 -0.072222
C81   C     C_R   0.654348 0.003073 0.471521 -0.131801
C82   C     C_R   0.651757 0.998992 0.030138 -0.138337
C83   C     C_R   0.651001 0.019325 0.543626 -0.128555
C84   C     C_R   0.649970 0.017864 0.958515 -0.126311
C85   C     C_R   0.154065 0.493304 0.464076 -0.133583
C86   C     C_R   0.151757 0.498987 0.030146 -0.138338
C87   C     C_R   0.153871 0.508621 0.536434 -0.132553
C88   C     C_R   0.149972 0.517859 0.958524 -0.126268
C89   C     C_R   0.428958 0.008682 0.540783 -0.015315
C90   C     C_R   0.818569 0.464641 0.644853 0.549191
C91   C     C_R   0.427978 0.008193 0.959565 -0.016743
C92   C     C_R   0.431778 0.008707 0.466716 -0.026916
C93   C     C_R   0.429468 0.005974 0.033585 -0.025943
C94   C     C_R   0.931811 0.499846 0.537802 -0.015926
C95   C     C_R   0.927980 0.508184 0.959570 -0.016630
C96   C     C_R   0.931293 0.499048 0.463594 -0.023598
C97   C     C_R   0.929468 0.505965 0.033590 -0.025966
C98   C     C_R   0.204774 0.988557 0.534134 0.039162
C99   C     C_R   0.203064 0.992147 0.964726 0.042180
C100  C     C_R   0.206534 0.020758 0.469063 0.015841
C101  C     C_R   0.818083 0.465612 0.854618 0.548963
C102  C     C_R   0.204911 0.022603 0.030728 0.017999
C103  C     C_R   0.706099 0.491190 0.534758 0.020696
C104  C     C_R   0.703066 0.492142 0.964728 0.042261
C105  C     C_R   0.709065 0.523323 0.469870 0.006148
C106  C     C_R   0.704912 0.522598 0.030731 0.017927
C107  C     C_R   0.088826 0.959381 0.556141 -0.028571
C108  C     C_R   0.087552 0.962405 0.942993 -0.006727
C109  C     C_R   0.093657 0.050151 0.445260 -0.026416
C110  C     C_R   0.091464 0.051061 0.055431 -0.024622
C111  C     C_R   0.590244 0.461870 0.555814 -0.022453
C112  C     C_R   0.818564 0.536931 0.356191 0.542377
C113  C     C_R   0.587554 0.462400 0.942995 -0.006748
C114  C     C_R   0.597944 0.555540 0.447372 -0.022051
C115  C     C_R   0.591464 0.551058 0.055432 -0.024697
C116  C     C_R   0.979444 0.979923 0.525518 -0.025591
C117  C     C_R   0.977927 0.982983 0.973196 -0.005412
C118  C     C_R   0.982056 0.030297 0.473340 -0.050392
C119  C     C_R   0.979928 0.031947 0.026604 -0.043794
C120  C     C_R   0.481783 0.482917 0.524761 -0.012735
C121  C     C_R   0.477929 0.482978 0.973198 -0.005457
C122  C     C_R   0.485028 0.534282 0.473439 -0.029138
C123  C     C_R   0.818220 0.537832 0.143311 0.543599
C124  C     C_R   0.479929 0.531943 0.026605 -0.043871
C125  C     C_R   0.136883 0.758809 0.641980 0.542952
C126  C     C_R   0.184584 0.771428 0.863764 0.547933
C127  C     C_R   0.180560 0.229205 0.364338 0.556485
C128  C     C_R   0.180294 0.229412 0.135627 0.557065
C129  C     C_R   0.684618 0.271456 0.636160 0.549541
C130  C     C_R   0.684589 0.271429 0.863765 0.549804
C131  C     C_R   0.632517 0.742027 0.356398 0.540866
C132  C     C_R   0.680289 0.729413 0.135628 0.554954
C133  C     C_R   0.498830 0.787196 0.637050 0.569594
C134  C     C_3   0.154918 0.735901 0.461750 -0.149879
C135  C     C_R   0.544393 0.769545 0.854577 0.582619
C136  C     C_R   0.541104 0.229468 0.356130 0.556646
C137  C     C_R   0.541153 0.229522 0.143879 0.556202
C138  C     C_R   0.044615 0.269465 0.645503 0.574894
C139  C     C_R   0.044397 0.269543 0.854575 0.575787
C140  C     C_R   0.996200 0.712453 0.362544 0.561964
C141  C     C_R   0.041145 0.729519 0.143876 0.561365
C142  C     C_3   0.983804 0.789993 0.482449 0.386877
C143  C     C_3   0.040919 0.805384 0.024280 0.385224
C144  C     C_3   0.097850 0.183977 0.538246 0.374376
Cr1   Cr    Cr6+3 0.488160 0.884660 0.750000 0.999841
Cr2   Cr    Cr6+3 0.333410 0.272740 0.250000 1.083702
Cr3   Cr    Cr6+3 0.833410 0.227260 0.750000 1.069817
Cr4   Cr    Cr6+3 0.833410 0.772740 0.250000 1.087845
Cr5   Cr    Cr6+3 0.488160 0.115340 0.250000 0.995861
Cr6   Cr    Cr6+3 0.988160 0.384660 0.750000 0.998989
Cr7   Cr    Cr6+3 0.988160 0.615340 0.250000 0.997044
Cr8   Cr    Cr6+3 0.173480 0.883120 0.750000 1.011942
Cr9   Cr    Cr6+3 0.173480 0.116880 0.250000 1.000061
Cr10  Cr    Cr6+3 0.673480 0.383120 0.750000 1.013366
Cr11  Cr    Cr6+3 0.673480 0.616880 0.250000 0.997086
Cr12  Cr    Cr6+3 0.333410 0.727260 0.750000 1.078340
F1    F     F_    0.908394 0.843011 0.458471 -0.652516
F2    F     F_    0.958200 0.855362 0.046589 -0.655202
F3    F     F_    0.081055 0.123744 0.577777 -0.636933
F4    F     F_    0.080313 0.124563 0.922404 -0.640241
F5    F     F_    0.459880 0.355731 0.452481 -0.656046
F6    F     F_    0.458218 0.355367 0.046597 -0.655188
F7    F     F_    0.544033 0.641249 0.570477 -0.629478
F8    F     F_    0.580310 0.624564 0.922411 -0.639953
H1    H     H_    0.170770 0.847793 0.506652 0.095048
H2    H     H_    0.892962 0.960345 0.954864 0.116799
H3    H     H_    0.899731 0.054728 0.453996 0.080818
H4    H     H_    0.896793 0.054902 0.046925 0.078778
H5    H     H_    0.397172 0.458404 0.540774 0.123620
H6    H     H_    0.392964 0.460340 0.954865 0.116752
H7    H     H_    0.401789 0.556946 0.452777 0.086549
H8    H     H_    0.396793 0.554898 0.046925 0.078791
H9    H     H_    0.877317 0.743699 0.583223 0.125578
H10   H     H_    0.943878 0.749488 0.924334 0.119398
H11   H     H_    0.948789 0.180946 0.446403 0.104076
H12   H     H_    0.230192 0.865396 0.997759 0.095952
H13   H     H_    0.948302 0.181658 0.054224 0.103965
H14   H     H_    0.444135 0.250539 0.575748 0.119837
H15   H     H_    0.443888 0.249494 0.924342 0.119734
H16   H     H_    0.405923 0.684701 0.439851 0.103152
H17   H     H_    0.448295 0.681658 0.054229 0.103848
H18   H     H_    0.938760 0.630046 0.494922 0.128787
H19   H     H_    0.015620 0.641882 0.018692 0.140058
H20   H     H_    0.927374 0.315068 0.516020 0.112455
H21   H     H_    0.926822 0.315634 0.984063 0.111715
H22   H     H_    0.514025 0.142525 0.482039 0.140312
H23   H     H_    0.301831 0.175265 0.498758 0.101656
H24   H     H_    0.515627 0.141888 0.018697 0.140221
H25   H     H_    0.365881 0.825856 0.503657 0.104044
H26   H     H_    0.426809 0.815635 0.984066 0.111478
H27   H     H_    0.193574 0.644799 0.542074 0.159043
H28   H     H_    0.261282 0.661997 0.971553 0.151410
H29   H     H_    0.144735 0.357655 0.447428 0.171590
H30   H     H_    0.143722 0.359003 0.051665 0.168100
H31   H     H_    0.760243 0.161508 0.528706 0.152158
H32   H     H_    0.761289 0.161998 0.971557 0.151457
H33   H     H_    0.574335 0.869901 0.427887 0.150600
H34   H     H_    0.301314 0.175857 0.001390 0.101228
H35   H     H_    0.643705 0.859006 0.051671 0.168009
H36   H     H_    0.739212 0.992204 0.444714 0.137318
H37   H     H_    0.736615 0.988484 0.057239 0.132293
H38   H     H_    0.734454 0.027441 0.573366 0.119179
H39   H     H_    0.733797 0.027708 0.929646 0.117266
H40   H     H_    0.239061 0.486181 0.435597 0.133531
H41   H     H_    0.236615 0.488482 0.057249 0.132364
H42   H     H_    0.237652 0.519169 0.564723 0.112922
H43   H     H_    0.233800 0.527706 0.929657 0.117088
H44   H     H_    0.554954 0.986451 0.377238 0.143849
H45   H     H_    0.732225 0.364825 0.500889 0.100855
H46   H     H_    0.548197 0.978304 0.123153 0.144808
H47   H     H_    0.539054 0.034730 0.634566 0.145823
H48   H     H_    0.540185 0.034963 0.866898 0.143867
H49   H     H_    0.047696 0.475131 0.371677 0.145177
H50   H     H_    0.048193 0.478297 0.123160 0.145415
H51   H     H_    0.048126 0.525698 0.628990 0.142763
H52   H     H_    0.040190 0.534957 0.866905 0.143105
H53   H     H_    0.087894 0.091576 0.407613 0.159857
H54   H     H_    0.084498 0.091012 0.094511 0.160102
H55   H     H_    0.077539 0.917770 0.594002 0.159962
H56   H     H_    0.730212 0.365397 0.997765 0.096025
H57   H     H_    0.077037 0.919572 0.906505 0.157239
H58   H     H_    0.595224 0.597679 0.410680 0.163854
H59   H     H_    0.584499 0.591011 0.094510 0.160534
H60   H     H_    0.579485 0.418466 0.591715 0.160082
H61   H     H_    0.577041 0.419567 0.906507 0.157019
H62   H     H_    0.230990 0.736310 0.422942 0.135053
H63   H     H_    0.293661 0.759386 0.087179 0.125607
H64   H     H_    0.273470 0.312834 0.567891 0.144510
H65   H     H_    0.273338 0.313012 0.931735 0.144994
H66   H     H_    0.794149 0.258176 0.412538 0.125919
H67   H     H_    0.750155 0.696878 0.485877 0.104337
H68   H     H_    0.793673 0.259387 0.087184 0.125606
H69   H     H_    0.717695 0.835335 0.550319 0.172211
H70   H     H_    0.773331 0.813016 0.931742 0.145189
H71   H     H_    0.801306 0.675863 0.001397 0.101097
H72   H     H_    0.893920 0.958028 0.544166 0.126401
O1    O     O_R   0.575450 0.828820 0.667950 -0.528958
O2    O     O_R   0.416860 0.942890 0.825320 -0.515506
O3    O     O_R   0.416860 0.057110 0.325320 -0.514389
O4    O     O_R   0.416860 0.057110 0.174680 -0.512115
O5    O     O_R   0.916860 0.442890 0.674680 -0.515532
O6    O     O_R   0.916860 0.442890 0.825320 -0.514534
O7    O     O_R   0.916860 0.557110 0.325320 -0.524731
O8    O     O_R   0.916860 0.557110 0.174680 -0.513220
O9    O     O_R   0.213790 0.953680 0.668330 -0.516498
O10   O     O_R   0.213790 0.953680 0.831670 -0.524585
O11   O     O_R   0.213790 0.046320 0.331670 -0.534321
O12   O     O_R   0.575450 0.828820 0.832050 -0.531169
O13   O     O_R   0.213790 0.046320 0.168330 -0.533892
O14   O     O_R   0.713790 0.453680 0.668330 -0.526647
O15   O     O_R   0.713790 0.453680 0.831670 -0.525586
O16   O     O_R   0.713790 0.546320 0.331670 -0.525054
O17   O     O_R   0.713790 0.546320 0.168330 -0.533303
O18   O     O_R   0.121360 0.817890 0.672660 -0.527337
O19   O     O_R   0.121360 0.817890 0.827340 -0.523112
O20   O     O_R   0.121360 0.182110 0.327340 -0.529688
O21   O     O_R   0.121360 0.182110 0.172660 -0.530643
O22   O     O_R   0.621360 0.317890 0.672660 -0.519757
O23   O     O_R   0.575450 0.171180 0.332050 -0.532245
O24   O     O_R   0.621360 0.317890 0.827340 -0.520089
O25   O     O_R   0.621360 0.682110 0.327340 -0.539270
O26   O     O_R   0.621360 0.682110 0.172660 -0.534599
O27   O     O_R   0.206850 0.711370 0.665820 -0.517968
O28   O     O_R   0.206850 0.711370 0.834180 -0.509753
O29   O     O_R   0.206850 0.288630 0.334180 -0.493996
O30   O     O_R   0.206850 0.288630 0.165820 -0.492758
O31   O     O_R   0.706850 0.211370 0.665820 -0.505115
O32   O     O_R   0.706850 0.211370 0.834180 -0.505454
O33   O     O_R   0.706850 0.788630 0.334180 -0.485775
O34   O     O_R   0.575450 0.171180 0.167950 -0.531278
O35   O     O_R   0.706850 0.788630 0.165820 -0.498213
O36   O     O_R   0.457710 0.733190 0.672630 -0.434078
O37   O     O_R   0.457710 0.733190 0.827370 -0.475578
O38   O     O_R   0.457710 0.266810 0.327370 -0.468375
O39   O     O_R   0.457710 0.266810 0.172630 -0.468723
O40   O     O_R   0.957710 0.233190 0.672630 -0.478969
O41   O     O_R   0.957710 0.233190 0.827370 -0.478374
O42   O     O_R   0.957710 0.766810 0.327370 -0.452128
O43   O     O_R   0.957710 0.766810 0.172630 -0.465759
O44   O     O_3   0.331690 0.831680 0.750000 -0.315934
O45   O     O_R   0.075450 0.328820 0.667950 -0.533929
O46   O     O_3   0.331690 0.168320 0.250000 -0.308930
O47   O     O_3   0.831690 0.331680 0.750000 -0.312838
O48   O     O_3   0.831690 0.668320 0.250000 -0.311363
O49   O     O_R   0.075450 0.328820 0.832050 -0.534111
O50   O     O_R   0.075450 0.671180 0.332050 -0.526851
O51   O     O_R   0.075450 0.671180 0.167950 -0.529322
O52   O     O_R   0.416860 0.942890 0.674680 -0.530115

loop_
_geom_bond_atom_site_label_1
_geom_bond_atom_site_label_2
_ccdc_geom_bond_type
C6    C32   S    
C71   C104  A    
C73   C82   A    
C73   C93   A    
C74   C83   A    
Cr9   O21   S    
C9    C143  S    
C61   C133  S    
C80   H52   S    
C65   C89   A    
C90   O14   A    
C52   C61   S    
C117  C119  A    
C86   C88   A    
C71   C95   A    
C69   C123  S    
C54   C134  S    
C27   H10   S    
C9    H12   S    
C37   C56   S    
C76   H49   S    
C50   C52   S    
C28   C144  S    
Cr6   O49   S    
C41   C61   S    
C4    C12   S    
C21   C48   S    
C100  C109  A    
C29   H13   S    
C22   C130  S    
C7    C33   S    
C14   H56   S    
Cr3   O41   S    
C109  C118  A    
C11   C20   S    
C140  O42   A    
C141  O43   A    
C24   H65   S    
C70   C103  A    
C67   C105  A    
C26   H9    S    
C137  O39   A    
C17   C43   S    
C7    C62   S    
C18   C44   S    
C82   H37   S    
C105  C114  A    
C113  H61   S    
C124  H8    S    
C117  H2    S    
C69   C106  A    
C94   C96   A    
Cr8   O9    S    
C22   C49   S    
C107  H55   S    
C34   C54   S    
C82   C84   A    
C64   C79   S    
C36   C44   S    
C37   C45   S    
Cr10  O24   S    
C7    F8    S    
C16   C25   S    
C127  O29   A    
C46   C60   S    
C139  O41   A    
Cr2   O38   S    
Cr7   O51   S    
C130  O24   A    
C95   C97   A    
C28   H11   S    
C106  C115  A    
C8    C17   S    
Cr4   O43   S    
C41   H25   S    
C74   H47   S    
C2    C55   S    
C80   C88   A    
C36   C55   S    
C1    O9    A    
C5    F6    S    
C13   C45   S    
C78   C94   A    
C138  O45   A    
Cr5   O3    S    
C116  C118  A    
Cr6   O47   S    
C20   C47   S    
C3    C11   S    
Cr7   O7    S    
Cr11  O25   S    
C67   C112  S    
C6    F7    S    
C4    F5    S    
C32   H16   S    
C52   H69   S    
C51   C53   S    
C53   H70   S    
C1    O52   A    
C76   C96   A    
C78   C87   A    
C40   C60   S    
C57   C66   S    
C81   H36   S    
C72   H44   S    
Cr11  O16   S    
C64   C102  A    
C99   C108  A    
C33   C42   S    
C6    C61   S    
C103  C111  A    
C12   H45   S    
C120  H5    S    
C40   C49   S    
C118  H3    S    
C3    C29   S    
Cr1   O52   S    
C85   H40   S    
Cr12  O28   S    
Cr6   O5    S    
C2    C44   S    
C29   C38   S    
C1    C65   S    
C32   C41   S    
C77   C97   A    
C42   C62   S    
Cr10  O22   S    
C75   C91   A    
C111  H60   S    
C13   C56   S    
C121  H6    S    
C133  O1    A    
C79   O4    A    
C83   H38   S    
C86   H41   S    
C81   C83   A    
C55   C143  S    
C8    C134  S    
Cr10  O14   S    
C16   H71   S    
C135  O37   A    
Cr6   O45   S    
C62   C135  S    
Cr2   O29   S    
C101  O6    A    
C27   C143  S    
Cr1   O2    S    
C30   H14   S    
C23   C131  S    
C103  C105  A    
C36   H19   S    
C10   C144  S    
C12   C35   S    
C19   C28   S    
C21   C129  S    
C48   H31   S    
C143  F2    S    
C132  O26   A    
C63   C68   S    
C5    C60   S    
C15   H67   S    
Cr9   O46   S    
C46   H68   S    
Cr4   O33   S    
C34   C43   S    
C57   O10   A    
C110  C119  A    
C19   C45   S    
C40   H24   S    
C80   C95   A    
C35   H66   S    
C128  O21   A    
C14   C22   S    
C11   H34   S    
Cr7   O48   S    
C18   C126  S    
C108  H57   S    
C3    F4    S    
C28   C37   S    
C76   C85   A    
Cr4   O42   S    
C30   C39   S    
C125  O18   A    
C107  C116  A    
C109  H53   S    
C8    H1    S    
C104  C113  A    
C9    C18   S    
C113  C121  A    
C122  H7    S    
C128  O30   A    
C140  O50   A    
C25   C132  S    
C141  O51   A    
C25   C33   S    
C131  O25   A    
C69   C97   A    
C55   C141  S    
C104  C106  A    
C14   C46   S    
C46   C49   S    
C115  H59   S    
C70   C94   A    
C65   C98   A    
Cr12  O44   S    
C72   C92   A    
C31   C40   S    
C35   C59   S    
Cr5   O23   S    
C38   C58   S    
C39   H22   S    
C77   H50   S    
Cr8   O10   S    
C72   C81   A    
Cr2   O46   S    
C130  O32   A    
C71   C101  S    
Cr4   O35   S    
Cr10  O47   S    
C101  O15   A    
C13   H64   S    
C35   C48   S    
C108  C117  A    
C50   H33   S    
C2    H63   S    
C45   H29   S    
C75   H48   S    
Cr2   O39   S    
Cr3   O32   S    
C133  O36   A    
C98   C107  A    
C31   H15   S    
C78   H51   S    
C43   C134  S    
C87   H42   S    
C91   C93   A    
Cr3   O47   S    
C10   C19   S    
C39   C59   S    
C116  H72   S    
C136  O23   A    
C126  O28   A    
C15   C52   S    
C114  H58   S    
C144  F3    S    
C5    C14   S    
C84   H39   S    
C7    C16   S    
C54   C142  S    
C98   C100  A    
C33   H17   S    
C102  C110  A    
C88   H43   S    
C41   C50   S    
C115  C124  A    
C136  O38   A    
C23   C50   S    
C68   O3    A    
Cr5   O34   S    
Cr8   O19   S    
C137  O34   A    
Cr12  O36   S    
C49   H32   S    
C27   C36   S    
C21   C30   S    
C23   C32   S    
Cr9   O11   S    
C75   C84   A    
C123  O17   A    
C56   C144  S    
C3    C58   S    
Cr6   O6    S    
C99   C102  A    
C24   C58   S    
C8    C142  S    
C119  H4    S    
C39   C48   S    
C58   C139  S    
Cr11  O17   S    
C59   C136  S    
C47   H30   S    
C132  O35   A    
C17   C26   S    
C134  H62   S    
C74   C89   A    
C64   C93   A    
C20   C128  S    
Cr10  O15   S    
C11   C24   S    
Cr5   O4    S    
C139  O49   A    
Cr11  O48   S    
Cr2   O30   S    
C42   H26   S    
C16   C53   S    
C121  C124  A    
Cr8   O44   S    
C6    C15   S    
Cr11  O26   S    
C26   C34   S    
C112  O7    A    
C54   C140  S    
Cr1   O1    S    
C63   C92   A    
Cr5   O46   S    
C126  O19   A    
Cr3   O40   S    
C129  O31   A    
C60   C137  S    
C15   C23   S    
Cr7   O8    S    
C43   H27   S    
C79   O13   A    
C125  O27   A    
C70   C90   S    
C123  O8    A    
C120  C122  A    
C112  O16   A    
C20   C29   S    
C85   C87   A    
C68   O11   A    
C22   C31   S    
C127  O20   A    
C73   H46   S    
Cr3   O31   S    
C129  O22   A    
C37   H20   S    
Cr9   O13   S    
C12   C21   S    
C138  O40   A    
C111  C120  A    
C66   C99   A    
C25   C51   S    
C63   C100  A    
Cr12  O27   S    
C56   C138  S    
C53   C62   S    
C131  O33   A    
C10   H23   S    
Cr12  O37   S    
C89   C92   A    
C38   C47   S    
C51   H35   S    
Cr9   O20   S    
C77   C86   A    
C67   C96   A    
Cr1   O44   S    
Cr7   O50   S    
Cr4   O48   S    
Cr1   O12   S    
C24   C47   S    
C135  O12   A    
C18   C27   S    
C57   O2    A    
C10   C13   S    
C66   C91   A    
C38   H21   S    
C42   C51   S    
Cr8   O18   S    
C2    C9    S    
C17   C125  S    
C4    C59   S    
C19   C127  S    
C34   H18   S    
C110  H54   S    
C114  C122  A    
C44   H28   S    
C90   O5    A    
C142  F1    S    
C26   C142  S    
C4    C30   S    
C5    C31   S    
