data_mof_unit_44740.cif
_audit_creation_date              2013-03-05T16:08:06-0500
_audit_creation_method            fapswitch 2.2
_symmetry_space_group_name_H-M    P1
_symmetry_Int_Tables_number       1
_space_group_crystal_system       triclinic
_cell_length_a                    23.445521
_cell_length_b                    11.535944
_cell_length_c                    10.758611
_cell_angle_alpha                 89.979892
_cell_angle_beta                  90.01121
_cell_angle_gamma                 89.711361
_cell_volume                      2909.80366123

loop_
_atom_site_label
_atom_site_type_symbol
_atom_site_description
_atom_site_fract_x
_atom_site_fract_y
_atom_site_fract_z
_atom_type_partial_charge
O1    O     O_R   0.500000 0.334450 0.602530 -0.619351
O2    O     O_R   0.500000 0.665550 0.397470 -0.622132
O3    O     O_R   0.500000 0.665550 0.602530 -0.618476
O4    O     O_R   0.500000 0.334450 0.397470 -0.621069
C1    C     C_R   0.499884 0.281162 0.500018 0.876767
C2    C     C_R   0.500120 0.718837 0.499981 0.876846
O5    O     O_R   0.416150 0.500000 0.602560 -0.576806
O6    O     O_R   0.583850 0.500000 0.397440 -0.584120
O7    O     O_R   0.583850 0.500000 0.602560 -0.577288
O8    O     O_R   0.416150 0.500000 0.397440 -0.584149
C3    C     C_R   0.388989 0.502671 0.499930 0.942273
C4    C     C_R   0.610991 0.497483 0.499957 0.943593
Zn1   Zn    Zn3+2 0.500000 0.500000 0.636920 0.989476
Zn2   Zn    Zn3+2 0.500000 0.500000 0.363080 0.991552
C5    C     C_R   0.877594 0.593048 0.454849 0.498032
C6    C     C_R   0.122337 0.406786 0.455634 0.498261
C7    C     C_R   0.882814 0.388150 0.482357 0.585053
C8    C     C_R   0.117163 0.611965 0.480709 0.584424
N1    N     N_R   0.852399 0.488583 0.474819 -0.315673
N2    N     N_R   0.147546 0.511437 0.474234 -0.315349
C9    C     C_R   0.942219 0.389191 0.466158 -0.099114
C10   C     C_R   0.057725 0.610813 0.464999 -0.099110
C11   C     C_R   0.937477 0.602263 0.455586 -0.090602
C12   C     C_R   0.062451 0.397623 0.456297 -0.090788
C13   C     C_R   0.969932 0.497890 0.459870 -0.098180
C14   C     C_R   0.030009 0.502054 0.459750 -0.097923
C15   C     C_R   0.974268 0.285189 0.459145 0.193115
C16   C     C_R   0.025635 0.714770 0.457567 0.192494
C17   C     C_R   0.965858 0.710992 0.454074 0.154855
C18   C     C_R   0.034045 0.288895 0.455472 0.154589
O9    O     O_2   0.843977 0.686563 0.436227 -0.598614
O10   O     O_2   0.155954 0.313045 0.438477 -0.598845
O11   O     O_2   0.855193 0.288445 0.507410 -0.555426
O12   O     O_2   0.144862 0.711881 0.504270 -0.555565
C19   C     C_R   0.240206 0.563846 0.387948 0.157469
C20   C     C_R   0.759756 0.434516 0.389501 0.157686
C21   C     C_R   0.235158 0.473266 0.593503 0.121709
C22   C     C_R   0.764716 0.528936 0.593072 0.123002
C23   C     C_R   0.299461 0.571578 0.399341 0.345774
C24   C     C_R   0.700503 0.426885 0.401000 0.345460
C25   C     C_R   0.294687 0.466008 0.596618 0.361246
C26   C     C_R   0.705198 0.536670 0.595534 0.361280
C27   C     C_R   0.326918 0.513836 0.499015 -0.367355
C28   C     C_R   0.673031 0.486585 0.499202 -0.367434
C29   C     C_R   0.208193 0.515710 0.485354 0.097296
C30   C     C_R   0.791748 0.484368 0.485986 0.095789
C31   C     C_1   0.499938 0.161090 0.500004 -0.204293
C32   C     C_1   0.500106 0.838907 0.499910 -0.204513
C33   C     C_1   0.499999 0.059133 0.499919 -0.013569
C34   C     C_1   0.500070 0.940863 0.499870 -0.014066
N3    N     N_1   0.500000 0.500000 0.180630 -0.073043
N4    N     N_1   0.500000 0.500000 0.819370 -0.077672
C35   C     C_1   0.499996 0.499997 0.069705 0.053323
C36   C     C_1   0.499996 0.499997 0.930290 0.044706
N5    N     N_2   0.946313 0.175873 0.449935 -0.248929
H1    H     H_    0.964884 0.109621 0.500096 0.242475
C37   C     C_3   0.932482 0.141799 0.324166 -0.707955
H2    H     H_    0.972159 0.126400 0.269983 0.217164
H3    H     H_    0.906429 0.210009 0.277840 0.250800
H4    H     H_    0.907355 0.060507 0.326028 0.235536
N6    N     N_2   0.053528 0.824135 0.448104 -0.248761
H5    H     H_    0.035028 0.890290 0.498476 0.242445
C38   C     C_3   0.067049 0.858371 0.322214 -0.706960
H6    H     H_    0.027242 0.873737 0.268429 0.216890
H7    H     H_    0.093032 0.790263 0.275607 0.250667
H8    H     H_    0.092133 0.939726 0.323870 0.235364
N7    N     N_2   0.935872 0.818740 0.449761 -0.302388
H9    H     H_    0.908239 0.830407 0.376328 0.270478
C39   C     C_3   0.916887 0.863342 0.568671 -0.735680
H10   H     H_    0.886049 0.803426 0.612867 0.263502
H11   H     H_    0.895807 0.948789 0.555195 0.248969
H12   H     H_    0.953776 0.874927 0.632127 0.216947
N8    N     N_2   0.063995 0.181104 0.451329 -0.302284
H13   H     H_    0.091689 0.169422 0.378040 0.270452
C40   C     C_3   0.082857 0.136402 0.570341 -0.735109
H14   H     H_    0.113716 0.196199 0.614641 0.263805
H15   H     H_    0.103861 0.050871 0.556984 0.248820
H16   H     H_    0.045921 0.124944 0.633671 0.216718
N9    N     N_2   0.212049 0.606409 0.279631 -0.277118
H17   H     H_    0.229373 0.680854 0.243078 0.251328
C41   C     C_3   0.202386 0.519650 0.185093 -0.753194
H18   H     H_    0.177513 0.558519 0.107638 0.223450
H19   H     H_    0.177667 0.446016 0.223288 0.262701
H20   H     H_    0.243748 0.487215 0.148043 0.254453
N10   N     N_2   0.787917 0.390245 0.282016 -0.276843
H21   H     H_    0.770532 0.315345 0.246728 0.251650
C42   C     C_3   0.797702 0.475584 0.185987 -0.753981
H22   H     H_    0.822411 0.435438 0.109061 0.224086
H23   H     H_    0.822620 0.549504 0.222876 0.262377
H24   H     H_    0.756382 0.507899 0.148541 0.254558
N11   N     N_2   0.203125 0.434971 0.698425 -0.279642
H25   H     H_    0.162966 0.403884 0.679897 0.230641
C43   C     C_3   0.203254 0.514323 0.802472 -0.736503
H26   H     H_    0.179792 0.475161 0.881538 0.222451
H27   H     H_    0.181900 0.597001 0.776123 0.240854
H28   H     H_    0.247512 0.532242 0.833529 0.276030
N12   N     N_2   0.796648 0.569055 0.697381 -0.278284
H29   H     H_    0.837082 0.598554 0.678704 0.230439
C44   C     C_3   0.795645 0.492433 0.803826 -0.736907
H30   H     H_    0.819051 0.533007 0.882155 0.223240
H31   H     H_    0.816583 0.408574 0.780391 0.239925
H32   H     H_    0.751172 0.476407 0.834619 0.276222
O13   O     O_3   0.330070 0.627584 0.306824 -0.621971
C45   C     C_3   0.353979 0.731752 0.353396 0.134366
H33   H     H_    0.393371 0.749168 0.299299 0.180402
H34   H     H_    0.367234 0.726452 0.452761 0.105665
C46   C     C_3   0.312917 0.834148 0.335946 -0.404019
H35   H     H_    0.301016 0.841558 0.236249 0.229411
H36   H     H_    0.273605 0.819436 0.391323 0.237457
C47   C     C_3   0.340090 0.947568 0.378080 -0.925242
H37   H     H_    0.351596 0.942846 0.478149 0.262712
H38   H     H_    0.309386 0.020093 0.364610 0.271569
H39   H     H_    0.379059 0.965601 0.322762 0.265641
O14   O     O_3   0.669890 0.369074 0.309793 -0.621919
C48   C     C_3   0.646107 0.265703 0.358730 0.132368
H40   H     H_    0.606877 0.246766 0.304652 0.180064
H41   H     H_    0.632614 0.273067 0.457777 0.105843
C49   C     C_3   0.687418 0.163285 0.344369 -0.401521
H42   H     H_    0.699477 0.153690 0.244985 0.229157
H43   H     H_    0.726623 0.179613 0.399602 0.237696
C50   C     C_3   0.660436 0.050601 0.389382 -0.927856
H44   H     H_    0.648744 0.057526 0.489197 0.262320
H45   H     H_    0.691328 0.978071 0.378186 0.271184
H46   H     H_    0.621609 0.030904 0.334229 0.266116
O15   O     O_3   0.321407 0.415184 0.697663 -0.583963
C51   C     C_3   0.325836 0.294610 0.676494 0.159078
H47   H     H_    0.349818 0.276423 0.589100 0.076147
H48   H     H_    0.282845 0.254342 0.669491 0.147562
C52   C     C_3   0.358517 0.237999 0.783640 -0.345820
H49   H     H_    0.364552 0.144310 0.763101 0.168863
H50   H     H_    0.401352 0.278236 0.791811 0.236193
C53   C     C_3   0.326796 0.250624 0.906964 -0.774439
H51   H     H_    0.322011 0.343548 0.932141 0.285518
H52   H     H_    0.351281 0.206298 0.981630 0.231713
H53   H     H_    0.283913 0.210544 0.900574 0.244740
O16   O     O_3   0.678430 0.590908 0.694429 -0.584401
C54   C     C_3   0.673826 0.710614 0.668052 0.157588
H54   H     H_    0.649454 0.725412 0.580396 0.075950
H55   H     H_    0.716760 0.750728 0.658362 0.148146
C55   C     C_3   0.641562 0.771204 0.773235 -0.345606
H56   H     H_    0.635159 0.863919 0.748372 0.169148
H57   H     H_    0.598883 0.730867 0.784439 0.236477
C56   C     C_3   0.673998 0.763998 0.896225 -0.774406
H58   H     H_    0.679223 0.672222 0.925647 0.285339
H59   H     H_    0.649786 0.811020 0.969376 0.231429
H60   H     H_    0.716715 0.804344 0.886797 0.244855

loop_
_geom_bond_atom_site_label_1
_geom_bond_atom_site_label_2
_geom_bond_distance
_ccdc_geom_bond_type
C56   H60   1.111138 S    
N5    H1    1.030151 S    
C38   H7    1.111486 S    
C43   H26   1.110269 S    
N8    C40   1.448428 S    
N8    H13   1.029993 S    
C19   C23   1.397915 A    
C55   C56   1.528072 S    
C42   H22   1.110325 S    
O3    C2    1.262803 A    
C45   H34   1.114795 S    
C41   H18   1.110170 S    
N1    C30   1.428160 S    
C31   C33   1.176160 T    
C35   C36   1.499916 S    
C5    N1    1.361762 A    
C1    C31   1.385140 S    
C51   H47   1.115074 S    
C7    O11   1.349931 S    
O1    C1    1.262833 A    
C11   C17   1.422915 A    
C16   C17   1.402910 A    
C55   H57   1.112218 S    
C22   C26   1.398086 A    
C39   H10   1.109736 S    
C15   N5    1.427610 S    
C37   H3    1.111493 S    
C56   H58   1.111105 S    
C26   O16   1.383533 S    
C39   H11   1.109897 S    
O7    Zn1   2.000432 S    
C49   H42   1.111453 S    
C50   H46   1.111030 S    
N12   C44   1.446664 S    
C47   H37   1.111083 S    
C24   O14   1.388440 S    
C44   H30   1.110434 S    
C53   H51   1.110881 S    
C48   H41   1.114783 S    
O6    Zn2   2.000290 S    
C46   H35   1.111396 S    
C20   C30   1.405469 A    
C54   H55   1.114888 S    
N2    C29   1.428013 S    
O3    Zn1   1.945158 S    
C6    N2    1.361662 A    
C52   C53   1.527788 S    
C16   N6    1.427576 S    
C5    C11   1.408552 A    
C9    C15   1.414472 A    
C38   H8    1.110189 S    
C6    C12   1.408580 A    
C17   N7    1.425664 S    
C15   C18   1.402937 A    
C21   C25   1.398171 A    
C25   C27   1.407919 A    
O2    C2    1.262817 A    
C26   C28   1.407563 A    
C22   N12   1.427447 S    
C45   H33   1.110881 S    
C41   H19   1.109548 S    
N4    C36   1.193345 T    
N12   H29   1.028656 S    
C47   H38   1.110402 S    
N10   C42   1.445974 S    
C54   C55   1.528688 S    
C50   H45   1.110477 S    
C21   N11   1.427149 S    
N7    H9    1.029986 S    
C25   O15   1.383325 S    
C20   C24   1.397971 A    
C55   H56   1.111846 S    
O8    Zn2   2.000434 S    
O14   C48   1.420037 S    
N11   H25   1.028716 S    
N9    C41   1.445830 S    
C18   N8    1.425676 S    
O16   C54   1.413280 S    
C37   H4    1.110156 S    
C23   C27   1.415269 A    
C51   C52   1.528573 S    
C13   C14   1.409593 A    
N10   H21   1.029833 S    
C7    C9    1.403781 A    
C38   H6    1.111464 S    
N7    C39   1.448402 S    
C49   C50   1.527246 S    
C39   H12   1.110403 S    
O5    C3    1.274801 A    
C40   H14   1.109761 S    
N11   C43   1.446291 S    
Zn1   N4    1.962908 S    
C8    O12   1.349901 S    
Zn2   N3    1.962909 S    
C24   C28   1.414802 A    
O6    C4    1.273483 A    
C48   C49   1.531849 S    
N6    C38   1.446350 S    
C3    C27   1.460360 S    
C32   C34   1.176153 T    
C40   H15   1.109928 S    
C47   H39   1.110990 S    
C50   H44   1.111159 S    
C2    C32   1.385120 S    
C53   H52   1.110350 S    
C44   H31   1.111678 S    
C43   H28   1.110486 S    
O8    C3    1.273735 A    
N5    C37   1.446383 S    
O15   C51   1.412838 S    
C46   C47   1.527084 S    
C12   C18   1.423120 A    
O1    Zn1   1.945414 S    
C21   C29   1.410459 A    
C19   C29   1.404999 A    
C41   H20   1.111707 S    
C52   H49   1.111574 S    
C56   H59   1.110502 S    
C9    C13   1.416790 A    
C51   H48   1.114507 S    
C8    C10   1.403867 A    
C12   C14   1.421988 A    
O4    C1    1.262791 A    
C5    O9    1.347727 S    
C20   N10   1.425235 S    
C6    O10   1.347695 S    
C54   H54   1.115224 S    
C42   H23   1.109578 S    
C4    C28   1.459381 S    
C37   H2    1.111469 S    
C46   H36   1.111297 S    
C53   H53   1.110875 S    
C19   N9    1.425103 S    
C7    N1    1.359781 A    
C8    N2    1.359740 A    
C11   C13   1.421815 A    
O4    Zn2   1.945159 S    
N6    H5    1.030197 S    
O2    Zn2   1.945413 S    
C40   H16   1.110383 S    
C49   H43   1.111341 S    
C22   C30   1.410936 A    
O7    C4    1.274516 A    
N9    H17   1.029795 S    
O5    Zn1   2.000292 S    
C44   H32   1.110479 S    
C43   H27   1.111581 S    
C33   C34   1.364350 S    
C10   C14   1.416981 A    
C42   H24   1.111695 S    
O13   C45   1.419995 S    
C23   O13   1.388409 S    
C10   C16   1.414726 A    
N3    C35   1.193396 T    
C45   C46   1.531574 S    
C48   H40   1.110900 S    
C52   H50   1.111968 S    
