data_mof_unit_25426.cif
_audit_creation_date              2012-12-11T14:46:12-0500
_audit_creation_method            fapswitch 2.2
_symmetry_space_group_name_H-M    P1
_symmetry_Int_Tables_number       1
_space_group_crystal_system       triclinic
_cell_length_a                    10.972177
_cell_length_b                    10.969096
_cell_length_c                    18.821976
_cell_angle_alpha                 90.598961
_cell_angle_beta                  89.154622
_cell_angle_gamma                 120.082744
_cell_volume                      1959.95811395

loop_
_atom_site_label
_atom_site_type_symbol
_atom_type_description
_atom_site_fract_x
_atom_site_fract_y
_atom_site_fract_z
_atom_type_partial_charge
C1    C     C_R   0.866042 0.637430 0.603780 0.616170
C2    C     C_R   0.927298 0.130225 0.707363 -0.046460
C3    C     C_R   0.949465 0.141555 0.782106 -0.010367
C4    C     C_R   0.274952 0.635378 0.602194 0.594587
C5    C     C_R   0.758810 0.214528 0.726307 -0.013892
C6    C     C_R   0.796809 0.242252 0.798239 0.030533
C7    C     C_R   0.638139 0.220420 0.705592 -0.085596
C8    C     C_R   0.567048 0.262023 0.752668 -0.157916
C9    C     C_R   0.619825 0.309906 0.820026 -0.144872
C10   C     C_R   0.739740 0.308932 0.842146 0.045151
C11   C     C_R   0.838348 0.176814 0.678825 -0.047017
C12   C     C_R   0.393627 0.586974 0.775064 -0.004380
C13   C     C_R   0.914104 0.613031 0.725260 -0.140194
C14   C     C_R   0.902610 0.628517 0.797576 -0.144519
C15   C     C_R   0.808487 0.669147 0.822549 0.019170
C16   C     C_R   0.861333 0.231261 0.604874 0.519537
C17   C     C_R   0.741958 0.714324 0.775233 -0.155240
C18   C     C_R   0.753621 0.701306 0.702135 -0.020346
C19   C     C_R   0.838048 0.646576 0.677699 0.052386
C20   C     C_R   0.419277 0.627448 0.296937 0.013835
C21   C     C_R   0.433808 0.633028 0.223685 -0.132584
C22   C     C_R   0.382754 0.703911 0.182647 0.020029
C23   C     C_R   0.367337 0.579491 0.704056 -0.150968
C24   C     C_R   0.326912 0.779636 0.215420 -0.154137
C25   C     C_R   0.307047 0.770655 0.288531 -0.158380
C26   C     C_R   0.344726 0.687182 0.329066 0.041039
C27   C     C_R   0.716978 0.121473 0.292984 -0.143249
C28   C     C_R   0.867296 0.637189 0.396846 0.587675
C29   C     C_R   0.708350 0.111732 0.220398 -0.139706
C30   C     C_R   0.825740 0.136380 0.179053 0.000135
C31   C     C_R   0.950546 0.164309 0.211730 -0.114496
C32   C     C_R   0.960851 0.173468 0.285811 -0.006257
C33   C     C_R   0.844794 0.161854 0.326331 -0.008739
C34   C     C_R   0.344693 0.679386 0.670590 0.031131
C35   C     C_R   0.883229 0.783487 0.296092 -0.124429
C36   C     C_R   0.873101 0.796154 0.224039 -0.126552
C37   C     C_R   0.805747 0.675742 0.180587 0.027559
C38   C     C_R   0.742736 0.541576 0.210196 -0.160758
C39   C     C_R   0.755679 0.528626 0.282677 -0.145193
C40   C     C_R   0.275692 0.637049 0.397838 0.588466
C41   C     C_R   0.827784 0.650064 0.325545 0.047555
C42   C     C_R   0.811566 0.105644 0.895802 0.575924
C43   C     C_R   0.451220 0.720421 0.888924 0.558096
C44   C     C_R   0.797396 0.692159 0.897087 0.532839
C45   C     C_R   0.869491 0.180542 0.827380 0.025044
C46   C     C_R   0.803351 0.101064 0.104194 0.564788
C47   C     C_R   0.405949 0.708601 0.106639 0.566908
C48   C     C_R   0.795501 0.697638 0.105871 0.548573
C49   C     C_R   0.862154 0.225875 0.396648 0.535472
C50   C     C_R   0.366527 0.800722 0.708386 -0.018739
C51   C     C_R   0.398541 0.811279 0.780564 -0.192197
C52   C     C_R   0.409226 0.703845 0.814764 0.003817
C53   C     C_2   0.360539 0.919593 0.675869 0.218467
C54   C     C_2   0.681206 0.750206 0.654184 0.179621
C55   C     C_2   0.479532 0.555202 0.337214 0.269872
C56   C     C_R   0.052708 0.115266 0.809937 -0.024056
C57   C     C_2   0.090454 0.189670 0.318732 0.236227
C58   C     C_2   0.412840 0.472708 0.802443 0.246150
C59   C     C_2   0.951469 0.020646 0.590317 0.272545
C60   C     C_2   0.799992 0.375304 0.912022 0.229679
C61   C     C_R   0.123909 0.067557 0.766865 -0.130828
C62   C     C_R   0.092472 0.042207 0.695304 -0.092913
C63   C     C_R   0.993273 0.069909 0.664629 0.025766
Cr1   Cr    Cr6+3 0.791660 0.390250 0.499930 1.076756
Cr2   Cr    Cr6+3 0.098520 0.708290 0.500540 1.113989
Cr3   Cr    Cr6+3 0.109770 0.401430 0.499480 1.087705
Cr4   Cr    Cr6+3 0.874790 0.925890 0.000070 1.029899
Cr5   Cr    Cr6+3 0.574120 0.948670 0.999300 1.025213
Cr6   Cr    Cr6+3 0.551420 0.625320 0.000920 1.045785
H1    H     H_    0.588373 0.182505 0.655208 0.203607
H2    H     H_    0.607575 0.082071 0.196941 0.149629
H3    H     H_    0.939291 0.877676 0.328263 0.135495
H4    H     H_    0.918864 0.900873 0.202066 0.145474
H5    H     H_    0.688073 0.448244 0.177293 0.130221
H6    H     H_    0.358642 0.489027 0.675445 0.164757
H7    H     H_    0.084602 0.137410 0.864756 0.185840
H8    H     H_    0.336908 0.986390 0.709080 0.072672
H9    H     H_    0.471114 0.258040 0.736092 0.124835
H10   H     H_    0.966562 0.608813 0.833651 0.163246
H11   H     H_    0.646643 0.821009 0.674473 0.107118
H12   H     H_    0.566865 0.346700 0.855692 0.131449
H13   H     H_    0.488800 0.470612 0.312322 0.129895
H14   H     H_    0.037441 0.173322 0.179553 0.169983
H15   H     H_    0.088655 0.157086 0.373098 0.151348
H16   H     H_    0.713778 0.424041 0.304620 0.146220
H17   H     H_    0.501222 0.464886 0.782943 0.087994
H18   H     H_    0.202205 0.047624 0.789657 0.112339
H19   H     H_    0.143543 0.997290 0.663802 0.174123
H20   H     H_    0.848389 0.994711 0.571365 0.130788
H21   H     H_    0.739213 0.401642 0.948625 0.111271
H22   H     H_    0.985095 0.577823 0.706047 0.118067
H23   H     H_    0.682683 0.761761 0.795717 0.079120
H24   H     H_    0.487621 0.583426 0.198602 0.136433
H25   H     H_    0.293197 0.839887 0.184416 0.136077
H26   H     H_    0.416926 0.904608 0.809807 0.138920
H27   H     H_    0.252159 0.820203 0.312316 0.153024
H28   H     H_    0.624933 0.106249 0.322609 0.152493
O1    O     O_R   0.766500 0.250040 0.579790 -0.516828
O2    O     O_R   0.413330 0.603360 0.920440 -0.436356
O3    O     O_R   0.676110 0.626250 0.926750 -0.531022
O4    O     O_R   0.798570 0.516780 0.574780 -0.485090
O5    O     O_R   0.895350 0.809870 0.080950 -0.515661
O6    O     O_R   0.872490 0.049760 0.073800 -0.503173
O7    O     O_R   0.691680 0.088070 0.079070 -0.519324
O8    O     O_R   0.451720 0.825250 0.074050 -0.501979
O9    O     O_R   0.413580 0.606370 0.080960 -0.503201
O10   O     O_R   0.676340 0.629040 0.075550 -0.514490
O11   O     O_3   0.666780 0.833290 0.000090 -0.286180
O12   O     O_R   0.218690 0.701900 0.425960 -0.514497
O13   O     O_R   0.984000 0.732950 0.581090 -0.479815
O14   O     O_R   0.218600 0.700890 0.574760 -0.456270
O15   O     O_R   0.249390 0.515350 0.579940 -0.510678
O16   O     O_R   0.982790 0.280900 0.573700 -0.493517
O17   O     O_R   0.766600 0.251130 0.419260 -0.514455
O18   O     O_R   0.798660 0.517790 0.425980 -0.488181
O19   O     O_R   0.984100 0.734040 0.420570 -0.504716
O20   O     O_2   0.391548 0.950739 0.613519 -0.490604
O21   O     O_2   0.657320 0.711336 0.592373 -0.476870
O22   O     O_2   0.523200 0.592145 0.397464 -0.464710
O23   O     O_R   0.249490 0.516440 0.419420 -0.463226
O24   O     O_2   0.200361 0.236130 0.284720 -0.540218
O25   O     O_2   0.325602 0.382406 0.841708 -0.498804
O26   O     O_2   0.032291 0.009291 0.549117 -0.487214
O27   O     O_2   0.919121 0.405215 0.928444 -0.501861
O28   O     O_R   0.982880 0.281910 0.424890 -0.515845
O29   O     O_3   0.999980 0.499990 0.499980 -0.293950
O30   O     O_R   0.895110 0.806860 0.920430 -0.505851
O31   O     O_R   0.872260 0.046970 0.925000 -0.513948
O32   O     O_R   0.691430 0.085060 0.918550 -0.520675
O33   O     O_R   0.451490 0.822460 0.925250 -0.502344

loop_
_geom_bond_atom_site_label_1
_geom_bond_atom_site_label_2
_ccdc_geom_bond_type
C44   O30   A    
C56   H7    S    
Cr3   O16   S    
C27   C29   A    
C53   H8    S    
C35   C36   A    
C26   C40   S    
C16   O16   A    
C7    H1    S    
Cr6   O10   S    
Cr4   O6    S    
C7    C8    A    
C39   C41   A    
C55   O22   D    
C27   C33   A    
C12   C23   A    
C29   C30   A    
C21   H24   S    
C36   C37   A    
C6    C45   A    
C37   C38   A    
C43   O2    A    
C15   C44   S    
C5    C11   A    
Cr4   O30   S    
C62   H19   S    
C30   C31   A    
C53   O20   D    
Cr4   O11   S    
C48   O10   A    
C33   C49   S    
C28   C41   S    
C31   H14   S    
C18   C19   A    
C59   H20   S    
C60   O27   D    
Cr2   O14   S    
C28   O19   A    
C8    C9    A    
C47   O8    A    
C61   H18   S    
C9    C10   A    
C42   O31   A    
C12   C58   S    
C23   C34   A    
Cr1   O1    S    
C22   C47   S    
C4    O15   A    
Cr1   O18   S    
Cr3   O23   S    
C13   C14   A    
C13   H22   S    
C8    H9    S    
C61   C62   A    
C17   H23   S    
C32   C57   S    
C20   C55   S    
C35   C41   A    
C2    C11   A    
C58   H17   S    
C12   C52   A    
Cr6   O11   S    
C50   C51   A    
C54   H11   S    
C59   O26   D    
Cr1   O4    S    
C4    C34   S    
C58   O25   D    
C50   C53   S    
C1    C19   S    
C13   C19   A    
C51   C52   A    
Cr1   O17   S    
C24   C25   A    
C5    C7    A    
C25   C26   A    
C46   O7    A    
C3    C45   A    
Cr3   O29   S    
C55   H13   S    
C42   C45   S    
C38   C39   A    
C10   C60   S    
C62   C63   A    
C28   O18   A    
C24   H25   S    
C1    O13   A    
C11   C16   S    
C31   C32   A    
C47   O9    A    
C48   O5    A    
C17   C18   A    
C57   H15   S    
C14   H10   S    
C37   C48   S    
Cr5   O33   S    
Cr2   O12   S    
Cr6   O2    S    
C40   O23   A    
C4    O14   A    
C35   H3    S    
Cr1   O29   S    
C54   O21   D    
Cr2   O19   S    
C22   C24   A    
Cr5   O8    S    
C39   H16   S    
C3    C56   A    
C1    O4    A    
C2    C63   A    
C38   H5    S    
C15   C17   A    
C27   H28   S    
C14   C15   A    
C30   C46   S    
C43   O33   A    
Cr5   O7    S    
C23   H6    S    
C6    C10   A    
C34   C50   A    
Cr6   O9    S    
C40   O12   A    
C60   H21   S    
C49   O28   A    
C46   O6    A    
C59   C63   S    
Cr3   O28   S    
Cr2   O29   S    
C2    C3    A    
Cr4   O31   S    
C32   C33   A    
C44   O3    A    
C16   O1    A    
C5    C6    A    
C20   C26   A    
C49   O17   A    
C42   O32   A    
Cr5   O32   S    
C43   C52   S    
Cr2   O13   S    
C36   H4    S    
C18   C54   S    
C57   O24   D    
Cr6   O3    S    
C20   C21   A    
C25   H27   S    
C9    H12   S    
C56   C61   A    
Cr5   O11   S    
Cr3   O15   S    
C21   C22   A    
Cr4   O5    S    
C51   H26   S    
C29   H2    S    
