data_mof_unit_33703.cif
_audit_creation_date              2013-03-05T16:02:17-0500
_audit_creation_method            fapswitch 2.2
_symmetry_space_group_name_H-M    P1
_symmetry_Int_Tables_number       1
_space_group_crystal_system       triclinic
_cell_length_a                    22.399531
_cell_length_b                    7.059345
_cell_length_c                    14.534301
_cell_angle_alpha                 89.919523
_cell_angle_beta                  104.091018
_cell_angle_gamma                 90.151797
_cell_volume                      2229.08869166

loop_
_atom_site_label
_atom_site_type_symbol
_atom_site_description
_atom_site_fract_x
_atom_site_fract_y
_atom_site_fract_z
_atom_type_partial_charge
O1    O     O_R   0.835850 0.638310 0.002120 -0.559266
O2    O     O_R   0.164150 0.361690 0.997880 -0.540487
O3    O     O_R   0.664150 0.138310 0.997880 -0.540481
O4    O     O_R   0.335850 0.861690 0.002120 -0.577132
O5    O     O_R   0.717530 0.306070 0.861970 -0.525929
O6    O     O_R   0.282470 0.693930 0.138030 -0.554644
O7    O     O_R   0.782470 0.806070 0.138030 -0.530079
O8    O     O_R   0.217530 0.193930 0.861970 -0.511546
C1    C     C_R   0.703620 0.477766 0.823333 1.193783
C2    C     C_R   0.297540 0.523538 0.175805 1.193288
C3    C     C_R   0.797995 0.976617 0.175803 1.177746
C4    C     C_R   0.201970 0.022762 0.824823 1.120487
O9    O     O_R   0.838690 0.308440 0.993250 -0.573982
O10   O     O_R   0.161310 0.691560 0.006750 -0.594135
O11   O     O_R   0.661310 0.808440 0.006750 -0.570724
O12   O     O_R   0.338690 0.191560 0.993250 -0.536222
O13   O     O_R   0.786170 0.140510 0.130090 -0.553598
O14   O     O_R   0.213830 0.859490 0.869910 -0.582036
O15   O     O_R   0.713830 0.640510 0.869910 -0.562848
O16   O     O_R   0.286170 0.359490 0.130090 -0.536592
C5    C     C_R   0.865173 0.477778 0.996441 1.022703
C6    C     C_R   0.134533 0.521921 0.001764 1.017358
C7    C     C_R   0.634379 0.976935 0.001383 1.031230
C8    C     C_R   0.365558 0.022757 0.999179 1.037241
O17   O     O_3   0.732630 0.472520 0.044740 -0.252591
O18   O     O_3   0.267370 0.527480 0.955260 -0.250346
O19   O     O_3   0.767370 0.972520 0.955260 -0.261332
O20   O     O_3   0.232630 0.027480 0.044740 -0.253615
V1    V     V_3+5 0.753220 0.196740 0.991700 1.426878
V2    V     V_3+5 0.246780 0.803260 0.008300 1.394278
V3    V     V_3+5 0.746780 0.696740 0.008300 1.425081
V4    V     V_3+5 0.253220 0.303260 0.991700 1.438901
C9    C     C_R   0.535395 0.011356 0.824696 0.157732
C10   C     C_R   0.465084 0.056578 0.175347 0.180892
C11   C     C_R   0.963523 0.461520 0.175320 0.163776
C12   C     C_R   0.037517 0.491051 0.824094 0.172153
C13   C     C_R   0.491855 0.997614 0.737390 0.045310
C14   C     C_R   0.507617 0.033650 0.263576 0.030191
C15   C     C_R   0.007328 0.434311 0.261613 0.039991
C16   C     C_R   0.994669 0.500605 0.735996 0.140188
C17   C     C_R   0.429678 0.979312 0.735469 0.199822
C18   C     C_R   0.568929 0.994286 0.265802 0.182372
C19   C     C_R   0.068921 0.416156 0.260818 0.183561
C20   C     C_R   0.932202 0.508040 0.733533 0.146259
C21   C     C_R   0.411285 0.981838 0.821437 0.228803
C22   C     C_R   0.587442 0.986484 0.180054 0.238506
C23   C     C_R   0.087365 0.443506 0.176155 0.228152
C24   C     C_R   0.913024 0.508123 0.818894 0.227631
C25   C     C_R   0.454314 0.994402 0.911974 -0.066676
C26   C     C_R   0.545030 0.996243 0.089122 -0.062105
C27   C     C_R   0.044841 0.476762 0.087219 -0.057725
C28   C     C_R   0.955130 0.503734 0.910164 -0.057047
C29   C     C_R   0.518785 0.996465 0.913395 -0.043906
C30   C     C_R   0.481019 0.021345 0.087264 -0.050695
C31   C     C_R   0.980255 0.476095 0.085915 -0.068977
C32   C     C_R   0.019735 0.504873 0.912326 -0.076137
C33   C     C_R   0.434462 0.013878 0.999070 -0.148415
C34   C     C_R   0.565271 0.988992 0.001748 -0.147607
C35   C     C_R   0.065466 0.504926 0.001101 -0.142744
C36   C     C_R   0.934289 0.489320 0.997212 -0.147389
C37   C     C_R   0.168753 0.009669 0.722215 -0.296297
C38   C     C_R   0.828100 0.983901 0.280699 -0.203358
C39   C     C_R   0.327643 0.514234 0.280381 -0.212899
C40   C     C_R   0.673088 0.489926 0.718108 -0.205203
C41   C     C_R   0.175906 0.010860 0.557579 0.630616
C42   C     C_R   0.818177 0.027903 0.443100 0.628713
C43   C     C_R   0.319730 0.444492 0.441542 0.634878
C44   C     C_R   0.681873 0.521753 0.553765 0.624559
C45   C     C_R   0.200150 0.054651 0.653326 -0.225502
C46   C     C_R   0.792563 0.014057 0.345593 -0.275384
C47   C     C_R   0.295083 0.446412 0.343402 -0.261388
C48   C     C_R   0.708113 0.493959 0.650880 -0.282133
C49   C     C_R   0.106803 0.944449 0.691523 0.588643
C50   C     C_R   0.892610 0.978261 0.315485 0.584769
C51   C     C_R   0.389413 0.566407 0.316645 0.552275
C52   C     C_R   0.609888 0.528727 0.685393 0.563689
C53   C     C_R   0.076674 0.945479 0.592294 -0.018501
C54   C     C_R   0.920141 0.960614 0.416435 -0.082202
C55   C     C_R   0.420045 0.530696 0.415367 -0.090005
C56   C     C_R   0.579573 0.515442 0.585162 -0.100859
C57   C     C_R   0.114341 0.948650 0.526383 -0.149336
C58   C     C_R   0.881218 0.986878 0.480347 -0.108521
C59   C     C_R   0.382566 0.489648 0.480068 -0.098225
C60   C     C_R   0.617254 0.511048 0.518621 -0.100520
C61   C     C_R   0.010791 0.943690 0.555733 0.176370
C62   C     C_R   0.984782 0.925026 0.456300 0.175576
C63   C     C_R   0.486107 0.521253 0.450416 0.204384
C64   C     C_R   0.513616 0.506287 0.549255 0.188985
C65   C     C_R   0.024785 0.873119 0.399829 -0.270958
C66   C     C_R   0.970490 0.973490 0.614636 -0.230627
C67   C     C_R   0.474700 0.471516 0.609529 -0.279734
C68   C     C_R   0.524945 0.500676 0.388625 -0.313916
C69   C     C_R   0.088471 0.892738 0.431109 0.450893
C70   C     C_R   0.906889 0.981243 0.580061 0.442351
C71   C     C_R   0.410598 0.476316 0.579665 0.437365
C72   C     C_R   0.588990 0.498067 0.419425 0.456366
H1    H     H_    0.744513 0.037888 0.321504 0.245110
H2    H     H_    0.245293 0.115126 0.673171 0.238723
H3    H     H_    0.756762 0.490776 0.673294 0.250070
H4    H     H_    0.249494 0.393529 0.317460 0.247994
H5    H     H_    0.007110 0.818998 0.329180 0.206972
H6    H     H_    0.987134 0.000047 0.689053 0.219332
H7    H     H_    0.494116 0.430198 0.681765 0.219782
H8    H     H_    0.505688 0.470876 0.314570 0.210634
N1    N     N_R   0.614207 0.978329 0.355655 0.270213
O21   O     O_R   0.657988 0.854032 0.367351 -0.317264
O22   O     O_R   0.611955 0.085911 0.427285 -0.339029
N2    N     N_R   0.383990 0.982913 0.645661 0.273800
O23   O     O_R   0.332859 0.889989 0.634342 -0.335037
O24   O     O_R   0.391536 0.085329 0.575052 -0.334612
N3    N     N_R   0.887211 0.494546 0.643917 0.272148
O25   O     O_R   0.846046 0.361354 0.630627 -0.321475
O26   O     O_R   0.893788 0.589442 0.570368 -0.357764
N4    N     N_R   0.114354 0.371471 0.346533 0.268964
O27   O     O_R   0.153788 0.237897 0.345651 -0.314359
O28   O     O_R   0.115883 0.458148 0.426004 -0.324599
N5    N     N_R   0.592840 0.090729 0.821968 0.236002
O29   O     O_R   0.599713 0.270732 0.837881 -0.393798
O30   O     O_R   0.634204 0.993692 0.793217 -0.342714
N6    N     N_R   0.409873 0.153267 0.175621 0.232023
O31   O     O_R   0.406623 0.331911 0.153899 -0.402061
O32   O     O_R   0.364460 0.067328 0.199777 -0.339654
N7    N     N_R   0.902762 0.498865 0.182191 0.238947
O33   O     O_R   0.871753 0.371770 0.215550 -0.357572
O34   O     O_R   0.888126 0.674445 0.185908 -0.375721
N8    N     N_R   0.093219 0.398785 0.822356 0.231606
O35   O     O_R   0.139347 0.489660 0.803093 -0.338233
O36   O     O_R   0.096123 0.217979 0.838210 -0.463625
N9    N     N_R   0.510994 0.000700 0.649527 0.276170
O37   O     O_R   0.486636 0.882263 0.582831 -0.347214
O38   O     O_R   0.553675 0.114626 0.635890 -0.316462
N10   N     N_R   0.488143 0.042463 0.351426 0.271634
O39   O     O_R   0.510189 0.922266 0.418637 -0.320401
O40   O     O_R   0.442883 0.148926 0.360885 -0.337529
N11   N     N_R   0.988679 0.421660 0.350187 0.275997
O41   O     O_R   0.013121 0.296312 0.413349 -0.358482
O42   O     O_R   0.946401 0.531376 0.368236 -0.296721
N12   N     N_R   0.014516 0.470162 0.649474 0.280681
O43   O     O_R   0.983884 0.358638 0.583787 -0.319719
O44   O     O_R   0.065428 0.543053 0.637747 -0.304418
N13   N     N_R   0.347493 0.996229 0.813815 0.200529
O45   O     O_R   0.322769 0.163538 0.805625 -0.391960
O46   O     O_R   0.313775 0.843859 0.803078 -0.355433
N14   N     N_R   0.651263 0.988965 0.187775 0.190033
O47   O     O_R   0.678678 0.151261 0.186377 -0.405090
O48   O     O_R   0.681693 0.830621 0.199064 -0.364771
N15   N     N_R   0.151327 0.444836 0.183996 0.193588
O49   O     O_R   0.181594 0.601577 0.208036 -0.405224
O50   O     O_R   0.179653 0.286078 0.178507 -0.369382
N16   N     N_R   0.849077 0.504268 0.810331 0.189534
O51   O     O_R   0.818922 0.662673 0.805055 -0.393945
O52   O     O_R   0.821172 0.341295 0.804079 -0.385544
N17   N     N_R   0.125094 0.852301 0.364356 0.289868
O53   O     O_R   0.176267 0.757775 0.390182 -0.274836
O54   O     O_R   0.102636 0.884156 0.274306 -0.355526
N18   N     N_R   0.869713 0.970418 0.648574 0.289780
O55   O     O_R   0.822100 0.858513 0.633745 -0.297211
O56   O     O_R   0.890987 0.035654 0.734075 -0.343871
N19   N     N_R   0.376858 0.457655 0.653110 0.273476
O57   O     O_R   0.324039 0.539035 0.645871 -0.230091
O58   O     O_R   0.404941 0.396003 0.736840 -0.391524
N20   N     N_R   0.622929 0.473206 0.347227 0.287934
O59   O     O_R   0.669550 0.358664 0.359873 -0.298419
O60   O     O_R   0.599939 0.536069 0.261687 -0.356096
O61   O     O_3   0.926269 0.006023 0.248880 -0.737090
H9    H     H_    0.961432 0.088491 0.277065 0.332320
O62   O     O_3   0.076445 0.865782 0.754605 -0.755202
H10   H     H_    0.102638 0.863970 0.819815 0.335078
O63   O     O_3   0.581414 0.596307 0.752506 -0.731364
H11   H     H_    0.549875 0.686833 0.720855 0.326085
O64   O     O_3   0.417188 0.653412 0.253255 -0.733379
H12   H     H_    0.451022 0.730479 0.289574 0.336312
O65   O     O_3   0.210900 0.040425 0.493127 -0.634400
H13   H     H_    0.254235 0.060228 0.527020 0.395428
O66   O     O_3   0.782582 0.092643 0.501926 -0.631751
H14   H     H_    0.739717 0.113396 0.465271 0.384786
O67   O     O_3   0.283828 0.376297 0.498389 -0.679545
H15   H     H_    0.239962 0.396524 0.466452 0.390526
O68   O     O_3   0.718855 0.569886 0.493904 -0.629356
H16   H     H_    0.762335 0.578319 0.529996 0.385232

loop_
_geom_bond_atom_site_label_1
_geom_bond_atom_site_label_2
_geom_bond_distance
_ccdc_geom_bond_type
O17   V3    1.721364 S    
C7    C34   1.551849 S    
C63   C64   1.422482 A    
O1    C5    1.324043 A    
O61   H9    0.984002 S    
C58   C70   1.423654 A    
C17   N2    1.449616 S    
C24   N16   1.407457 S    
O19   V1    1.724274 S    
C1    C40   1.518127 S    
O13   V1    2.006113 S    
O63   H11   0.981041 S    
N1    O21   1.297498 A    
O3    C7    1.325679 A    
N3    O25   1.296456 A    
C68   C72   1.395065 A    
C49   O62   1.382593 S    
C3    C38   1.510362 S    
O15   V3    2.006457 S    
C2    C39   1.506696 S    
C55   C63   1.444640 A    
N4    O27   1.295945 A    
N11   O41   1.296556 A    
C15   N11   1.449525 S    
C61   C62   1.426719 A    
O7    C3    1.333606 A    
N1    O22   1.300466 A    
C26   C30   1.438912 A    
C51   C55   1.453840 A    
C71   N19   1.455996 S    
O9    V1    2.063638 S    
N18   O55   1.300784 A    
N15   O50   1.301396 A    
C14   C18   1.394552 A    
N5    O30   1.301919 A    
C19   N4    1.438912 S    
C18   C22   1.407187 A    
O4    C8    1.321810 A    
C25   C29   1.439269 A    
N7    O34   1.287506 A    
O1    V3    2.061664 S    
C25   C33   1.447073 A    
N2    O23   1.293707 A    
C38   C46   1.391250 A    
O17   V1    2.186145 S    
O2    V4    2.061666 S    
C60   C72   1.429483 A    
O3    V1    2.059499 S    
C66   H6    1.071374 S    
C12   C16   1.402474 A    
C28   C36   1.454631 A    
N13   O45   1.298777 A    
N18   O56   1.302134 A    
C1    O15   1.325099 A    
N15   O49   1.299155 A    
C2    O16   1.328785 A    
N10   O39   1.297354 A    
C16   N12   1.448691 S    
O2    C6    1.321034 A    
N19   O58   1.301258 A    
O14   V2    2.006113 S    
C21   C25   1.432041 A    
N17   O54   1.302228 A    
C16   C20   1.392080 A    
N20   O60   1.302204 A    
C46   H1    1.061418 S    
C56   C60   1.430522 A    
C41   O65   1.375359 S    
C45   H2    1.069564 S    
C54   C62   1.445114 A    
O11   C7    1.328700 A    
C53   C61   1.441680 A    
O12   C8    1.329613 A    
C31   C36   1.443866 A    
C21   N13   1.409971 S    
O10   V2    2.063636 S    
N6    O32   1.302353 A    
C66   C70   1.391703 A    
O5    V1    2.013758 S    
C9    C29   1.429817 A    
C9    N5    1.411467 S    
C61   C66   1.403538 A    
C23   N15   1.409312 S    
O7    V3    2.014166 S    
C11   C31   1.440887 A    
C44   C60   1.414633 A    
N7    O33   1.296917 A    
C5    C36   1.547414 S    
N14   O48   1.300032 A    
C43   O67   1.371687 S    
C6    C35   1.549090 S    
O18   V4    1.721364 S    
C8    C33   1.545244 S    
C23   C27   1.426218 A    
C27   C31   1.442193 A    
C37   C49   1.425594 A    
O65   H13   0.985432 S    
O19   V3    2.182036 S    
C65   C69   1.394346 A    
C9    C13   1.402852 A    
C44   C48   1.404342 A    
N13   O46   1.300208 A    
O8    V4    2.014165 S    
C11   C15   1.404922 A    
O5    C1    1.340307 A    
C12   C32   1.435962 A    
C42   C58   1.414367 A    
C57   C69   1.420808 A    
C54   C58   1.432865 A    
C41   C57   1.411770 A    
N19   O57   1.297584 A    
C64   C67   1.399173 A    
O20   V4    2.182037 S    
O8    C4    1.334545 A    
C59   C71   1.433848 A    
C40   C52   1.406817 A    
C26   C34   1.449663 A    
O9    C5    1.328934 A    
N3    O26   1.298985 A    
C43   C59   1.417944 A    
O11   V3    2.067484 S    
O64   H12   0.976121 S    
N12   O44   1.298309 A    
O67   H15   0.989839 S    
N10   O40   1.297577 A    
O6    V2    2.013759 S    
C39   C47   1.386493 A    
O18   V2    2.186145 S    
C51   O64   1.374294 S    
N16   O52   1.300532 A    
C42   O66   1.382235 S    
C27   C35   1.449148 A    
O62   H10   0.985864 S    
N6    O31   1.297512 A    
N20   O59   1.299516 A    
O16   V4    2.006457 S    
C37   C45   1.392389 A    
N11   O42   1.300355 A    
N4    O28   1.300907 A    
C3    O13   1.328146 A    
N8    O36   1.295672 A    
C65   H5    1.076770 S    
C10   C14   1.408421 A    
C12   N8    1.414666 S    
C52   C56   1.452756 A    
C67   H7    1.074243 S    
N14   O47   1.300939 A    
C62   C65   1.404102 A    
O6    C2    1.331273 A    
C22   N14   1.406526 S    
C29   C34   1.443969 A    
N2    O24   1.298543 A    
C10   C30   1.432521 A    
O12   V4    2.067486 S    
C47   H4    1.065466 S    
C22   C26   1.429225 A    
C44   O68   1.381027 S    
C32   C35   1.438943 A    
O10   C6    1.332061 A    
C69   N17   1.444060 S    
N9    O37   1.295660 A    
O20   V2    1.724274 S    
C56   C64   1.443403 A    
O66   H14   0.989261 S    
C17   C21   1.407858 A    
N5    O29   1.293958 A    
C30   C33   1.443057 A    
C55   C59   1.433674 A    
C4    C37   1.498654 S    
C42   C46   1.396906 A    
C39   C51   1.403767 A    
N8    O35   1.301686 A    
C41   C45   1.399780 A    
C11   N7    1.414199 S    
C72   N20   1.448966 S    
C43   C47   1.398613 A    
C40   C48   1.394324 A    
C13   C17   1.391860 A    
C52   O63   1.375387 S    
C18   N1    1.449851 S    
N12   O43   1.297070 A    
C68   H8    1.078373 S    
C67   C71   1.395699 A    
O68   H16   0.989085 S    
C20   N3    1.442883 S    
C20   C24   1.408296 A    
C24   C28   1.428659 A    
C15   C19   1.388781 A    
C10   N6    1.414997 S    
C70   N18   1.447089 S    
C53   C57   1.422486 A    
C50   C54   1.451870 A    
C4    O14   1.320308 A    
C49   C53   1.435808 A    
N16   O51   1.300431 A    
C38   C50   1.410588 A    
N17   O53   1.301509 A    
C63   C68   1.402134 A    
C19   C23   1.403063 A    
C13   N9    1.442745 S    
C50   O61   1.377686 S    
O4    V2    2.059497 S    
C28   C32   1.439789 A    
C14   N10   1.447765 S    
N9    O38   1.299171 A    
C48   H3    1.058931 S    
