data_mof_unit_26232.cif
_audit_creation_date              2012-12-11T15:08:54-0500
_audit_creation_method            fapswitch 2.2
_symmetry_space_group_name_H-M    P1
_symmetry_Int_Tables_number       1
_space_group_crystal_system       triclinic
_cell_length_a                    19.588796
_cell_length_b                    11.296834
_cell_length_c                    18.687421
_cell_angle_alpha                 90.176689
_cell_angle_beta                  89.403895
_cell_angle_gamma                 90.051886
_cell_volume                      4135.12006915

loop_
_atom_site_label
_atom_site_type_symbol
_atom_type_description
_atom_site_fract_x
_atom_site_fract_y
_atom_site_fract_z
_atom_type_partial_charge
C1    C     C_R   0.272864 0.041987 0.854874 0.522878
C2    C     C_3   0.691362 0.514937 0.960008 -0.234132
C3    C     C_R   0.224470 0.539663 0.355261 0.556878
C4    C     C_R   0.470479 0.823046 0.646479 0.532085
C5    C     C_R   0.530773 0.823522 0.354398 0.529808
C6    C     C_R   0.970479 0.323046 0.646479 0.532085
C7    C     C_R   0.030773 0.323522 0.354398 0.529808
C8    C     C_R   0.260871 0.640169 0.643693 0.540464
C9    C     C_R   0.737313 0.645064 0.358168 0.543255
C10   C     C_R   0.760871 0.140168 0.643693 0.540464
C11   C     C_R   0.237313 0.145064 0.358168 0.543255
C12   C     C_3   0.472066 0.911512 0.039503 -0.111189
C13   C     C_3   0.816094 0.039632 0.045017 -0.237933
C14   C     C_3   0.511113 0.924521 0.967323 -0.112629
C15   C     C_3   0.972066 0.411512 0.039503 -0.111189
C16   C     C_3   0.011113 0.424521 0.967323 -0.112629
C17   C     C_3   0.429736 0.808572 0.007798 -0.160298
C18   C     C_3   0.564728 0.834262 0.992308 -0.160824
C19   C     C_3   0.929736 0.308573 0.007798 -0.160298
C20   C     C_3   0.064728 0.334262 0.992308 -0.160824
C21   C     C_3   0.469329 0.822312 0.936621 0.055455
C22   C     C_3   0.525562 0.822013 0.063880 0.060365
C23   C     C_3   0.969329 0.322312 0.936621 0.055455
C24   C     C_3   0.191362 0.014937 0.960008 -0.234132
C25   C     C_3   0.025562 0.322013 0.063880 0.060365
C26   C     C_3   0.366899 0.648539 0.325753 -0.281889
C27   C     C_3   0.619738 0.627615 0.672787 -0.284665
C28   C     C_3   0.866899 0.148539 0.325753 -0.281890
C29   C     C_3   0.119738 0.127615 0.672787 -0.284665
C30   C     C_3   0.323418 0.559115 0.963494 -0.230205
C31   C     C_3   0.687295 0.522679 0.042449 -0.240557
C32   C     C_3   0.823418 0.059115 0.963494 -0.230205
C33   C     C_3   0.187295 0.022679 0.042449 -0.240557
C34   C     C_3   0.187005 0.512929 0.026746 -0.209903
C35   C     C_3   0.822916 0.529899 0.973569 -0.206797
C36   C     C_3   0.687005 0.012929 0.026746 -0.209903
C37   C     C_R   0.728346 0.044666 0.146632 0.524528
C38   C     C_3   0.322916 0.029899 0.973569 -0.206797
C39   C     C_3   0.235729 0.707565 0.056495 -0.256090
C40   C     C_3   0.752736 0.703495 0.945033 -0.254086
C41   C     C_3   0.735729 0.207565 0.056495 -0.256090
C42   C     C_3   0.252736 0.203495 0.945033 -0.254086
C43   C     C_3   0.243294 0.575568 0.070969 0.067896
C44   C     C_3   0.758993 0.571217 0.931193 0.066121
C45   C     C_3   0.743294 0.075568 0.070969 0.067896
C46   C     C_3   0.258993 0.071217 0.931193 0.066121
C47   C     C_3   0.256225 0.610827 0.932537 0.055397
C48   C     C_R   0.772864 0.541987 0.854874 0.522878
C49   C     C_3   0.745303 0.604412 0.069706 0.059343
C50   C     C_3   0.756225 0.110827 0.932537 0.055397
C51   C     C_3   0.245303 0.104412 0.069706 0.059343
C52   C     C_3   0.199895 0.520134 0.945508 -0.258360
C53   C     C_3   0.813844 0.544505 0.054523 -0.248105
C54   C     C_3   0.699895 0.020134 0.945508 -0.258360
C55   C     C_3   0.313844 0.044505 0.054523 -0.248105
C56   C     C_3   0.236093 0.724675 0.974771 -0.223853
C57   C     C_3   0.740547 0.720438 0.026203 -0.221558
C58   C     C_3   0.736093 0.224675 0.974771 -0.223853
C59   C     C_R   0.228346 0.544666 0.146632 0.524528
C60   C     C_3   0.240547 0.220438 0.026203 -0.221558
C61   C     C_3   0.509470 0.703286 0.461221 -0.236135
C62   C     C_3   0.500688 0.702194 0.540061 -0.249018
C63   C     C_3   0.009470 0.203286 0.461221 -0.236135
C64   C     C_3   0.000688 0.202194 0.540061 -0.249019
C65   C     C_R   0.443211 0.817437 0.862534 0.537266
C66   C     C_R   0.553963 0.817534 0.137232 0.538350
C67   C     C_R   0.943211 0.317437 0.862534 0.537266
C68   C     C_R   0.053962 0.317534 0.137232 0.538350
C69   C     C_3   0.561130 0.911760 0.471871 -0.210651
C70   C     C_3   0.522285 0.732248 0.961625 -0.108970
C71   C     C_3   0.432313 0.886523 0.529004 -0.217418
C72   C     C_3   0.061130 0.411760 0.471871 -0.210651
C73   C     C_3   0.932313 0.386523 0.529004 -0.217418
C74   C     C_3   0.440055 0.882305 0.446474 -0.270014
C75   C     C_3   0.555098 0.899537 0.553918 -0.260823
C76   C     C_3   0.940056 0.382305 0.446474 -0.270014
C77   C     C_3   0.055098 0.399537 0.553918 -0.260823
C78   C     C_3   0.510385 0.830396 0.430986 0.064687
C79   C     C_3   0.490937 0.828546 0.569780 0.056190
C80   C     C_3   0.010385 0.330396 0.430986 0.064687
C81   C     C_3   0.483522 0.719350 0.033081 -0.110987
C82   C     C_3   0.990937 0.328546 0.569780 0.056190
C83   C     C_3   0.175317 0.641038 0.461654 -0.259943
C84   C     C_3   0.817202 0.661070 0.542842 -0.264747
C85   C     C_3   0.675317 0.141038 0.461654 -0.259943
C86   C     C_3   0.317202 0.161070 0.542842 -0.264747
C87   C     C_3   0.179460 0.648390 0.541657 -0.241091
C88   C     C_3   0.813206 0.666638 0.462891 -0.238896
C89   C     C_3   0.679460 0.148390 0.541657 -0.241091
C90   C     C_3   0.313206 0.166638 0.462891 -0.238896
C91   C     C_3   0.252116 0.455143 0.473264 -0.216476
C92   C     C_3   0.022285 0.232248 0.961625 -0.108970
C93   C     C_3   0.760402 0.461526 0.525804 -0.230654
C94   C     C_3   0.752116 0.955143 0.473264 -0.216476
C95   C     C_3   0.260402 0.961526 0.525804 -0.230654
C96   C     C_3   0.297573 0.654184 0.439165 0.004394
C97   C     C_3   0.693244 0.640880 0.562754 0.006109
C98   C     C_3   0.797573 0.154184 0.439165 0.004394
C99   C     C_3   0.193244 0.140880 0.562754 0.006109
C100  C     C_3   0.237180 0.571169 0.430145 0.090335
C101  C     C_3   0.760676 0.576843 0.571596 0.088074
C102  C     C_3   0.737180 0.071169 0.430145 0.090335
C103  C     C_3   0.983522 0.219350 0.033081 -0.110987
C104  C     C_3   0.260676 0.076843 0.571596 0.088074
C105  C     C_3   0.250943 0.605719 0.567537 0.042409
C106  C     C_3   0.745206 0.611154 0.434462 0.046108
C107  C     C_3   0.750943 0.105719 0.567537 0.042409
C108  C     C_3   0.245206 0.111154 0.434462 0.046108
C109  C     C_3   0.254366 0.474069 0.554723 -0.269071
C110  C     C_3   0.752838 0.479294 0.444628 -0.272245
C111  C     C_3   0.754366 0.974069 0.554723 -0.269071
C112  C     C_3   0.252839 0.979294 0.444628 -0.272244
C113  C     C_R   0.262428 0.642814 0.855184 0.535149
C114  C     C_3   0.316094 0.539632 0.045017 -0.237933
C115  C     C_R   0.738643 0.638364 0.146475 0.534259
C116  C     C_R   0.762428 0.142814 0.855184 0.535149
C117  C     C_R   0.238643 0.138364 0.146475 0.534259
C118  C     C_3   0.308075 0.663532 0.521260 -0.198022
C119  C     C_3   0.680261 0.644960 0.480815 -0.197588
C120  C     C_3   0.808075 0.163532 0.521260 -0.198022
C121  C     C_3   0.180261 0.144959 0.480815 -0.197588
C122  C     C_R   0.274409 0.042667 0.645960 0.553149
C123  C     C_R   0.724470 0.039663 0.355261 0.556879
C124  C     C_R   0.774409 0.542667 0.645960 0.553149
Cr1   Cr    Cr6+3 0.229620 0.836040 0.749110 0.979544
Cr2   Cr    Cr6+3 0.613980 0.676590 0.250790 0.985528
Cr3   Cr    Cr6+3 0.886020 0.176590 0.749210 0.983370
Cr4   Cr    Cr6+3 0.113980 0.176590 0.250790 0.985528
Cr5   Cr    Cr6+3 0.770380 0.836040 0.250890 0.979676
Cr6   Cr    Cr6+3 0.729620 0.336040 0.749110 0.979544
Cr7   Cr    Cr6+3 0.270380 0.336040 0.250890 0.979676
Cr8   Cr    Cr6+3 0.387630 0.990680 0.750730 0.990642
Cr9   Cr    Cr6+3 0.612370 0.990680 0.249270 0.991431
Cr10  Cr    Cr6+3 0.887630 0.490680 0.750730 0.990642
Cr11  Cr    Cr6+3 0.112370 0.490680 0.249270 0.991431
Cr12  Cr    Cr6+3 0.386020 0.676590 0.749210 0.983370
H1    H     H_    0.375135 0.792381 0.017801 0.090675
H2    H     H_    0.709375 0.739049 0.913927 0.096538
H3    H     H_    0.222308 0.897933 0.545469 0.127251
H4    H     H_    0.302818 0.439861 0.576981 0.114565
H5    H     H_    0.707715 0.430376 0.424289 0.109401
H6    H     H_    0.802818 0.939861 0.576981 0.114565
H7    H     H_    0.207715 0.930376 0.424289 0.109400
H8    H     H_    0.328905 0.447357 0.058170 0.127510
H9    H     H_    0.683744 0.424916 0.941222 0.133875
H10   H     H_    0.828905 0.947357 0.058170 0.127510
H11   H     H_    0.183744 0.924916 0.941222 0.133875
H12   H     H_    0.354355 0.594226 0.073607 0.108164
H13   H     H_    0.777269 0.258452 0.082292 0.100214
H14   H     H_    0.647409 0.563487 0.937223 0.105299
H15   H     H_    0.854355 0.094226 0.073607 0.108164
H16   H     H_    0.147409 0.063487 0.937223 0.105299
H17   H     H_    0.366956 0.618866 0.952112 0.137944
H18   H     H_    0.636127 0.557706 0.057981 0.140307
H19   H     H_    0.866956 0.118866 0.952112 0.137944
H20   H     H_    0.136127 0.057705 0.057981 0.140307
H21   H     H_    0.335692 0.473336 0.936925 0.117355
H22   H     H_    0.691960 0.434341 0.066740 0.112244
H23   H     H_    0.835692 0.973336 0.936925 0.117355
H24   H     H_    0.209375 0.239049 0.913927 0.096538
H25   H     H_    0.191960 0.934341 0.066740 0.112244
H26   H     H_    0.682884 0.923334 0.045819 0.100319
H27   H     H_    0.335975 0.939527 0.958459 0.100584
H28   H     H_    0.182884 0.423334 0.045819 0.100319
H29   H     H_    0.835974 0.439527 0.958459 0.100584
H30   H     H_    0.715759 0.933668 0.923396 0.108572
H31   H     H_    0.316153 0.957295 0.081603 0.104104
H32   H     H_    0.215759 0.433668 0.923396 0.108572
H33   H     H_    0.816153 0.457295 0.081603 0.104104
H34   H     H_    0.381345 0.535987 0.414840 0.243919
H35   H     H_    0.270157 0.797093 0.959598 0.110962
H36   H     H_    0.376765 0.569246 0.291962 0.165228
H37   H     H_    0.411234 0.708296 0.320298 0.158004
H38   H     H_    0.321458 0.695503 0.304930 0.137792
H39   H     H_    0.631201 0.491819 0.594188 0.261072
H40   H     H_    0.574699 0.578486 0.693684 0.158031
H41   H     H_    0.606053 0.722470 0.669108 0.133992
H42   H     H_    0.661576 0.619933 0.711786 0.169373
H43   H     H_    0.881345 0.035987 0.414840 0.243919
H44   H     H_    0.876764 0.069247 0.291962 0.165229
H45   H     H_    0.911234 0.208296 0.320298 0.158004
H46   H     H_    0.687640 0.747644 0.035128 0.102990
H47   H     H_    0.821459 0.195504 0.304930 0.137792
H48   H     H_    0.131201 0.991819 0.594188 0.261072
H49   H     H_    0.074699 0.078486 0.693684 0.158031
H50   H     H_    0.106053 0.222470 0.669108 0.133992
H51   H     H_    0.161577 0.119933 0.711786 0.169373
H52   H     H_    0.770157 0.297093 0.959598 0.110962
H53   H     H_    0.187640 0.247644 0.035128 0.102990
H54   H     H_    0.182816 0.745912 0.959775 0.131401
H55   H     H_    0.776155 0.787381 0.046522 0.137881
H56   H     H_    0.682816 0.245912 0.959775 0.131401
H57   H     H_    0.617010 0.838150 0.972044 0.095058
H58   H     H_    0.276155 0.287381 0.046522 0.137881
H59   H     H_    0.636240 0.053653 0.038303 0.141618
H60   H     H_    0.368562 0.082801 0.957419 0.140267
H61   H     H_    0.136240 0.553653 0.038303 0.141618
H62   H     H_    0.868562 0.582801 0.957419 0.140267
H63   H     H_    0.152039 0.546234 0.918124 0.124168
H64   H     H_    0.856089 0.600104 0.075489 0.130584
H65   H     H_    0.652039 0.046234 0.918124 0.124168
H66   H     H_    0.356089 0.100104 0.075489 0.130584
H67   H     H_    0.554246 0.653146 0.446209 0.135561
H68   H     H_    0.875135 0.292381 0.017801 0.090675
H69   H     H_    0.460128 0.638983 0.554326 0.132708
H70   H     H_    0.054246 0.153146 0.446209 0.135561
H71   H     H_    0.960128 0.138983 0.554326 0.132708
H72   H     H_    0.468815 0.651712 0.437009 0.159170
H73   H     H_    0.545333 0.665267 0.562806 0.184694
H74   H     H_    0.968814 0.151711 0.437009 0.159170
H75   H     H_    0.045333 0.165267 0.562806 0.184693
H76   H     H_    0.613510 0.900828 0.452653 0.114783
H77   H     H_    0.391130 0.831634 0.545589 0.116886
H78   H     H_    0.113509 0.400828 0.452653 0.114783
H79   H     H_    0.117010 0.338150 0.972044 0.095058
H80   H     H_    0.891130 0.331634 0.545589 0.116886
H81   H     H_    0.600775 0.855361 0.575461 0.106185
H82   H     H_    0.399185 0.828296 0.422747 0.142534
H83   H     H_    0.100775 0.355361 0.575461 0.106185
H84   H     H_    0.899185 0.328296 0.422747 0.142534
H85   H     H_    0.453476 0.985797 0.073152 0.114168
H86   H     H_    0.522267 0.009820 0.940273 0.113768
H87   H     H_    0.953476 0.485797 0.073152 0.114168
H88   H     H_    0.022267 0.509819 0.940273 0.113768
H89   H     H_    0.435764 0.972329 0.423345 0.104211
H90   H     H_    0.186568 0.740315 0.079234 0.130549
H91   H     H_    0.549733 0.987668 0.579684 0.113824
H92   H     H_    0.935764 0.472330 0.423345 0.104211
H93   H     H_    0.049733 0.487668 0.579684 0.113824
H94   H     H_    0.425633 0.978549 0.547046 0.129970
H95   H     H_    0.544752 0.002904 0.459474 0.121322
H96   H     H_    0.925633 0.478549 0.547046 0.129970
H97   H     H_    0.044752 0.502904 0.459474 0.121322
H98   H     H_    0.126445 0.605517 0.446487 0.138679
H99   H     H_    0.869642 0.634932 0.556630 0.136846
H100  H     H_    0.626445 0.105517 0.446487 0.138679
H101  H     H_    0.799771 0.751367 0.927798 0.125922
H102  H     H_    0.369642 0.134932 0.556630 0.136846
H103  H     H_    0.173591 0.732033 0.439112 0.102935
H104  H     H_    0.811270 0.749915 0.566678 0.107190
H105  H     H_    0.673591 0.232033 0.439112 0.102935
H106  H     H_    0.311271 0.249915 0.566678 0.107190
H107  H     H_    0.166356 0.740135 0.556998 0.134208
H108  H     H_    0.822508 0.756798 0.445956 0.136746
H109  H     H_    0.666356 0.240135 0.556998 0.134208
H110  H     H_    0.322508 0.256797 0.445955 0.136746
H111  H     H_    0.139380 0.593744 0.566832 0.124091
H112  H     H_    0.686568 0.240315 0.079234 0.130549
H113  H     H_    0.857494 0.618377 0.439362 0.122253
H114  H     H_    0.639380 0.093744 0.566832 0.124091
H115  H     H_    0.357494 0.118377 0.439362 0.122253
H116  H     H_    0.718976 0.881800 0.458815 0.102187
H117  H     H_    0.310244 0.930024 0.532907 0.108143
H118  H     H_    0.218976 0.381800 0.458815 0.102187
H119  H     H_    0.810244 0.430024 0.532907 0.108143
H120  H     H_    0.711217 0.929106 0.582033 0.100450
H121  H     H_    0.298113 0.945801 0.414539 0.103849
H122  H     H_    0.211217 0.429106 0.582033 0.100450
H123  H     H_    0.299770 0.251367 0.927798 0.125922
H124  H     H_    0.798114 0.445801 0.414539 0.103849
H125  H     H_    0.284641 0.743523 0.418796 0.123227
H126  H     H_    0.697615 0.732963 0.582732 0.121144
H127  H     H_    0.784641 0.243523 0.418796 0.123227
H128  H     H_    0.197615 0.232963 0.582732 0.121144
H129  H     H_    0.542694 0.657180 0.929638 0.120695
H130  H     H_    0.473091 0.633306 0.059510 0.118799
H131  H     H_    0.042694 0.157180 0.929638 0.120695
H132  H     H_    0.973091 0.133306 0.059510 0.118799
H133  H     H_    0.302553 0.753693 0.535642 0.086198
H134  H     H_    0.277269 0.758452 0.082292 0.100213
H135  H     H_    0.658375 0.729533 0.464999 0.092870
H136  H     H_    0.802553 0.253693 0.535642 0.086198
H137  H     H_    0.158375 0.229533 0.464999 0.092870
H138  H     H_    0.357588 0.627058 0.536358 0.135353
H139  H     H_    0.642201 0.575113 0.469926 0.131360
H140  H     H_    0.857588 0.127058 0.536358 0.135353
H141  H     H_    0.142201 0.075113 0.469926 0.131360
H142  H     H_    0.303637 0.428336 0.457803 0.127205
H143  H     H_    0.722308 0.397933 0.545469 0.127251
H144  H     H_    0.803637 0.928336 0.457803 0.127205
N1    N     N_2   0.358050 0.613757 0.400174 -0.557331
N2    N     N_2   0.639024 0.580975 0.602687 -0.558300
N3    N     N_2   0.858050 0.113757 0.400174 -0.557332
N4    N     N_2   0.139024 0.080975 0.602687 -0.558300
O1    O     O_R   0.214130 0.708570 0.829890 -0.527459
O2    O     O_R   0.542830 0.717300 0.331620 -0.539767
O3    O     O_R   0.957170 0.217300 0.668380 -0.537760
O4    O     O_R   0.042830 0.217300 0.331620 -0.539767
O5    O     O_R   0.320870 0.624890 0.673130 -0.509722
O6    O     O_R   0.679130 0.624890 0.326870 -0.510252
O7    O     O_R   0.820870 0.124890 0.673130 -0.509722
O8    O     O_R   0.179130 0.124890 0.326870 -0.510252
O9    O     O_3   0.334430 0.834430 0.749680 -0.283052
O10   O     O_3   0.665570 0.834430 0.250320 -0.282559
O11   O     O_3   0.834430 0.334430 0.749680 -0.283052
O12   O     O_R   0.785870 0.708570 0.170110 -0.528579
O13   O     O_3   0.165570 0.334430 0.250320 -0.282559
O14   O     O_R   0.236050 0.959150 0.825270 -0.521473
O15   O     O_R   0.763950 0.959150 0.174730 -0.519066
O16   O     O_R   0.736050 0.459150 0.825270 -0.521473
O17   O     O_R   0.263950 0.459150 0.174730 -0.519066
O18   O     O_R   0.332100 0.076650 0.832310 -0.533605
O19   O     O_R   0.667900 0.076650 0.167690 -0.533534
O20   O     O_R   0.832100 0.576650 0.832310 -0.533605
O21   O     O_R   0.167900 0.576650 0.167690 -0.533534
O22   O     O_R   0.446500 0.918620 0.826240 -0.505239
O23   O     O_R   0.714130 0.208570 0.829890 -0.527459
O24   O     O_R   0.553500 0.918620 0.173760 -0.504718
O25   O     O_R   0.946500 0.418620 0.826240 -0.505239
O26   O     O_R   0.053500 0.418620 0.173760 -0.504718
O27   O     O_R   0.457310 0.715830 0.831280 -0.531620
O28   O     O_R   0.542690 0.715830 0.168720 -0.530391
O29   O     O_R   0.957310 0.215830 0.831280 -0.531620
O30   O     O_R   0.042690 0.215830 0.168720 -0.530391
O31   O     O_R   0.321000 0.623520 0.824130 -0.519807
O32   O     O_R   0.679000 0.623520 0.175870 -0.518841
O33   O     O_R   0.821000 0.123520 0.824130 -0.519807
O34   O     O_R   0.285870 0.208570 0.170110 -0.528579
O35   O     O_R   0.179000 0.123520 0.175870 -0.518841
O36   O     O_R   0.213990 0.710040 0.667000 -0.533339
O37   O     O_R   0.786010 0.710040 0.333000 -0.533788
O38   O     O_R   0.713990 0.210040 0.667000 -0.533339
O39   O     O_R   0.286010 0.210040 0.333000 -0.533788
O40   O     O_R   0.235920 0.960520 0.674260 -0.505872
O41   O     O_R   0.764080 0.960520 0.325740 -0.505734
O42   O     O_R   0.735920 0.460520 0.674260 -0.505872
O43   O     O_R   0.264080 0.460520 0.325740 -0.505734
O44   O     O_R   0.331960 0.078120 0.669410 -0.542449
O45   O     O_R   0.446360 0.919990 0.675230 -0.507290
O46   O     O_R   0.668040 0.078120 0.330590 -0.544438
O47   O     O_R   0.831960 0.578120 0.669410 -0.542449
O48   O     O_R   0.168040 0.578120 0.330590 -0.544438
O49   O     O_R   0.553640 0.919990 0.324770 -0.507278
O50   O     O_R   0.946360 0.419990 0.675230 -0.507290
O51   O     O_R   0.053640 0.419990 0.324770 -0.507278
O52   O     O_R   0.457170 0.717300 0.668380 -0.537760

loop_
_geom_bond_atom_site_label_1
_geom_bond_atom_site_label_2
_ccdc_geom_bond_type
C3    O43   A    
C76   H92   S    
C83   C87   S    
Cr2   O32   S    
C69   C78   S    
C33   H20   S    
C20   C92   S    
C4    O45   A    
C14   C21   S    
C28   H47   S    
C121  H141  S    
C74   H89   S    
Cr12  O5    S    
C1    C46   S    
C35   C53   S    
C94   C111  S    
C29   H50   S    
C5    O2    A    
Cr12  O52   S    
C26   N1    S    
C7    O4    A    
C111  H6    S    
C122  O44   A    
C66   O24   A    
C3    C100  S    
C38   C55   S    
C40   H2    S    
C91   C100  S    
C95   H117  S    
C39   H134  S    
C93   C110  S    
C8    O5    A    
C118  H133  S    
C26   H36   S    
Cr10  O47   S    
Cr1   O1    S    
C89   H114  S    
C20   H79   S    
Cr3   O3    S    
C1    O14   A    
C84   H99   S    
C13   H15   S    
C86   C90   S    
C93   C101  S    
C98   N3    S    
C117  O35   A    
C26   H37   S    
C98   C102  S    
C17   C21   S    
Cr6   O16   S    
C91   H142  S    
C33   H25   S    
C110  H124  S    
C62   C79   S    
C39   C56   S    
C86   H106  S    
Cr4   O35   S    
C98   C120  S    
C28   H44   S    
C11   O8    A    
C49   C115  S    
C83   C100  S    
C56   H35   S    
C58   H56   S    
C105  C118  S    
C16   H88   S    
C59   O21   A    
C63   H74   S    
C37   C45   S    
C102  C123  S    
C107  C120  S    
Cr3   O11   S    
C116  O23   A    
C77   H93   S    
C84   C88   S    
C94   H116  S    
C27   H40   S    
C39   C43   S    
C87   H111  S    
C47   C52   S    
C119  H135  S    
C95   H3    S    
C120  H136  S    
C24   C46   S    
C75   H91   S    
C6    O3    A    
C13   C45   S    
Cr1   O14   S    
Cr8   O45   S    
C77   C82   S    
C49   C53   S    
C86   H102  S    
C11   O39   A    
C51   C55   S    
C93   H143  S    
C61   H72   S    
C94   H144  S    
C41   H13   S    
C94   C102  S    
Cr11  O51   S    
Cr6   O23   S    
Cr7   O34   S    
C41   C45   S    
C17   H1    S    
C48   O16   A    
C75   C79   S    
C44   C48   S    
Cr6   O38   S    
C37   O15   A    
C13   C32   S    
C27   H42   S    
C86   C104  S    
C8    C105  S    
C71   C79   S    
C72   H97   S    
C3    O48   A    
C72   C77   S    
C41   C58   S    
Cr1   O36   S    
C34   H28   S    
C117  O34   A    
C15   C25   S    
C104  C122  S    
C75   H81   S    
C12   C22   S    
C49   C57   S    
C23   C67   S    
C39   H90   S    
C2    C44   S    
C63   H70   S    
C73   H80   S    
Cr2   O28   S    
C43   C59   S    
C113  O1    A    
Cr6   O42   S    
C57   H46   S    
C120  H140  S    
C63   C80   S    
Cr12  O31   S    
C64   H71   S    
C56   H54   S    
Cr10  O50   S    
C101  C124  S    
C113  O31   A    
C65   O27   A    
C66   O28   A    
C77   H83   S    
C123  O46   A    
Cr5   O15   S    
C97   C119  S    
C110  H5    S    
Cr5   O37   S    
C87   C105  S    
C64   C82   S    
C74   H82   S    
Cr9   O10   S    
C115  O32   A    
C38   H27   S    
Cr3   O29   S    
C16   C23   S    
Cr2   O2    S    
C41   H112  S    
C1    O18   A    
C118  H138  S    
C31   H18   S    
C105  C109  S    
Cr1   O40   S    
C18   C22   S    
C107  C111  S    
Cr7   O17   S    
C42   H24   S    
C34   C43   S    
C76   C80   S    
Cr8   O22   S    
C24   H11   S    
Cr7   O43   S    
C54   H65   S    
C90   H115  S    
C96   N1    S    
C99   C121  S    
C90   C108  S    
C72   C80   S    
C29   N4    S    
C96   C100  S    
C51   C117  S    
C29   H49   S    
C61   C62   S    
C38   C46   S    
C36   C54   S    
C65   O22   A    
C63   C64   S    
C40   C44   S    
C11   C108  S    
C23   C92   S    
C51   C60   S    
Cr2   O10   S    
C85   C102  S    
C47   C56   S    
C59   O17   A    
C69   H95   S    
C30   H21   S    
C72   H78   S    
C2    H14   S    
Cr11  O48   S    
C106  C119  S    
C55   H31   S    
C108  C121  S    
C27   N2    S    
Cr4   O13   S    
C2    H9    S    
C15   C19   S    
H43   N3    S    
C50   C54   S    
C109  H4    S    
C112  H7    S    
C54   H30   S    
C57   H55   S    
C95   C112  S    
Cr11  O13   S    
C43   C114  S    
C9    O6    A    
C20   C25   S    
C26   H38   S    
Cr8   O9    S    
C42   C46   S    
C109  H122  S    
C24   H16   S    
Cr2   O6    S    
C12   C17   S    
H39   N2    S    
C53   H33   S    
C32   H23   S    
C99   N4    S    
C99   C104  S    
Cr8   O18   S    
C36   H26   S    
Cr9   O19   S    
C68   O26   A    
C25   C68   S    
C31   C49   S    
C9    O37   A    
C50   C58   S    
C22   C81   S    
C85   C89   S    
C71   H77   S    
Cr6   O11   S    
C108  C112  S    
C114  H8    S    
Cr9   O24   S    
H34   N1    S    
C85   H105  S    
C69   H76   S    
C103  H132  S    
Cr4   O4    S    
C97   H126  S    
Cr12  O27   S    
C99   H128  S    
C73   C76   S    
C73   C82   S    
C30   C114  S    
C111  H120  S    
C47   C113  S    
C40   C57   S    
C21   C65   S    
Cr5   O41   S    
C27   H41   S    
H48   N4    S    
C88   H108  S    
C71   C74   S    
C93   H119  S    
C10   O7    A    
C33   C51   S    
C67   O25   A    
C34   C52   S    
C24   C33   S    
C114  H12   S    
Cr3   O33   S    
Cr5   O10   S    
C76   H84   S    
Cr4   O30   S    
C90   H110  S    
C19   H68   S    
C69   C75   S    
C17   C81   S    
C10   O38   A    
C15   H87   S    
C121  H137  S    
C31   H22   S    
Cr12  O9    S    
Cr10  O25   S    
C119  H139  S    
C29   H51   S    
C74   C78   S    
Cr7   O13   S    
C5    C78   S    
Cr7   O39   S    
C122  O40   A    
C7    C80   S    
C18   C70   S    
C28   N3    S    
C96   H125  S    
C6    C82   S    
C85   H100  S    
C14   C18   S    
C19   C23   S    
C60   H58   S    
C8    O36   A    
C96   C118  S    
C124  O47   A    
C5    O49   A    
C15   C16   S    
C7    O51   A    
C70   C81   S    
Cr10  O11   S    
C22   C66   S    
Cr11  O26   S    
C92   H131  S    
C19   C103  S    
C98   H127  S    
C62   H73   S    
C30   H17   S    
C67   O29   A    
C38   H60   S    
C60   H53   S    
C64   H75   S    
C62   H69   S    
C92   C103  S    
C16   C20   S    
C18   H57   S    
C84   C101  S    
C89   C107  S    
C10   C107  S    
C84   H104  S    
Cr10  O20   S    
C13   H10   S    
C83   H103  S    
C40   H101  S    
C58   H52   S    
C30   C47   S    
C4    C79   S    
C42   C60   S    
Cr9   O46   S    
C25   C103  S    
Cr3   O7    S    
Cr5   O12   S    
C9    C106  S    
C55   H66   S    
C123  O41   A    
C2    C31   S    
C28   H45   S    
C42   H123  S    
C112  H121  S    
C32   H19   S    
C88   C106  S    
C61   H67   S    
C87   H107  S    
C83   H98   S    
Cr4   O8    S    
C61   C78   S    
C68   O30   A    
C36   C45   S    
C52   H63   S    
C35   C44   S    
C32   C50   S    
C12   C14   S    
C4    O52   A    
C81   H130  S    
C6    O50   A    
C95   C104  S    
Cr11  O21   S    
C70   H129  S    
C106  C110  S    
C115  O12   A    
C53   H64   S    
C14   H86   S    
C48   O20   A    
Cr1   O9    S    
C116  O33   A    
C91   H118  S    
C89   H109  S    
C37   O19   A    
Cr8   O44   S    
C21   C70   S    
C91   C109  S    
C36   H59   S    
C97   N2    S    
C52   H32   S    
C34   H61   S    
C35   H29   S    
C71   H94   S    
C50   C116  S    
C12   H85   S    
Cr9   O49   S    
C124  O42   A    
C88   H113  S    
C73   H96   S    
C97   C101  S    
C35   H62   S    
