data_mof_unit_19877.cif
_audit_creation_date              2012-12-11T15:11:52-0500
_audit_creation_method            fapswitch 2.2
_symmetry_space_group_name_H-M    P1
_symmetry_Int_Tables_number       1
_space_group_crystal_system       monoclinic
_cell_length_a                    20.319146
_cell_length_b                    7.100258
_cell_length_c                    13.540652
_cell_angle_alpha                 90.0
_cell_angle_beta                  103.430457
_cell_angle_gamma                 90.0
_cell_volume                      1900.10187658

loop_
_atom_site_label
_atom_site_type_symbol
_atom_type_description
_atom_site_fract_x
_atom_site_fract_y
_atom_site_fract_z
_atom_type_partial_charge
O1    O     O_R   0.449830 0.506740 0.599960 -0.538469
O2    O     O_R   0.550170 0.006740 0.400040 -0.538469
O3    O     O_R   0.588980 0.179860 0.596720 -0.546274
O4    O     O_R   0.411020 0.679860 0.403280 -0.546275
C1    C     C_R   0.616364 0.344011 0.619648 0.670938
C2    C     C_R   0.383636 0.844011 0.380352 0.670938
O5    O     O_R   0.452740 0.177340 0.612040 -0.542364
O6    O     O_R   0.547260 0.677340 0.387960 -0.542364
O7    O     O_R   0.412960 0.002070 0.415460 -0.544226
O8    O     O_R   0.587040 0.502070 0.584540 -0.544226
C3    C     C_R   0.434166 0.343917 0.635828 0.706801
C4    C     C_R   0.565834 0.843917 0.364171 0.706802
O9    O     O_3   0.487110 0.337570 0.435490 -0.379249
O10   O     O_3   0.512890 0.837570 0.564510 -0.379249
V1    V     V_3+5 0.502390 0.064650 0.511970 1.387319
V2    V     V_3+5 0.497610 0.564650 0.488030 1.387319
C5    C     C_R   0.621903 0.703007 0.131053 -0.207216
C6    C     C_R   0.378097 0.203007 0.868947 -0.207216
H1    H     H_    0.703374 0.669364 0.006802 0.140680
H2    H     H_    0.296626 0.169365 0.993198 0.140680
H3    H     H_    0.601440 0.626515 0.063099 0.154363
H4    H     H_    0.398560 0.126515 0.936901 0.154363
C7    C     C_R   0.606288 0.838386 0.287291 -0.043692
C8    C     C_R   0.393712 0.338386 0.712709 -0.043692
C9    C     C_R   0.928258 0.959946 0.316917 0.009593
C10   C     C_R   0.071742 0.459946 0.683083 0.009593
C11   C     C_R   0.888708 0.001025 0.385468 -0.138723
C12   C     C_R   0.111292 0.501025 0.614532 -0.138724
C13   C     C_R   0.819699 0.975364 0.360597 -0.209693
C14   C     C_R   0.180301 0.475363 0.639403 -0.209692
C15   C     C_R   0.787213 0.897729 0.266743 0.085079
C16   C     C_R   0.212787 0.397730 0.733257 0.085079
C17   C     C_R   0.827292 0.847606 0.196311 0.067602
C18   C     C_R   0.172708 0.347606 0.803689 0.067602
C19   C     C_R   0.716279 0.862638 0.242183 0.081104
C20   C     C_R   0.283720 0.362638 0.757817 0.081104
C21   C     C_R   0.687920 0.769275 0.149899 0.146094
C22   C     C_R   0.312080 0.269275 0.850101 0.146094
C23   C     C_R   0.726349 0.733290 0.079070 -0.226875
C24   C     C_R   0.273651 0.233290 0.920930 -0.226875
C25   C     C_R   0.794913 0.772750 0.101425 -0.216258
C26   C     C_R   0.205087 0.272751 0.898575 -0.216257
C27   C     C_R   0.672664 0.907980 0.307551 -0.240878
C28   C     C_R   0.327336 0.407980 0.692449 -0.240878
C29   C     C_R   0.583408 0.725039 0.202161 -0.150171
C30   C     C_R   0.416592 0.225039 0.797839 -0.150171
C31   C     C_R   0.898474 0.878660 0.221080 -0.135130
C32   C     C_R   0.101526 0.378660 0.778920 -0.135130
H5    H     H_    0.689477 0.986004 0.377083 0.099226
H6    H     H_    0.310523 0.486004 0.622917 0.099226
H7    H     H_    0.911521 0.057012 0.459638 0.121728
H8    H     H_    0.088479 0.557011 0.540362 0.121728
H9    H     H_    0.822459 0.738770 0.044468 0.129397
H10   H     H_    0.177541 0.238771 0.955532 0.129396
C33   C     C_3   0.216166 0.651640 0.199996 -0.317679
C34   C     C_3   0.783834 0.151640 0.800004 -0.317679
H11   H     H_    0.181509 0.560834 0.231895 0.138403
H12   H     H_    0.818491 0.060834 0.768105 0.138403
H13   H     H_    0.218350 0.590930 0.125101 0.134915
H14   H     H_    0.781650 0.090929 0.874899 0.134916
C35   C     C_3   0.287612 0.646560 0.272324 -0.312432
C36   C     C_3   0.712387 0.146560 0.727676 -0.312432
H15   H     H_    0.323814 0.574930 0.234814 0.136505
H16   H     H_    0.676186 0.074929 0.765186 0.136505
H17   H     H_    0.285380 0.558409 0.339493 0.132497
H18   H     H_    0.714619 0.058409 0.660507 0.132497
H19   H     H_    0.152789 0.851685 0.326016 0.148343
H20   H     H_    0.847211 0.351685 0.673984 0.148343
H21   H     H_    0.259187 0.839897 0.431814 0.133953
H22   H     H_    0.740812 0.339898 0.568186 0.133953
C37   C     C_3   0.188468 0.935017 0.292588 -0.313491
C38   C     C_3   0.811531 0.435017 0.707412 -0.313490
C39   C     C_3   0.237681 0.976733 0.141255 -0.354009
C40   C     C_3   0.762318 0.476733 0.858745 -0.354010
C41   C     C_3   0.188001 0.856174 0.186083 0.092350
C42   C     C_3   0.811999 0.356174 0.813917 0.092350
H23   H     H_    0.219007 0.124476 0.131137 0.126929
H24   H     H_    0.780993 0.624476 0.868863 0.126929
H25   H     H_    0.237515 0.924214 0.063963 0.131173
H26   H     H_    0.762485 0.424213 0.936037 0.131173
C43   C     C_3   0.312885 0.848554 0.308347 0.084175
C44   C     C_3   0.687115 0.348554 0.691653 0.084175
C45   C     C_3   0.260397 0.928563 0.364458 -0.362303
C46   C     C_3   0.739603 0.428563 0.635542 -0.362303
C47   C     C_3   0.310198 0.977133 0.213317 -0.088103
C48   C     C_3   0.689802 0.477133 0.786683 -0.088103
H27   H     H_    0.318635 0.123887 0.242952 0.100863
H28   H     H_    0.681365 0.623887 0.757048 0.100863
H29   H     H_    0.170943 0.083374 0.284320 0.159885
H30   H     H_    0.829057 0.583375 0.715680 0.159885
H31   H     H_    0.275341 0.072858 0.393246 0.134017
H32   H     H_    0.724659 0.572859 0.606754 0.134017
O11   O     O_R   0.912980 0.203550 0.915410 -0.540109
O12   O     O_R   0.087020 0.703550 0.084590 -0.540109
O13   O     O_R   0.047270 0.535570 0.887960 -0.541798
O14   O     O_R   0.952730 0.035570 0.112040 -0.541798
C49   C     C_R   0.062237 0.370143 0.858994 0.694251
C50   C     C_R   0.937763 0.870143 0.141006 0.694252
O15   O     O_R   0.911030 0.532970 0.903270 -0.545149
O16   O     O_R   0.088970 0.032970 0.096730 -0.545150
O17   O     O_R   0.949820 0.708150 0.099970 -0.540072
O18   O     O_R   0.050180 0.208150 0.900030 -0.540072
C51   C     C_R   0.883518 0.364450 0.882625 0.660445
C52   C     C_R   0.116482 0.864450 0.117375 0.660444
O19   O     O_3   0.012900 0.375230 0.064480 -0.377851
O20   O     O_3   0.987100 0.875230 0.935520 -0.377851
V3    V     V_3+5 0.997610 0.648190 0.988040 1.387866
V4    V     V_3+5 0.002390 0.148190 0.011960 1.387866
H33   H     H_    0.534757 0.655370 0.189910 0.139153
H34   H     H_    0.465243 0.155370 0.810089 0.139153
C53   C     C_R   0.365442 0.935543 0.157212 0.069411
C54   C     C_R   0.360633 0.784505 0.088161 -0.120824
C55   C     C_R   0.410077 0.757948 0.033179 -0.142396
C56   C     C_R   0.465135 0.880439 0.046832 -0.140799
C57   C     C_R   0.471561 0.027397 0.117109 -0.138665
C58   C     C_R   0.421908 0.055732 0.171381 -0.151032
H35   H     H_    0.317902 0.689787 0.073991 0.111482
H36   H     H_    0.405095 0.643613 0.979131 0.121360
H37   H     H_    0.502776 0.862687 0.002795 0.118754
H38   H     H_    0.514861 0.120233 0.129279 0.119481
H39   H     H_    0.427483 0.172451 0.224158 0.118540
C59   C     C_R   0.634558 0.435542 0.842788 0.069412
C60   C     C_R   0.639367 0.284505 0.911839 -0.120824
C61   C     C_R   0.589923 0.257947 0.966821 -0.142396
C62   C     C_R   0.534865 0.380439 0.953168 -0.140798
C63   C     C_R   0.528439 0.527396 0.882892 -0.138666
C64   C     C_R   0.578091 0.555732 0.828619 -0.151032
H40   H     H_    0.682097 0.189787 0.926009 0.111483
H41   H     H_    0.594905 0.143613 0.020869 0.121360
H42   H     H_    0.497224 0.362687 0.997205 0.118754
H43   H     H_    0.485139 0.620233 0.870721 0.119481
H44   H     H_    0.572517 0.672450 0.775841 0.118540
C65   C     C_R   0.000019 0.013567 0.350493 0.058138
C66   C     C_R   0.021756 0.189884 0.323325 -0.084373
C67   C     C_R   0.084557 0.261647 0.374225 -0.167642
C68   C     C_R   0.125631 0.158616 0.453020 -0.094305
C69   C     C_R   0.103746 0.985008 0.481779 -0.129544
C70   C     C_R   0.041118 0.912925 0.430667 -0.172297
H45   H     H_    0.988902 0.275391 0.266223 0.129849
H46   H     H_    0.101240 0.397502 0.353119 0.101212
H47   H     H_    0.174921 0.211590 0.490678 0.114085
H48   H     H_    0.135213 0.906872 0.543725 0.121983
H49   H     H_    0.022626 0.783302 0.456146 0.129784
C71   C     C_R   0.999981 0.513567 0.649507 0.058138
C72   C     C_R   0.978244 0.689884 0.676675 -0.084373
C73   C     C_R   0.915442 0.761646 0.625775 -0.167643
C74   C     C_R   0.874369 0.658615 0.546979 -0.094305
C75   C     C_R   0.896254 0.485008 0.518220 -0.129544
C76   C     C_R   0.958882 0.412925 0.569333 -0.172297
H50   H     H_    0.011098 0.775390 0.733777 0.129849
H51   H     H_    0.898760 0.897501 0.646881 0.101212
H52   H     H_    0.825079 0.711590 0.509321 0.114085
H53   H     H_    0.864787 0.406872 0.456274 0.121983
H54   H     H_    0.977375 0.283302 0.543853 0.129784
H55   H     H_    0.793588 0.014477 0.418177 0.104364
H56   H     H_    0.206412 0.514477 0.581823 0.104364

loop_
_geom_bond_atom_site_label_1
_geom_bond_atom_site_label_2
_ccdc_geom_bond_type
O17   V3    S    
O15   C51   A    
C69   H48   S    
C63   C64   A    
C7    C29   A    
C33   H13   S    
C11   C13   A    
C74   C75   A    
O1    C3    A    
C38   C42   S    
O2    C4    A    
O11   C51   A    
C2    O7    A    
C56   C57   A    
C67   C68   A    
C23   C25   A    
O5    C3    A    
C32   C49   S    
O19   V3    S    
C4    C7    S    
C71   C76   A    
C31   C50   S    
C40   C42   S    
C34   C42   S    
C16   C20   A    
C19   C21   A    
C5    C29   A    
C55   C56   A    
C70   H49   S    
O11   V4    S    
C54   H35   S    
H2    C24   S    
C29   H33   S    
H22   C46   S    
O20   V3    S    
C57   C58   A    
C3    C8    S    
O16   C52   A    
C7    C27   A    
C59   C64   A    
C35   H15   S    
C64   H44   S    
C36   H16   S    
C62   H42   S    
C53   C54   A    
C18   C26   A    
O14   C50   A    
C48   C59   S    
C15   C17   A    
O18   V4    S    
C53   C58   A    
C14   C16   A    
C19   C27   A    
C9    C31   A    
H19   C37   S    
C49   O18   A    
C10   C32   A    
C13   H55   S    
C33   C41   S    
C42   C51   S    
C14   H56   S    
C36   C44   S    
O12   C52   A    
C65   C70   A    
O6    V2    S    
C2    C43   S    
C40   H26   S    
C39   C41   S    
C10   C71   S    
C6    C30   A    
C54   C55   A    
C43   C45   S    
C11   H7    S    
C72   C73   A    
C37   C45   S    
C47   H27   S    
C67   H46   S    
C21   C23   A    
O19   V4    S    
O12   V3    S    
O16   V4    S    
C58   H39   S    
C36   H18   S    
C60   C61   A    
C75   C76   A    
O4    C2    A    
C41   C52   S    
C66   H45   S    
C27   H5    S    
O5    V1    S    
C47   C53   S    
C44   C48   S    
C5    H3    S    
C55   H36   S    
H20   C38   S    
C16   C18   A    
O4    V2    S    
C76   H54   S    
C68   H47   S    
H21   C45   S    
C38   H30   S    
C37   H29   S    
O6    C4    A    
C25   H9    S    
C39   H25   S    
O1    V2    S    
C5    C21   A    
C40   C48   S    
O2    V1    S    
C39   C47   S    
C38   C46   S    
O13   V3    S    
C37   C41   S    
C44   C46   S    
C33   H11   S    
C62   C63   A    
C17   C31   A    
C34   C36   S    
C9    C65   S    
C18   C32   A    
C75   H53   S    
C45   H31   S    
O3    V1    S    
C73   C74   A    
C28   H6    S    
C6    H4    S    
C72   H50   S    
C71   C72   A    
O3    C1    A    
O13   C49   A    
C66   C67   A    
C9    C11   A    
C50   O17   A    
O15   V3    S    
C69   C70   A    
C10   C12   A    
C8    C30   A    
C20   C22   A    
C74   H52   S    
O7    V1    S    
C17   C25   A    
C12   C14   A    
C13   C15   A    
C30   H34   S    
O8    V2    S    
C26   H10   S    
C22   C24   A    
C1    C44   S    
C12   H8    S    
C60   H40   S    
C65   C66   A    
C56   H37   S    
O20   V4    S    
C63   H43   S    
C8    C28   A    
C33   C35   S    
C15   C19   A    
C24   C26   A    
C34   H12   S    
C61   H41   S    
C48   H28   S    
C6    C22   A    
C20   C28   A    
C73   H51   S    
C35   H17   S    
C1    O8    A    
C34   H14   S    
H1    C23   S    
C57   H38   S    
C40   H24   S    
O9    V2    S    
C39   H23   S    
O10   V1    S    
O14   V4    S    
C35   C43   S    
C46   H32   S    
C59   C60   A    
C43   C47   S    
C68   C69   A    
C61   C62   A    
