data_mof_unit_60055.cif
_audit_creation_date              2012-12-10T16:54:39-0500
_audit_creation_method            fapswitch 2.2
_symmetry_space_group_name_H-M    P1
_symmetry_Int_Tables_number       1
_space_group_crystal_system       triclinic
_cell_length_a                    23.677061
_cell_length_b                    30.792978
_cell_length_c                    19.424851
_cell_angle_alpha                 89.974828
_cell_angle_beta                  127.689563
_cell_angle_gamma                 90.056245
_cell_volume                      11207.2043537

loop_
_atom_site_label
_atom_site_type_symbol
_atom_type_description
_atom_site_fract_x
_atom_site_fract_y
_atom_site_fract_z
_atom_type_partial_charge
Br1   Br    Br    0.589645 0.808633 0.454997 -0.518293
Br2   Br    Br    0.165674 0.996843 0.144669 -0.493266
Br3   Br    Br    0.404868 0.809411 0.542254 -0.515959
Br4   Br    Br    0.838075 0.000499 0.851314 -0.493699
Br5   Br    Br    0.090272 0.308709 0.455310 -0.518193
Br6   Br    Br    0.665655 0.496860 0.144692 -0.493237
Br7   Br    Br    0.905094 0.309370 0.542373 -0.516155
Br8   Br    Br    0.338079 0.500502 0.851312 -0.493474
C1    C     C_R   0.693579 0.809289 0.881011 0.795876
C2    C     C_R   0.296460 0.121776 0.178443 0.081633
C3    C     C_R   0.784420 0.050688 0.836911 0.298530
C4    C     C_R   0.116818 0.320038 0.568352 0.327982
C5    C     C_R   0.717937 0.548014 0.159938 0.298025
C6    C     C_R   0.879982 0.320510 0.429969 0.327830
C7    C     C_R   0.284420 0.550690 0.836911 0.298707
C8    C     C_R   0.593569 0.857909 0.583279 -0.187963
C9    C     C_R   0.291089 0.050131 0.227137 -0.210515
C10   C     C_R   0.403800 0.858230 0.415527 -0.187723
C11   C     C_R   0.710976 0.051843 0.770838 -0.208349
C12   C     C_R   0.093848 0.357932 0.583397 -0.187929
C13   C     C_R   0.348072 0.835652 0.266298 0.114858
C14   C     C_R   0.791079 0.550139 0.227147 -0.210532
C15   C     C_R   0.903918 0.358210 0.415584 -0.187740
C16   C     C_R   0.210974 0.551841 0.770846 -0.208882
C17   C     C_R   0.611801 0.866823 0.666189 0.051371
C18   C     C_R   0.331188 0.087622 0.239650 0.029979
C19   C     C_R   0.386840 0.866966 0.333202 0.052629
C20   C     C_R   0.669849 0.088626 0.758921 0.037766
C21   C     C_R   0.111944 0.366832 0.666244 0.051360
C22   C     C_R   0.831184 0.587626 0.239655 0.029974
C23   C     C_R   0.886894 0.366957 0.333229 0.052509
C24   C     C_R   0.703998 0.122841 0.820072 0.082499
C25   C     C_R   0.169848 0.588626 0.758923 0.037484
C26   C     C_R   0.592699 0.955617 0.788649 0.078666
C27   C     C_R   0.648755 0.984145 0.846447 -0.171239
C28   C     C_R   0.634554 0.023890 0.867850 -0.126436
C29   C     C_R   0.564397 0.035417 0.831622 -0.111236
C30   C     C_R   0.508471 0.006801 0.775374 -0.126397
C31   C     C_R   0.522565 0.966787 0.754665 -0.082107
C32   C     C_R   0.522268 0.133305 0.384779 0.119068
C33   C     C_R   0.546627 0.165225 0.448903 -0.188011
C34   C     C_R   0.619750 0.170807 0.514715 -0.118970
C35   C     C_R   0.150820 0.335505 0.733043 0.114209
C36   C     C_R   0.669046 0.145460 0.515454 -0.085198
C37   C     C_R   0.645283 0.114887 0.449750 -0.135870
C38   C     C_R   0.572173 0.109134 0.384027 -0.083127
C39   C     C_R   0.410813 0.954582 0.213032 0.082504
C40   C     C_R   0.356175 0.983886 0.155558 -0.171370
C41   C     C_R   0.372280 0.022976 0.134322 -0.118242
C42   C     C_R   0.442895 0.032928 0.170000 -0.118472
C43   C     C_R   0.497379 0.003471 0.225850 -0.145385
C44   C     C_R   0.481409 0.964220 0.246781 -0.074403
C45   C     C_R   0.476487 0.130777 0.617980 0.136448
C46   C     C_R   0.796457 0.621780 0.178450 0.081620
C47   C     C_R   0.447113 0.133809 0.529774 -0.107097
C48   C     C_R   0.373505 0.138543 0.466006 -0.110370
C49   C     C_R   0.328602 0.140390 0.489876 -0.097549
C50   C     C_R   0.357301 0.137559 0.577533 -0.133271
C51   C     C_R   0.430952 0.132882 0.641451 -0.150929
C52   C     C_R   0.092146 0.455482 0.788312 0.079358
C53   C     C_R   0.147929 0.484259 0.845704 -0.171539
C54   C     C_R   0.133362 0.523955 0.866841 -0.126618
C55   C     C_R   0.063112 0.535177 0.830760 -0.110824
C56   C     C_R   0.007467 0.506311 0.774913 -0.126277
C57   C     C_R   0.848113 0.335644 0.266326 0.114750
C58   C     C_R   0.021930 0.466354 0.754448 -0.081915
C59   C     C_R   0.022273 0.633295 0.384759 0.119094
C60   C     C_R   0.046646 0.665209 0.448896 -0.188003
C61   C     C_R   0.119772 0.670786 0.514700 -0.118941
C62   C     C_R   0.169057 0.645438 0.515417 -0.085173
C63   C     C_R   0.145280 0.614870 0.449701 -0.135876
C64   C     C_R   0.072166 0.609123 0.383987 -0.083136
C65   C     C_R   0.910792 0.454590 0.213018 0.082509
C66   C     C_R   0.856158 0.483902 0.155557 -0.171366
C67   C     C_R   0.872271 0.522992 0.134327 -0.118244
C68   C     C_R   0.203997 0.622843 0.820069 0.082434
C69   C     C_R   0.942890 0.532935 0.169998 -0.118484
C70   C     C_R   0.997369 0.503470 0.225833 -0.145372
C71   C     C_R   0.981390 0.464220 0.246759 -0.074421
C72   C     C_R   0.976485 0.630776 0.617979 0.136445
C73   C     C_R   0.947114 0.633811 0.529773 -0.107147
C74   C     C_R   0.873505 0.638542 0.466003 -0.110361
C75   C     C_R   0.828600 0.640384 0.489871 -0.097592
C76   C     C_R   0.857297 0.637550 0.577527 -0.133304
C77   C     C_R   0.930948 0.632877 0.641447 -0.150744
C78   C     C_R   0.663015 0.842593 0.813382 -0.100462
C79   C     C_R   0.337279 0.157269 0.184879 -0.098499
C80   C     C_R   0.336967 0.842527 0.186567 -0.098390
C81   C     C_R   0.306804 0.190737 0.118556 0.785705
C82   C     C_R   0.662330 0.157241 0.815187 -0.094651
C83   C     C_R   0.163011 0.342591 0.813387 -0.100297
C84   C     C_R   0.837279 0.657269 0.184879 -0.098494
C85   C     C_R   0.836965 0.342528 0.186569 -0.098459
C86   C     C_R   0.162329 0.657242 0.815186 -0.094653
C87   C     C_R   0.642788 0.881762 0.828985 -0.210522
C88   C     C_R   0.410040 0.159951 0.252732 -0.244019
C89   C     C_R   0.358599 0.881334 0.171746 -0.208670
C90   C     C_R   0.589045 0.158691 0.749265 -0.253687
C91   C     C_R   0.142603 0.381717 0.828884 -0.210425
C92   C     C_R   0.306394 0.809266 0.118958 0.795553
C93   C     C_R   0.910042 0.659947 0.252724 -0.244033
C94   C     C_R   0.858568 0.381343 0.171730 -0.208677
C95   C     C_R   0.089043 0.658691 0.749266 -0.253617
C96   C     C_R   0.608177 0.913770 0.765636 -0.011190
C97   C     C_R   0.444718 0.127518 0.315010 -0.030644
C98   C     C_R   0.393298 0.913271 0.235211 -0.011989
C99   C     C_R   0.554813 0.126444 0.686250 -0.020018
C100  C     C_R   0.107965 0.413705 0.765497 -0.011323
C101  C     C_R   0.944719 0.627514 0.315001 -0.030639
C102  C     C_R   0.893274 0.413280 0.235196 -0.012026
C103  C     C_R   0.692802 0.190734 0.881430 0.783865
C104  C     C_R   0.054811 0.626444 0.686250 -0.019997
C105  C     C_R   0.592061 0.906254 0.683753 -0.099288
C106  C     C_R   0.405224 0.091338 0.309940 -0.132744
C107  C     C_R   0.407898 0.906121 0.316381 -0.099872
C108  C     C_R   0.595357 0.091452 0.689720 -0.116796
C109  C     C_R   0.092041 0.406226 0.683707 -0.099413
C110  C     C_R   0.905222 0.591337 0.309937 -0.132730
C111  C     C_R   0.907906 0.406122 0.316381 -0.099882
C112  C     C_R   0.095356 0.591452 0.689721 -0.116845
C113  C     C_R   0.060469 0.558680 0.620848 0.797223
C114  C     C_R   0.193576 0.309289 0.881014 0.795791
C115  C     C_R   0.940459 0.440638 0.380917 0.780291
C116  C     C_R   0.940021 0.559048 0.379788 0.797292
C117  C     C_R   0.059552 0.440702 0.619167 0.780082
C118  C     C_R   0.560470 0.058680 0.620848 0.797137
C119  C     C_R   0.440459 0.940635 0.380921 0.780321
C120  C     C_R   0.440023 0.059049 0.379790 0.797327
C121  C     C_R   0.559575 0.940727 0.619213 0.780107
C122  C     C_R   0.641893 0.749906 0.999966 0.810837
C123  C     C_R   0.358125 0.250065 0.000071 0.807663
C124  C     C_R   0.358079 0.749919 0.999988 0.810276
C125  C     C_R   0.806805 0.690737 0.118556 0.785714
C126  C     C_R   0.641899 0.250050 0.999969 0.805723
C127  C     C_R   0.141893 0.249906 0.999966 0.810792
C128  C     C_R   0.858125 0.750065 0.000071 0.807703
C129  C     C_R   0.858079 0.249919 0.999988 0.810294
C130  C     C_R   0.141899 0.750050 0.999970 0.805700
C131  C     C_1   0.580987 0.749759 0.999916 -0.161758
C132  C     C_1   0.419039 0.250155 0.000137 -0.163941
C133  C     C_1   0.418926 0.749784 0.999921 -0.162235
C134  C     C_1   0.581036 0.250125 0.000006 -0.164373
C135  C     C_1   0.080987 0.249759 0.999916 -0.161759
C136  C     C_R   0.806391 0.309266 0.118959 0.795570
C137  C     C_1   0.919040 0.750155 0.000138 -0.163946
C138  C     C_1   0.918926 0.249784 0.999921 -0.162253
C139  C     C_1   0.081037 0.750125 0.000007 -0.164367
C140  C     C_1   0.529894 0.749693 0.999895 0.017184
C141  C     C_1   0.470113 0.250180 0.000120 0.014312
C142  C     C_1   0.469994 0.749705 0.999893 0.017094
C143  C     C_1   0.529983 0.250165 0.000063 0.014064
C144  C     C_1   0.029894 0.249693 0.999894 0.017174
C145  C     C_1   0.970114 0.750180 0.000121 0.014303
C146  C     C_1   0.969994 0.249705 0.999892 0.017085
C147  C     C_R   0.192801 0.690735 0.881430 0.783869
C148  C     C_1   0.029984 0.750165 0.000064 0.014058
C149  C     C_R   0.677250 0.798600 0.717558 -0.204373
C150  C     C_R   0.221727 0.119645 0.112843 -0.231179
C151  C     C_R   0.320424 0.799001 0.280838 -0.203773
C152  C     C_R   0.778976 0.121756 0.884448 -0.231514
C153  C     C_R   0.177538 0.298659 0.717758 -0.204382
C154  C     C_R   0.721723 0.619654 0.112856 -0.231186
C155  C     C_R   0.820499 0.298985 0.280896 -0.203822
C156  C     C_R   0.278976 0.621761 0.884439 -0.231320
C157  C     C_R   0.659493 0.790853 0.635717 -0.153215
C158  C     C_R   0.650674 0.835481 0.732956 0.114212
C159  C     C_R   0.183124 0.083060 0.103956 -0.156858
C160  C     C_R   0.336896 0.791454 0.362075 -0.151711
C161  C     C_R   0.818541 0.085986 0.892442 -0.157416
C162  C     C_R   0.159931 0.290932 0.635986 -0.153199
C163  C     C_R   0.683115 0.583073 0.103975 -0.156854
C164  C     C_R   0.837023 0.291430 0.362160 -0.151774
C165  C     C_R   0.318543 0.585991 0.892432 -0.157211
C166  C     C_R   0.616383 0.819979 0.568126 0.327983
C167  C     C_R   0.217949 0.048002 0.159921 0.298027
C168  C     C_R   0.379831 0.820537 0.429885 0.327864
Cu1   Cu    Cu3+1 0.719090 0.719080 0.938180 0.972002
Cu2   Cu    Cu3+1 0.055800 0.500000 0.500010 0.977753
Cu3   Cu    Cu3+1 0.444200 0.000000 0.499990 0.987010
Cu4   Cu    Cu3+1 0.555800 0.000000 0.500010 0.977721
Cu5   Cu    Cu3+1 0.280910 0.280920 0.061820 0.983968
Cu6   Cu    Cu3+1 0.280910 0.719080 0.061820 0.973093
Cu7   Cu    Cu3+1 0.719090 0.280920 0.938180 0.984212
Cu8   Cu    Cu3+1 0.219090 0.219080 0.938180 0.972065
Cu9   Cu    Cu3+1 0.780910 0.780920 0.061820 0.983896
Cu10  Cu    Cu3+1 0.780910 0.219080 0.061820 0.972958
Cu11  Cu    Cu3+1 0.219090 0.780920 0.938180 0.984226
Cu12  Cu    Cu3+1 0.944200 0.500000 0.499990 0.987217
H1    H     H_    0.653214 0.887387 0.890962 0.168860
H2    H     H_    0.192205 0.146201 0.068221 0.163829
H3    H     H_    0.284722 0.776199 0.229811 0.166474
H4    H     H_    0.807883 0.148458 0.928985 0.162556
H5    H     H_    0.213455 0.275861 0.768580 0.166611
H6    H     H_    0.692204 0.646212 0.068235 0.163820
H7    H     H_    0.784784 0.276184 0.229876 0.166508
H8    H     H_    0.307883 0.648465 0.928970 0.162501
H9    H     H_    0.679371 0.762070 0.624957 0.165526
H10   H     H_    0.126102 0.081809 0.052681 0.177036
H11   H     H_    0.316209 0.762842 0.372220 0.166972
H12   H     H_    0.440647 0.187284 0.256107 0.163601
H13   H     H_    0.875752 0.085494 0.942847 0.176258
H14   H     H_    0.179919 0.262176 0.625309 0.165527
H15   H     H_    0.626092 0.581826 0.052705 0.177033
H16   H     H_    0.816361 0.262812 0.372327 0.166984
H17   H     H_    0.375755 0.585502 0.942830 0.176207
H18   H     H_    0.561234 0.879957 0.529242 0.153814
H19   H     H_    0.315850 0.021495 0.266958 0.180269
H20   H     H_    0.436102 0.880190 0.469764 0.155113
H21   H     H_    0.686923 0.022950 0.731645 0.180272
H22   H     H_    0.061490 0.379958 0.529325 0.153904
H23   H     H_    0.349285 0.886691 0.110330 0.168037
H24   H     H_    0.815837 0.521501 0.266965 0.180273
H25   H     H_    0.936247 0.380167 0.469821 0.154984
H26   H     H_    0.186919 0.522949 0.731655 0.180264
H27   H     H_    0.703264 0.975791 0.874109 0.169181
H28   H     H_    0.677886 0.045970 0.911765 0.152747
H29   H     H_    0.553417 0.066438 0.847366 0.128530
H30   H     H_    0.454208 0.015605 0.747901 0.130432
H31   H     H_    0.478885 0.944695 0.711672 0.150520
H32   H     H_    0.508978 0.185578 0.448154 0.135884
H33   H     H_    0.638194 0.194911 0.564904 0.143144
H34   H     H_    0.558000 0.185282 0.747252 0.158402
H35   H     H_    0.725644 0.149824 0.566399 0.140061
H36   H     H_    0.683504 0.095689 0.449664 0.130140
H37   H     H_    0.554388 0.085587 0.333132 0.125566
H38   H     H_    0.301300 0.976597 0.127888 0.169224
H39   H     H_    0.330062 0.045694 0.090711 0.151599
H40   H     H_    0.455348 0.063372 0.154117 0.129836
H41   H     H_    0.551989 0.011043 0.252885 0.124908
H42   H     H_    0.523959 0.941483 0.289576 0.149149
H43   H     H_    0.481198 0.131795 0.510607 0.105700
H44   H     H_    0.351289 0.140637 0.398113 0.139808
H45   H     H_    0.152886 0.387314 0.890789 0.168761
H46   H     H_    0.271594 0.143983 0.440478 0.141285
H47   H     H_    0.322475 0.138993 0.595972 0.138475
H48   H     H_    0.452475 0.130618 0.709125 0.121748
H49   H     H_    0.202497 0.476135 0.873251 0.168942
H50   H     H_    0.176474 0.546229 0.910444 0.152680
H51   H     H_    0.051846 0.566155 0.846309 0.128241
H52   H     H_    0.953137 0.514880 0.747547 0.130339
H53   H     H_    0.978469 0.444081 0.711704 0.150300
H54   H     H_    0.009005 0.685564 0.448163 0.135870
H55   H     H_    0.138227 0.694886 0.564899 0.143149
H56   H     H_    0.940652 0.687277 0.256093 0.163595
H57   H     H_    0.225657 0.649797 0.566356 0.140068
H58   H     H_    0.183492 0.595672 0.449599 0.130150
H59   H     H_    0.054370 0.585579 0.333082 0.125561
H60   H     H_    0.801281 0.476620 0.127894 0.169214
H61   H     H_    0.830058 0.545717 0.090729 0.151596
H62   H     H_    0.955350 0.563379 0.154121 0.129828
H63   H     H_    0.051982 0.511036 0.252863 0.124921
H64   H     H_    0.023936 0.441478 0.289544 0.149168
H65   H     H_    0.981200 0.631800 0.510609 0.105690
H66   H     H_    0.851290 0.640638 0.398111 0.139808
H67   H     H_    0.849232 0.386705 0.110302 0.168054
H68   H     H_    0.771592 0.643974 0.440472 0.141275
H69   H     H_    0.822470 0.638980 0.595965 0.138446
H70   H     H_    0.952470 0.630612 0.709121 0.121696
H71   H     H_    0.057997 0.685281 0.747254 0.158379
H72   H     H_    0.713179 0.775788 0.768339 0.166695
O1    O     O_R   0.678810 0.768970 0.857610 -0.581002
O2    O     O_R   0.269010 0.178840 0.038010 -0.589294
O3    O     O_R   0.269010 0.821160 0.038010 -0.581065
O4    O     O_R   0.730990 0.178840 0.961990 -0.589829
O5    O     O_R   0.230990 0.321160 0.961990 -0.581674
O6    O     O_R   0.769010 0.678840 0.038010 -0.589293
O7    O     O_R   0.769010 0.321160 0.038010 -0.581053
O8    O     O_R   0.230990 0.678840 0.961990 -0.589785
O9    O     O_R   0.642490 0.723880 0.947790 -0.575987
O10   O     O_R   0.357510 0.276120 0.052210 -0.568267
O11   O     O_R   0.357510 0.723880 0.052210 -0.575406
O12   O     O_R   0.321190 0.231030 0.142390 -0.581680
O13   O     O_R   0.642490 0.276120 0.947790 -0.568339
O14   O     O_R   0.142490 0.223880 0.947790 -0.575990
O15   O     O_R   0.857510 0.776120 0.052210 -0.568284
O16   O     O_R   0.857510 0.223880 0.052210 -0.575419
O17   O     O_R   0.142490 0.776120 0.947790 -0.568350
O18   O     O_R   0.694660 0.776070 0.052170 -0.574581
O19   O     O_R   0.305340 0.223930 0.947830 -0.588222
O20   O     O_R   0.305340 0.776070 0.947830 -0.574820
O21   O     O_R   0.694660 0.223930 0.052170 -0.587965
O22   O     O_R   0.194660 0.276070 0.052170 -0.574585
O23   O     O_R   0.321190 0.768970 0.142390 -0.580167
O24   O     O_R   0.805340 0.723930 0.947830 -0.588221
O25   O     O_R   0.805340 0.276070 0.947830 -0.574826
O26   O     O_R   0.194660 0.723930 0.052170 -0.587953
O27   O     O_R   0.997960 0.545070 0.590160 -0.569767
O28   O     O_R   0.002040 0.454930 0.409840 -0.587485
O29   O     O_R   0.002040 0.545070 0.409840 -0.577619
O30   O     O_R   0.997960 0.454930 0.590160 -0.587352
O31   O     O_R   0.497960 0.045070 0.590160 -0.569916
O32   O     O_R   0.502040 0.954930 0.409840 -0.587434
O33   O     O_R   0.502040 0.045070 0.409840 -0.577624
O34   O     O_R   0.678810 0.231030 0.857610 -0.580595
O35   O     O_R   0.497960 0.954930 0.590160 -0.587637
O36   O     O_R   0.092180 0.545060 0.590150 -0.583874
O37   O     O_R   0.907820 0.454940 0.409850 -0.579482
O38   O     O_R   0.907820 0.545060 0.409850 -0.585725
O39   O     O_R   0.092180 0.454940 0.590150 -0.580671
O40   O     O_R   0.592180 0.045060 0.590150 -0.583915
O41   O     O_R   0.407820 0.954940 0.409850 -0.579487
O42   O     O_R   0.407820 0.045060 0.409850 -0.585700
O43   O     O_R   0.592180 0.954940 0.590150 -0.580611
O44   O     O_R   0.178810 0.268970 0.857610 -0.580933
O45   O     O_R   0.821190 0.731030 0.142390 -0.581680
O46   O     O_R   0.821190 0.268970 0.142390 -0.580223
O47   O     O_R   0.178810 0.731030 0.857610 -0.580605
O48   O     O_R   0.730990 0.821160 0.961990 -0.581739

loop_
_geom_bond_atom_site_label_1
_geom_bond_atom_site_label_2
_ccdc_geom_bond_type
Cu4   O33   S    
C30   H30   S    
C42   H40   S    
C84   C125  S    
C47   C48   A    
Cu8   O19   S    
C32   C38   A    
C114  O44   A    
Cu9   O15   S    
C55   H51   S    
C91   H45   S    
Cu10  O16   S    
Cu7   O13   S    
C149  H72   S    
Cu7   O7    S    
C48   C49   A    
C94   H67   S    
C65   C66   A    
Cu3   O41   S    
Cu1   O1    S    
C123  C132  S    
C20   C108  A    
C68   C86   A    
C24   C82   A    
C154  C163  A    
C83   C114  S    
C14   H24   S    
Cu9   O48   S    
Cu8   O2    S    
C12   H22   S    
C34   H33   S    
C80   C89   A    
Cu5   O12   S    
Cu2   Cu12  S    
Cu6   O11   S    
C103  O34   A    
Cu2   O29   S    
C13   C151  A    
C34   C36   A    
C101  C110  A    
C2    C79   A    
C126  O21   A    
C7    C165  A    
C43   C44   A    
C129  C138  S    
C20   C24   A    
Br5   C4    S    
C50   H47   S    
C104  C112  A    
Cu10  O4    S    
C69   C70   A    
C95   C104  A    
C15   C23   A    
C134  C143  T    
C18   C106  A    
C46   C84   A    
C29   C30   A    
C40   H38   S    
C138  C146  T    
Cu12  O27   S    
C4    C12   A    
C156  C165  A    
C36   H35   S    
C110  C116  S    
C145  C148  S    
C155  C164  A    
Cu8   O44   S    
C147  O47   A    
C3    C161  A    
C79   C81   S    
C136  O7    A    
C33   H32   S    
C15   H25   S    
C8    C17   A    
C23   C57   A    
C37   H36   S    
C39   C44   A    
C111  C115  S    
C17   C158  A    
C98   C107  A    
C75   H68   S    
C159  H10   S    
C61   C62   A    
C128  O24   A    
C35   C83   A    
C56   H52   S    
C78   C87   A    
C62   H57   S    
Br3   C168  S    
C69   H62   S    
Cu7   O34   S    
C73   H65   S    
C9    C167  A    
C10   C168  A    
C160  H11   S    
C71   H64   S    
C65   C102  S    
C91   C100  A    
C22   C46   A    
Cu4   O32   S    
C31   H31   S    
C28   C29   A    
C140  C142  S    
C26   C27   A    
C141  C143  S    
C30   C31   A    
C121  O35   A    
C59   C64   A    
C16   H26   S    
C86   C147  S    
Cu2   O39   S    
C2    C150  A    
Cu12  O38   S    
C47   H43   S    
C127  C135  S    
C13   C80   A    
Cu9   O45   S    
Cu4   O40   S    
C115  O37   A    
C127  O22   A    
C82   C103  S    
C133  C142  T    
Cu11  O17   S    
C124  O20   A    
C131  C140  T    
C162  H14   S    
C106  C120  S    
C26   C31   A    
C76   H69   S    
C115  O28   A    
Cu7   Cu10  S    
C149  C157  A    
C22   C110  A    
Cu2   O28   S    
C157  C166  A    
C157  H9    S    
Cu10  O21   S    
Br2   C167  S    
C66   H60   S    
C75   C76   A    
C57   C155  A    
C65   C71   A    
C153  H5    S    
C11   C20   A    
C67   C69   A    
C85   C136  S    
C7    C16   A    
C128  O15   A    
Cu12  O37   S    
C116  O38   A    
C112  C113  S    
C159  C167  A    
C8    C166  A    
C124  C133  S    
C88   H12   S    
C14   C22   A    
C100  C109  A    
Cu1   O9    S    
C102  C111  A    
C156  H8    S    
C119  O32   A    
C58   H53   S    
C63   C64   A    
C28   H28   S    
C49   C50   A    
C1    O48   A    
C90   H34   S    
C38   H37   S    
C53   C54   A    
C99   C108  A    
C96   C105  A    
C5    C163  A    
C25   C112  A    
C41   C42   A    
C126  O13   A    
C83   C91   A    
C27   H27   S    
C132  C141  T    
C19   C107  A    
C88   C97   A    
C43   H41   S    
C81   O12   A    
C33   C34   A    
Cu3   O35   S    
C27   C28   A    
C78   C158  A    
C29   H29   S    
C49   H46   S    
C37   C38   A    
C3    C11   A    
C93   C101  A    
Cu1   Cu9   S    
C160  C168  A    
C164  H16   S    
C93   H56   S    
C60   C61   A    
C150  C159  A    
C152  C161  A    
C62   C63   A    
C41   H39   S    
C89   H23   S    
C123  O19   A    
C147  O8    A    
C52   C100  S    
C13   C19   A    
C52   C58   A    
C21   C35   A    
C70   H63   S    
C122  C131  S    
C136  O46   A    
Cu8   O14   S    
C120  O33   A    
C59   C60   A    
C151  H3    S    
C9    H19   S    
C76   C77   A    
C152  H4    S    
C116  O29   A    
Cu6   O23   S    
C122  O9    A    
C61   H55   S    
C50   C51   A    
C90   C99   A    
C52   C53   A    
Cu3   O42   S    
C72   C77   A    
C17   C105  A    
C126  C134  S    
C45   C99   S    
Cu1   O24   S    
C120  O42   A    
C92   O3    A    
C155  H7    S    
C39   C98   S    
C42   C43   A    
Cu10  O46   S    
Br4   C3    S    
C139  C148  T    
C23   C111  A    
C80   C92   S    
C84   C93   A    
Cu5   O5    S    
C89   C98   A    
C40   C41   A    
C86   C95   A    
Br8   C7    S    
Cu2   O36   S    
C94   C102  A    
C36   C37   A    
Cu5   Cu8   S    
C121  O43   A    
C11   H21   S    
C95   H71   S    
C85   C94   A    
C129  O16   A    
C16   C25   A    
C54   H50   S    
C150  H2    S    
Cu1   O6    S    
C44   H42   S    
C92   O23   A    
C5    C14   A    
C163  H15   S    
C161  H13   S    
Cu3   Cu4   S    
Cu7   O25   S    
Cu5   O22   S    
C74   C75   A    
C74   H66   S    
C165  H17   S    
C81   O2    A    
C63   H58   S    
C67   H61   S    
C56   C58   A    
C51   H48   S    
Cu9   O18   S    
C124  O11   A    
C73   C74   A    
C45   C51   A    
C125  O6    A    
Cu11  O20   S    
C123  O10   A    
Cu4   O43   S    
C54   C55   A    
C105  C121  S    
C9    C18   A    
C64   H59   S    
C8    H18   S    
C117  O39   A    
C118  O40   A    
C107  C119  S    
C151  C160  A    
C48   H44   S    
C10   H20   S    
C113  O27   A    
Cu11  O3    S    
C59   C101  S    
Br7   C6    S    
Cu6   O8    S    
C60   H54   S    
C1    O1    A    
Cu3   O31   S    
C77   H70   S    
C117  O30   A    
C137  C145  T    
C2    C18   A    
C108  C118  S    
C72   C104  S    
C12   C21   A    
C45   C47   A    
C103  O4    A    
Br1   C166  S    
C66   C67   A    
C97   C106  A    
C6    C164  A    
C70   C71   A    
C4    C162  A    
C21   C109  A    
C26   C96   S    
C55   C56   A    
C6    C15   A    
C122  O18   A    
C1    C78   S    
Cu6   O26   S    
C25   C68   A    
C39   C40   A    
C129  O25   A    
C130  C139  S    
C79   C88   A    
C154  H6    S    
C46   C154  A    
C125  O45   A    
C153  C162  A    
C35   C153  A    
C32   C33   A    
C144  C146  S    
C130  O17   A    
C68   C156  A    
C87   C96   A    
Cu5   O10   S    
C135  C144  T    
C10   C19   A    
C128  C137  S    
C72   C73   A    
C149  C158  A    
C119  O41   A    
Cu12  O30   S    
C130  O26   A    
C127  O14   A    
C53   H49   S    
Cu11  O47   S    
Br6   C5    S    
C109  C117  S    
C57   C85   A    
Cu6   Cu11  S    
C87   H1    S    
C118  O31   A    
C113  O36   A    
C82   C90   A    
C114  O5    A    
C32   C97   S    
C24   C152  A    
