data_mof_unit_10694.cif
_audit_creation_date              2013-03-05T15:45:29-0500
_audit_creation_method            fapswitch 2.2
_symmetry_space_group_name_H-M    P1
_symmetry_Int_Tables_number       1
_space_group_crystal_system       triclinic
_cell_length_a                    20.711941
_cell_length_b                    7.202223
_cell_length_c                    20.362681
_cell_angle_alpha                 91.902311
_cell_angle_beta                  101.310595
_cell_angle_gamma                 87.625542
_cell_volume                      2975.01647395

loop_
_atom_site_label
_atom_site_type_symbol
_atom_site_description
_atom_site_fract_x
_atom_site_fract_y
_atom_site_fract_z
_atom_type_partial_charge
O1    O     O_R   0.423690 0.494470 0.435930 -0.563852
O2    O     O_R   0.576310 0.994470 0.564070 -0.568015
O3    O     O_R   0.556070 0.822310 0.435760 -0.573580
O4    O     O_R   0.443930 0.322310 0.564240 -0.580602
C1    C     C_R   0.575336 0.651115 0.420932 0.961916
C2    C     C_R   0.424260 0.160145 0.579199 0.964135
O5    O     O_R   0.422940 0.824080 0.428040 -0.584655
O6    O     O_R   0.577060 0.324080 0.571960 -0.582241
O7    O     O_R   0.442240 0.995960 0.556300 -0.566785
O8    O     O_R   0.557760 0.495960 0.443700 -0.579456
C3    C     C_R   0.399239 0.657093 0.410632 1.013225
C4    C     C_R   0.600843 0.155520 0.589329 1.015164
O9    O     O_3   0.506490 0.661310 0.542090 -0.256375
O10   O     O_3   0.493510 0.161310 0.457910 -0.257753
V1    V     V_3+5 0.498800 0.935560 0.492190 1.316165
V2    V     V_3+5 0.501200 0.435560 0.507810 1.320947
C5    C     C_R   0.840184 0.081183 0.854492 -0.259504
C6    C     C_R   0.159398 0.577332 0.146127 -0.259802
C7    C     C_R   0.661888 0.153270 0.642002 -0.324169
C8    C     C_R   0.338322 0.658438 0.357686 -0.325107
C9    C     C_R   0.765010 0.304343 0.689198 0.385291
C10   C     C_R   0.235126 0.823377 0.309434 0.384582
C11   C     C_R   0.707898 0.288734 0.640053 -0.190543
C12   C     C_R   0.292369 0.805889 0.358593 -0.187397
C13   C     C_R   0.674233 0.025682 0.694358 0.325734
C14   C     C_R   0.325743 0.520831 0.306399 0.325149
C15   C     C_R   0.730802 0.043500 0.746441 -0.019568
C16   C     C_R   0.268978 0.539372 0.254393 -0.019813
C17   C     C_R   0.775990 0.188019 0.745846 -0.134528
C18   C     C_R   0.223965 0.695507 0.253786 -0.135238
C19   C     C_R   0.829204 0.211446 0.802254 0.448191
C20   C     C_R   0.170758 0.718334 0.197199 0.449779
C21   C     C_R   0.795944 0.937927 0.852076 -0.148658
C22   C     C_R   0.203279 0.422791 0.150019 -0.148370
C23   C     C_R   0.741829 0.921531 0.800168 -0.012612
C24   C     C_R   0.257509 0.405906 0.201982 -0.010791
H1    H     H_    0.802756 0.837712 0.891613 0.159961
H2    H     H_    0.196251 0.313948 0.111506 0.161216
H3    H     H_    0.708719 0.810862 0.802683 0.175343
H4    H     H_    0.290371 0.285716 0.200592 0.174183
H5    H     H_    0.700385 0.381406 0.598112 0.189740
H6    H     H_    0.299923 0.906920 0.399822 0.190678
C25   C     C_3   0.239266 0.281790 0.803790 0.157943
C26   C     C_3   0.731800 0.761688 0.184177 0.193698
C27   C     C_3   0.263021 0.937194 0.800088 -0.596179
C28   C     C_3   0.768367 0.434719 0.211077 -0.600028
C29   C     C_3   0.318239 0.982007 0.760353 0.841960
C30   C     C_3   0.720002 0.424217 0.260342 0.881151
H7    H     H_    0.274076 0.267724 0.852681 0.161316
H8    H     H_    0.708672 0.703205 0.134227 0.158931
H9    H     H_    0.243711 0.798426 0.784598 0.315018
H10   H     H_    0.809939 0.331233 0.223648 0.304721
H11   H     H_    0.283822 0.927729 0.854607 0.238436
H12   H     H_    0.743775 0.394187 0.159229 0.250391
C31   C     C_1   0.378456 0.164553 0.625061 -0.142099
C32   C     C_1   0.620666 0.630416 0.375219 -0.148450
C33   C     C_3   0.205760 0.089444 0.788956 -0.308635
C34   C     C_3   0.794350 0.632771 0.209977 -0.336093
C35   C     C_3   0.280229 0.325584 0.749428 0.662445
C36   C     C_3   0.679671 0.755973 0.231439 0.665507
C37   C     C_3   0.292272 0.140947 0.709072 -0.485334
C38   C     C_3   0.706769 0.620841 0.290659 -0.515614
C39   C     C_3   0.222314 0.086788 0.666737 0.142478
C40   C     C_3   0.774729 0.700901 0.328905 0.150677
C41   C     C_3   0.170093 0.070281 0.713485 0.716316
C42   C     C_3   0.828338 0.688343 0.283603 0.739315
C43   C     C_1   0.339770 0.163294 0.663011 0.393928
C44   C     C_1   0.659124 0.617811 0.337243 0.404880
C45   C     C_1   0.159283 0.070426 0.836147 0.352427
C46   C     C_1   0.841501 0.624116 0.163086 0.322052
C47   C     C_1   0.121150 0.070576 0.874719 -0.177870
C48   C     C_1   0.879606 0.606228 0.124838 -0.205531
H13   H     H_    0.204337 0.197430 0.630480 0.202154
H14   H     H_    0.766454 0.849925 0.340679 0.209807
O11   O     O_R   0.942280 0.741210 0.056360 -0.577651
O12   O     O_R   0.057720 0.241210 0.943640 -0.564805
O13   O     O_R   0.077070 0.409690 0.071960 -0.586678
O14   O     O_R   0.922930 0.909690 0.928040 -0.583167
C49   C     C_R   0.100375 0.577452 0.090187 0.980228
C50   C     C_R   0.899497 0.078748 0.909937 0.983724
O15   O     O_R   0.943940 0.411580 0.064250 -0.576019
O16   O     O_R   0.056060 0.911580 0.935750 -0.575449
O17   O     O_R   0.923670 0.239840 0.935920 -0.559794
O18   O     O_R   0.076330 0.739840 0.064080 -0.554319
C51   C     C_R   0.924647 0.584373 0.078820 0.950814
C52   C     C_R   0.075747 0.075334 0.921025 0.950097
O19   O     O_3   0.993540 0.572620 0.957940 -0.247538
O20   O     O_3   0.006460 0.072620 0.042060 -0.253052
V3    V     V_3+5 0.001200 0.298330 0.007800 1.289576
V4    V     V_3+5 0.998800 0.798330 0.992200 1.299465
Cl1   Cl    Cl    0.879927 0.406660 0.811241 -0.525827
Cl2   Cl    Cl    0.120867 0.925415 0.186529 -0.535930
Cl3   Cl    Cl    0.392099 0.030978 0.819954 -0.436886
Cl4   Cl    Cl    0.644794 0.332831 0.214337 -0.387894
Cl5   Cl    Cl    0.346349 0.786596 0.716471 -0.401613
Cl6   Cl    Cl    0.754831 0.267827 0.325876 -0.408403
Cl7   Cl    Cl    0.105699 0.245928 0.692876 -0.343426
Cl8   Cl    Cl    0.867933 0.906693 0.287060 -0.383978
Cl9   Cl    Cl    0.126866 0.856060 0.699551 -0.312988
Cl10  Cl    Cl    0.894785 0.524147 0.314307 -0.345803
Cl11  Cl    Cl    0.185048 0.471736 0.821624 -0.498928
Cl12  Cl    Cl    0.751021 0.990112 0.164304 -0.512404
Cl13  Cl    Cl    0.238417 0.497244 0.692547 -0.408161
Cl14  Cl    Cl    0.658905 0.966980 0.269408 -0.435591
Cl15  Cl    Cl    0.225088 0.895888 0.607854 -0.380067
Cl16  Cl    Cl    0.802895 0.618056 0.412689 -0.353023
N1    N     N_R   0.812930 0.429590 0.676847 0.274456
O21   O     O_R   0.795550 0.601984 0.663386 -0.311899
O22   O     O_R   0.868489 0.362696 0.663747 -0.218581
N2    N     N_R   0.187093 0.963010 0.321019 0.272900
O23   O     O_R   0.204392 0.134108 0.333841 -0.321580
O24   O     O_R   0.131374 0.912597 0.333977 -0.228560
N3    N     N_R   0.627889 0.884354 0.696467 0.233698
O25   O     O_R   0.644283 0.710363 0.687551 -0.372531
O26   O     O_R   0.568074 0.930166 0.703235 -0.346205
N4    N     N_R   0.372138 0.367853 0.305169 0.233149
O27   O     O_R   0.431193 0.397002 0.295574 -0.344136
O28   O     O_R   0.356465 0.200690 0.316952 -0.374632
Cl17  Cl    Cl    0.355213 0.428429 0.791302 -0.420532
Cl18  Cl    Cl    0.599904 0.712967 0.180743 -0.401754

loop_
_geom_bond_atom_site_label_1
_geom_bond_atom_site_label_2
_geom_bond_distance
_ccdc_geom_bond_type
C39   C41   1.584983 S    
C15   C17   1.430204 A    
C12   H6    1.084495 S    
C1    C32   1.446415 S    
C23   H3    1.081652 S    
O1    C3    1.335002 A    
C2    C31   1.454709 S    
O2    C4    1.332234 A    
C29   Cl5   1.780684 S    
C2    O7    1.322657 A    
C48   C51   1.447088 S    
O14   V4    1.994821 S    
O5    C3    1.328691 A    
O13   V3    2.012220 S    
C5    C21   1.401363 A    
C49   O18   1.337026 A    
O14   C50   1.328395 A    
C27   H9    1.104998 S    
C28   H10   1.111503 S    
N4    O27   1.302338 A    
C36   C38   1.575921 S    
C27   C29   1.574092 S    
C42   Cl10  1.805592 S    
C45   C47   1.218165 T    
N2    O23   1.301383 A    
C38   C40   1.589878 S    
O11   V4    1.980405 S    
O11   C51   1.323821 A    
C8    C12   1.398522 A    
C26   C34   1.575508 S    
C6    C49   1.498587 S    
C10   N2    1.431832 S    
N1    O21   1.301223 A    
C39   Cl15  1.800643 S    
C30   Cl6   1.795748 S    
C25   C35   1.567924 S    
O12   V3    1.941862 S    
O15   V3    1.945618 S    
O5    V1    2.012339 S    
C27   H11   1.112514 S    
O6    V2    1.994921 S    
C28   C34   1.547651 S    
N1    O22   1.301292 A    
O18   V4    1.990303 S    
C50   O17   1.334231 A    
C34   C42   1.572564 S    
C14   N4    1.434504 S    
O13   C49   1.333758 A    
O17   V3    1.997886 S    
C28   C30   1.555964 S    
C3    C8    1.490116 S    
C35   C37   1.576785 S    
C46   C48   1.213281 T    
C24   H4    1.081909 S    
C41   Cl9   1.802307 S    
O4    C2    1.317038 A    
C26   Cl12  1.786183 S    
C34   C46   1.492008 S    
C39   H13   1.106951 S    
C15   C23   1.403536 A    
C32   C44   1.213131 T    
C9    C17   1.424664 A    
C5    C50   1.496543 S    
C21   H1    1.083784 S    
C40   C42   1.574787 S    
O4    V2    2.017343 S    
C7    C11   1.398572 A    
C25   Cl11  1.806685 S    
C13   N3    1.435032 S    
C47   C52   1.455183 S    
C37   C43   1.502816 S    
C30   C38   1.561355 S    
O6    C4    1.323693 A    
C27   C33   1.569587 S    
C28   H12   1.113666 S    
C37   C39   1.590396 S    
C29   Cl3   1.795986 S    
O1    V2    1.990647 S    
O2    V1    1.998275 S    
C6    C22   1.401763 A    
C9    N1    1.431509 S    
C30   Cl4   1.791311 S    
O20   V4    2.188193 S    
C19   Cl1   1.773085 S    
C9    C11   1.397345 A    
C5    C19   1.420240 A    
C10   C12   1.397868 A    
O19   V4    1.746636 S    
C6    C20   1.421927 A    
O12   C52   1.331426 A    
O3    V1    1.945478 S    
N3    O25   1.300920 A    
C26   H8    1.112909 S    
C35   Cl17  1.794900 S    
C10   C18   1.425209 A    
C22   H2    1.083780 S    
C25   H7    1.113681 S    
C33   C41   1.573390 S    
O3    C1    1.323794 A    
C11   H5    1.084522 S    
C29   C37   1.580534 S    
C31   C43   1.217888 T    
C40   Cl16  1.804253 S    
C13   C15   1.424800 A    
C14   C16   1.424635 A    
O16   V4    2.017481 S    
C38   C44   1.498145 S    
C35   Cl13  1.798039 S    
C42   Cl8   1.796508 S    
C16   C18   1.429485 A    
O7    V1    1.945694 S    
C41   Cl7   1.797553 S    
C1    O8    1.315479 A    
C17   C19   1.438225 A    
O16   C52   1.326056 A    
C18   C20   1.438269 A    
C20   Cl2   1.773458 S    
C8    C14   1.409505 A    
C26   C36   1.583511 S    
C4    C7    1.488903 S    
C21   C23   1.387593 A    
N4    O28   1.301749 A    
C36   Cl18  1.800920 S    
C22   C24   1.388168 A    
C7    C13   1.408897 A    
N2    O24   1.301470 A    
C25   C33   1.568956 S    
O20   V3    1.781002 S    
C16   C24   1.403840 A    
O9    V2    1.747061 S    
O19   V3    2.236643 S    
C40   H14   1.105723 S    
O10   V1    1.781404 S    
O8    V2    1.986347 S    
C33   C45   1.500427 S    
C36   Cl14  1.757995 S    
O15   C51   1.333137 A    
N3    O26   1.301055 A    
