data_mof_unit_41303.cif
_audit_creation_date              2012-12-10T16:53:55-0500
_audit_creation_method            fapswitch 2.2
_symmetry_space_group_name_H-M    P1
_symmetry_Int_Tables_number       1
_space_group_crystal_system       triclinic
_cell_length_a                    7.762594
_cell_length_b                    8.567596
_cell_length_c                    10.626267
_cell_angle_alpha                 91.372633
_cell_angle_beta                  84.854211
_cell_angle_gamma                 93.883769
_cell_volume                      702.140279109

loop_
_atom_site_label
_atom_site_type_symbol
_atom_type_description
_atom_site_fract_x
_atom_site_fract_y
_atom_site_fract_z
_atom_type_partial_charge
C1    C     C_R   0.545993 0.794864 0.496986 0.976425
C2    C     C_3   0.499799 0.489582 0.121365 0.098481
C3    C     C_3   0.684614 0.459788 0.059517 -0.394135
C4    C     C_3   0.445834 0.647460 0.075673 -0.427232
C5    C     C_2   0.570184 0.958455 0.495444 -0.396838
C6    C     C_2   0.429827 0.041608 0.505797 -0.395636
C7    C     C_R   0.498443 0.489075 0.741802 0.818457
C8    C     C_R   0.454013 0.205145 0.503343 0.948927
C9    C     C_R   0.499363 0.496752 0.257751 0.854316
C10   C     C_3   0.349500 0.358150 0.938986 0.241238
C11   C     C_3   0.371533 0.353678 0.082585 -0.394064
C12   C     C_3   0.680955 0.439422 0.916467 -0.065737
C13   C     C_3   0.466343 0.648509 0.931249 -0.487988
C14   C     C_3   0.496804 0.480183 0.878439 0.111047
H1    H     H_    0.014320 0.382408 0.404249 0.186470
H2    H     H_    0.243376 0.360287 0.138057 0.173291
H3    H     H_    0.579143 0.729846 0.899512 0.171349
H4    H     H_    0.351623 0.697794 0.895346 0.184384
N1    N     N_2   0.950330 0.457950 0.465890 -0.176261
N2    N     N_2   0.049670 0.542050 0.534110 -0.179055
O1    O     O_R   0.389250 0.738570 0.508370 -0.608068
O2    O     O_R   0.678390 0.711620 0.486510 -0.626743
O3    O     O_R   0.355430 0.513500 0.696140 -0.635687
O4    O     O_R   0.644580 0.486550 0.674270 -0.638595
O5    O     O_R   0.321610 0.288380 0.513490 -0.634963
O6    O     O_R   0.610750 0.261430 0.491630 -0.614317
O7    O     O_R   0.355420 0.513450 0.325730 -0.631350
O8    O     O_R   0.644570 0.486500 0.303860 -0.629192
Zn1   Zn    Zn3+2 0.306940 0.517990 0.514600 0.919030
Zn2   Zn    Zn3+2 0.693060 0.482010 0.485400 0.922159
N3    N     N_3   0.369182 0.200647 0.883559 -0.498127
H5    H     H_    0.349410 0.201064 0.787552 0.171534
H6    H     H_    0.272370 0.123229 0.926172 0.194011
H7    H     H_    0.527712 0.746523 0.113334 0.166235
H8    H     H_    0.781607 0.525463 0.872757 0.164061
H9    H     H_    0.776439 0.560972 0.080155 0.166561
H10   H     H_    0.702600 0.009898 0.485515 0.178839
H11   H     H_    0.297409 0.990191 0.515883 0.179916
H12   H     H_    0.985665 0.617470 0.595848 0.185702
N4    N     N_3   0.171076 0.401035 0.924318 -0.468143
H13   H     H_    0.137667 0.384207 0.831776 0.219753
H14   H     H_    0.149268 0.515113 0.954827 0.183608
H15   H     H_    0.421401 0.240592 0.107685 0.145567
N5    N     N_3   0.733376 0.282531 0.875479 -0.462046
H16   H     H_    0.671965 0.195845 0.934401 0.211154
H17   H     H_    0.703562 0.255478 0.783351 0.216357
H18   H     H_    0.734490 0.355102 0.100650 0.187255
H19   H     H_    0.308782 0.665068 0.110321 0.188048

loop_
_geom_bond_atom_site_label_1
_geom_bond_atom_site_label_2
_ccdc_geom_bond_type
C2    C4    S    
N3    H6    S    
C1    O1    A    
C5    H10   S    
O7    Zn1   S    
C8    O6    A    
C11   H2    S    
N3    H5    S    
C13   H3    S    
O8    Zn2   S    
C2    C3    S    
C1    O2    A    
C12   N5    S    
C13   C14   S    
N5    H17   S    
C12   H8    S    
C11   H15   S    
C8    O5    A    
N1    Zn2   S    
C13   H4    S    
C7    O3    A    
C2    C11   S    
C3    H9    S    
N4    H14   S    
N4    H13   S    
C12   C14   S    
O6    Zn2   S    
C4    H7    S    
N2    Zn1   S    
O5    Zn1   S    
C5    C6    D    
O4    Zn2   S    
C10   C11   S    
C7    O4    A    
O3    Zn1   S    
C1    C5    S    
N5    H16   S    
C9    O7    A    
C10   N4    S    
C4    H19   S    
C3    H18   S    
C4    C13   S    
N2    H12   S    
C6    C8    S    
C3    C12   S    
O2    Zn2   S    
C6    H11   S    
H1    N1    S    
C2    C9    S    
O1    Zn1   S    
C10   N3    S    
C7    C14   S    
N1    N2    D    
C9    O8    A    
C10   C14   S    
