data_mof_unit_17380.cif
_audit_creation_date              2012-12-10T18:05:51-0500
_audit_creation_method            fapswitch 2.2
_symmetry_space_group_name_H-M    P1
_symmetry_Int_Tables_number       1
_space_group_crystal_system       triclinic
_cell_length_a                    12.585536
_cell_length_b                    13.112246
_cell_length_c                    14.997041
_cell_angle_alpha                 90.517178
_cell_angle_beta                  102.645017
_cell_angle_gamma                 82.310402
_cell_volume                      2392.6121178

loop_
_atom_site_label
_atom_site_type_symbol
_atom_type_description
_atom_site_fract_x
_atom_site_fract_y
_atom_site_fract_z
_atom_type_partial_charge
C1    C     C_R   0.438747 0.691275 0.485268 0.868716
C2    C     C_R   0.400070 0.500900 0.074328 0.151181
C3    C     C_R   0.700504 0.491564 0.083255 0.613432
C4    C     C_R   0.700270 0.493148 0.990545 -0.303185
C5    C     C_R   0.601028 0.497360 0.925795 0.020833
C6    C     C_R   0.500698 0.499827 0.953745 0.061370
C7    C     C_R   0.400388 0.503838 0.888852 0.142438
C8    C     C_R   0.301042 0.506388 0.916871 -0.218914
C9    C     C_R   0.300892 0.504889 0.009456 -0.211041
C10   C     C_R   0.600353 0.498643 0.833322 -0.214612
C11   C     C_R   0.500851 0.501836 0.769225 -0.074684
C12   C     C_R   0.500429 0.500712 0.673103 0.889723
C13   C     C_R   0.401209 0.504928 0.796810 -0.256167
C14   C     C_R   0.706838 0.064189 0.437406 0.102900
C15   C     C_R   0.596880 0.199799 0.500471 -0.102181
C16   C     C_R   0.297506 0.839528 0.490879 -0.198615
C17   C     C_R   0.266444 0.945161 0.494353 0.165322
C18   C     C_R   0.341722 0.012036 0.485797 -0.230212
C19   C     C_R   0.446342 0.973693 0.469098 0.072095
C20   C     C_R   0.468091 0.868968 0.449862 0.079587
C21   C     C_R   0.530187 0.035976 0.470987 0.071160
C22   C     C_R   0.625395 0.999088 0.437480 0.118778
C23   C     C_R   0.561148 0.308583 0.509199 0.878751
C24   C     C_R   0.635875 0.899034 0.404345 -0.254414
C25   C     C_R   0.558607 0.834828 0.410722 -0.176079
C26   C     C_R   0.522745 0.133240 0.508393 -0.258656
C27   C     C_R   0.690666 0.165000 0.467470 -0.185549
C28   C     C_R   0.399294 0.800975 0.471536 -0.157595
C29   C     C_R   0.088024 0.345315 0.374359 -0.280288
C30   C     C_R   0.799623 0.630716 0.607649 0.019831
C31   C     C_R   0.904209 0.659708 0.629336 -0.249658
C32   C     C_R   0.985706 0.610342 0.588486 -0.199401
C33   C     C_R   0.962647 0.531072 0.525481 0.019173
C34   C     C_R   0.499658 0.499138 0.326920 0.871109
C35   C     C_R   0.854668 0.504282 0.505956 0.239014
C36   C     C_R   0.041806 0.477609 0.481177 -0.016467
C37   C     C_R   0.011392 0.398927 0.418599 0.199067
C38   C     C_R   0.904956 0.374158 0.400952 -0.243432
C39   C     C_R   0.828034 0.426002 0.444221 -0.226215
C40   C     C_R   0.150728 0.498499 0.496359 -0.049600
C41   C     C_R   0.194228 0.369720 0.392490 0.003787
C42   C     C_R   0.400392 0.500137 0.166688 -0.245098
C43   C     C_R   0.499656 0.497309 0.230895 -0.095171
C44   C     C_R   0.599523 0.493766 0.203579 -0.203615
C45   C     C_R   0.600969 0.494349 0.111530 -0.029113
C46   C     C_R   0.500618 0.498288 0.046553 -0.012909
H1    H     H_    0.323329 0.503097 0.188430 0.165173
H2    H     H_    0.704730 0.868581 0.375252 0.154257
H3    H     H_    0.457128 0.160735 0.542011 0.159570
H4    H     H_    0.242944 0.787659 0.505429 0.160812
H5    H     H_    0.315597 0.093471 0.489600 0.131288
H6    H     H_    0.569851 0.758436 0.383464 0.175145
H7    H     H_    0.254981 0.328836 0.359372 0.138010
H8    H     H_    0.880927 0.314143 0.353521 0.165602
H9    H     H_    0.066074 0.285068 0.326606 0.151746
H10   H     H_    0.676173 0.490577 0.254027 0.212578
H11   H     H_    0.181703 0.556209 0.542701 0.121986
H12   H     H_    0.735765 0.669036 0.638864 0.143148
H13   H     H_    0.065319 0.635901 0.607508 0.135788
H14   H     H_    0.922039 0.720411 0.677493 0.154711
H15   H     H_    0.748112 0.402935 0.428023 0.207651
H16   H     H_    0.777538 0.491065 0.969388 0.175895
H17   H     H_    0.677284 0.495911 0.811405 0.162552
H18   H     H_    0.324108 0.508319 0.746767 0.157677
H19   H     H_    0.223731 0.509481 0.867264 0.148866
H20   H     H_    0.223462 0.506977 0.030335 0.153160
H21   H     H_    0.748841 0.216924 0.461333 0.158783
N1    N     N_R   0.222190 0.444670 0.452360 -0.103160
N2    N     N_R   0.776970 0.554790 0.547140 -0.131962
O1    O     O_R   0.366740 0.627160 0.477250 -0.615679
O2    O     O_R   0.544830 0.662520 0.507680 -0.617896
O3    O     O_R   0.410940 0.482340 0.616930 -0.624202
O4    O     O_R   0.589030 0.517700 0.647360 -0.624091
O5    O     O_R   0.455170 0.337480 0.492320 -0.614754
O6    O     O_R   0.633260 0.372840 0.522750 -0.636658
O7    O     O_R   0.410970 0.482300 0.352640 -0.616482
O8    O     O_R   0.589060 0.517660 0.383070 -0.649736
Zn1   Zn    Zn3+2 0.381090 0.476390 0.479680 0.942555
Zn2   Zn    Zn3+2 0.618910 0.523610 0.520320 0.929070
N3    N     N_3   0.804362 0.031482 0.404510 -0.474430
H22   H     H_    0.847449 0.966822 0.442871 0.188069
H23   H     H_    0.781490 0.011130 0.336108 0.185124
N4    N     N_3   0.160532 0.982894 0.511628 -0.457120
H24   H     H_    0.101294 0.964639 0.455389 0.184682
H25   H     H_    0.150591 0.063184 0.515189 0.184448
F1    F     F_    0.797707 0.487512 0.145062 -0.677569

loop_
_geom_bond_atom_site_label_1
_geom_bond_atom_site_label_2
_ccdc_geom_bond_type
C16   C28   A    
C21   C26   A    
O1    Zn1   S    
C10   H17   S    
O2    Zn2   S    
C7    C8    A    
C45   C46   A    
C2    C46   A    
C1    O2    A    
N4    H24   S    
C36   C37   A    
C19   C21   A    
C16   H4    S    
C34   O8    A    
C5    C6    A    
C20   C25   A    
C4    H16   S    
C33   C36   A    
C18   C19   A    
C9    H20   S    
O3    Zn1   S    
C19   C20   A    
C8    C9    A    
C1    C28   S    
C14   N3    S    
C14   C27   A    
C15   C23   S    
C12   O3    A    
C8    H19   S    
C21   C22   A    
C3    F1    S    
C18   H5    S    
C41   N1    A    
O8    Zn2   S    
N1    Zn1   S    
C38   C39   A    
C39   H15   S    
C24   H2    S    
C36   C40   A    
C24   C25   A    
N3    H23   S    
C26   H3    S    
C23   O6    A    
C16   C17   A    
C15   C26   A    
C20   C28   A    
C3    C45   A    
C17   N4    S    
C31   H14   S    
C35   C39   A    
C43   C44   A    
C37   C38   A    
C44   H10   S    
C15   C27   A    
C31   C32   A    
C38   H8    S    
C7    C13   A    
C17   C18   A    
O4    Zn2   S    
C41   H7    S    
N4    H25   S    
O5    Zn1   S    
C22   C24   A    
N2    Zn2   S    
C42   C43   A    
C23   O5    A    
C3    C4    A    
C30   N2    A    
C44   C45   A    
C40   H11   S    
C6    C46   A    
C29   C41   A    
C34   C43   S    
O7    Zn1   S    
N3    H22   S    
C11   C12   S    
C6    C7    A    
C29   H9    S    
C1    O1    A    
C32   C33   A    
C14   C22   A    
C25   H6    S    
C5    C10   A    
C11   C13   A    
C30   C31   A    
C13   H18   S    
C2    C42   A    
C30   H12   S    
C33   C35   A    
C42   H1    S    
C27   H21   S    
C10   C11   A    
C4    C5    A    
C35   N2    A    
C40   N1    A    
C29   C37   A    
C32   H13   S    
C12   O4    A    
C2    C9    A    
O6    Zn2   S    
C34   O7    A    
