data_mof_unit_6218.cif
_audit_creation_date              2012-12-10T18:47:42-0500
_audit_creation_method            fapswitch 2.2
_symmetry_space_group_name_H-M    P1
_symmetry_Int_Tables_number       1
_space_group_crystal_system       triclinic
_cell_length_a                    9.847446
_cell_length_b                    10.720881
_cell_length_c                    15.520519
_cell_angle_alpha                 90.048625
_cell_angle_beta                  66.998557
_cell_angle_gamma                 89.962568
_cell_volume                      1508.27786644

loop_
_atom_site_label
_atom_site_type_symbol
_atom_type_description
_atom_site_fract_x
_atom_site_fract_y
_atom_site_fract_z
_atom_type_partial_charge
C1    C     C_R   0.499936 0.740128 0.500123 0.862261
C2    C     C_R   0.500022 0.259876 0.499944 0.869561
C3    C     C_R   0.378406 0.370462 0.083388 -0.237287
C4    C     C_R   0.655190 0.567832 0.901059 -0.232836
C5    C     C_R   0.280973 0.341363 0.041783 -0.238437
C6    C     C_R   0.754879 0.593467 0.941678 -0.242767
C7    C     C_R   0.616272 0.936101 0.510804 -0.196658
C8    C     C_R   0.383565 0.063917 0.489446 -0.192483
C9    C     C_R   0.616385 0.063841 0.510644 -0.193844
C10   C     C_R   0.383486 0.936182 0.489568 -0.195250
C11   C     C_R   0.500024 0.127426 0.499980 -0.002067
C12   C     C_R   0.499852 0.872590 0.500216 -0.004120
C13   C     C_R   0.964871 0.426490 0.438011 0.607716
C14   C     C_R   0.035034 0.573386 0.562033 0.599640
C15   C     C_R   0.110472 0.428539 0.437683 -0.330266
C16   C     C_R   0.889500 0.571359 0.562371 -0.327380
C17   C     C_R   0.407290 0.497894 0.676078 0.914238
C18   C     C_R   0.592839 0.500565 0.323700 0.908842
C19   C     C_R   0.348294 0.479166 0.776889 -0.167661
C20   C     C_R   0.653228 0.505610 0.221607 -0.161929
C21   C     C_R   0.203247 0.358040 0.912868 -0.306225
C22   C     C_R   0.824488 0.587742 0.074353 -0.315011
C23   C     C_R   0.229220 0.398423 0.822083 0.516565
C24   C     C_R   0.789671 0.561846 0.169121 0.520868
C25   C     C_R   0.432617 0.524522 0.823824 -0.345184
C26   C     C_R   0.562956 0.462996 0.177633 -0.353087
C27   C     C_R   0.418773 0.474728 0.910021 0.104308
C28   C     C_R   0.596834 0.486357 0.083000 0.102915
C29   C     C_R   0.299236 0.392797 0.955828 0.094827
C30   C     C_R   0.726666 0.554686 0.032407 0.103262
C31   C     C_R   0.523694 0.500133 0.949751 0.090532
C32   C     C_R   0.499004 0.452117 0.039823 0.087130
H1    H     H_    0.191598 0.276847 0.076771 0.148566
H2    H     H_    0.853433 0.646436 0.902334 0.152116
H3    H     H_    0.460038 0.420222 0.221067 0.169821
H4    H     H_    0.514817 0.593426 0.787945 0.159938
H5    H     H_    0.114810 0.292315 0.946812 0.156649
H6    H     H_    0.923871 0.639676 0.035005 0.154709
H7    H     H_    0.359441 0.322771 0.148141 0.141025
H8    H     H_    0.687377 0.599942 0.830149 0.146450
H9    H     H_    0.706640 0.887564 0.519518 0.154163
H10   H     H_    0.293192 0.112449 0.480733 0.153573
H11   H     H_    0.706802 0.112319 0.519249 0.160510
H12   H     H_    0.293134 0.887713 0.480887 0.160063
H13   H     H_    0.198250 0.374141 0.387442 0.166119
H14   H     H_    0.801775 0.625704 0.612718 0.166709
N1    N     N_R   0.142780 0.500030 0.500020 -0.123664
N2    N     N_R   0.857220 0.499970 0.499980 -0.124267
O1    O     O_R   0.385370 0.683250 0.500010 -0.593072
O2    O     O_R   0.614630 0.316750 0.499990 -0.595027
O3    O     O_R   0.614700 0.683220 0.500000 -0.626741
O4    O     O_R   0.385300 0.316780 0.500000 -0.623134
O5    O     O_R   0.319830 0.500020 0.632250 -0.532940
O6    O     O_R   0.680170 0.499980 0.367750 -0.523121
O7    O     O_R   0.549160 0.499990 0.632240 -0.632257
O8    O     O_R   0.450840 0.500010 0.367760 -0.636820
Zn1   Zn    Zn3+2 0.346870 0.500020 0.500000 1.001689
Zn2   Zn    Zn3+2 0.653130 0.499980 0.500000 1.006134
O9    O     O_3   0.877136 0.607510 0.213394 -0.600598
C33   C     C_3   0.012026 0.541880 0.180822 -0.225228
H15   H     H_    0.994524 0.439048 0.186255 0.176171
H16   H     H_    0.072833 0.566903 0.225327 0.195789
H17   H     H_    0.082378 0.568653 0.107759 0.149888
O10   O     O_3   0.154874 0.343236 0.772708 -0.603595
C34   C     C_3   0.014149 0.398015 0.800935 -0.256048
H18   H     H_    0.957366 0.358232 0.757970 0.191351
H19   H     H_    0.022459 0.500503 0.788731 0.189437
H20   H     H_    0.945460 0.376803 0.875499 0.155591
O11   O     O_3   0.929052 0.358606 0.373512 -0.577432
C35   C     C_3   0.996168 0.239782 0.356283 -0.390764
H21   H     H_    0.993804 0.194267 0.421386 0.153456
H22   H     H_    0.110704 0.246066 0.302842 0.156835
H23   H     H_    0.933535 0.178899 0.327069 0.205983
O12   O     O_3   0.070391 0.641170 0.626725 -0.586021
C36   C     C_3   0.006674 0.761329 0.641500 -0.380041
H24   H     H_    0.891306 0.757827 0.694077 0.158290
H25   H     H_    0.011975 0.805672 0.575333 0.152211
H26   H     H_    0.069812 0.821743 0.670654 0.207361

loop_
_geom_bond_atom_site_label_1
_geom_bond_atom_site_label_2
_ccdc_geom_bond_type
C27   C29   A    
C15   N1    A    
C16   N2    A    
C13   O11   S    
C33   H17   S    
C14   O12   S    
C8    H10   S    
C24   O9    S    
C22   H6    S    
O1    Zn1   S    
O8    Zn1   S    
C33   H16   S    
C36   H25   S    
C2    O2    A    
C20   C24   A    
C34   H19   S    
C5    H1    S    
C35   H21   S    
C14   C16   A    
C17   O7    A    
C18   O8    A    
C3    H7    S    
O9    C33   S    
C3    C32   A    
C1    C12   S    
C2    C11   S    
C10   C12   A    
C5    C29   A    
C21   C23   A    
C7    C12   A    
C9    H11   S    
O12   C36   S    
C10   H12   S    
O2    Zn2   S    
C4    H8    S    
C28   C32   A    
C4    C6    A    
C16   H14   S    
O5    Zn1   S    
C21   C29   A    
C6    H2    S    
C33   H15   S    
C19   C23   A    
C36   H24   S    
N1    Zn1   S    
C1    O3    A    
C31   C32   A    
C34   H20   S    
C35   H23   S    
O3    Zn2   S    
C9    C11   A    
C2    O4    A    
C23   O10   S    
C6    C30   A    
C13   C15   A    
C27   C31   A    
C22   C24   A    
C15   H13   S    
C17   O5    A    
O6    Zn2   S    
C7    C9    A    
C22   C30   A    
C3    C5    A    
C13   N2    A    
N2    Zn2   S    
C14   N1    A    
C25   C27   A    
C26   C28   A    
O10   C34   S    
C28   C30   A    
C20   C26   A    
C8    C11   A    
C17   C19   S    
C18   C20   S    
C7    H9    S    
O11   C35   S    
C19   C25   A    
C36   H26   S    
C4    C31   A    
O4    Zn1   S    
C18   O6    A    
C25   H4    S    
C26   H3    S    
C21   H5    S    
C8    C10   A    
C34   H18   S    
O7    Zn2   S    
C35   H22   S    
C1    O1    A    
