data_mof_unit_45151.cif
_audit_creation_date              2012-10-26T19:49:50-0400
_audit_creation_method            fapswitch 2.2
_symmetry_space_group_name_H-M    P1
_symmetry_Int_Tables_number       1
_space_group_crystal_system       triclinic
_cell_length_a                    15.126607
_cell_length_b                    13.881441
_cell_length_c                    10.774084
_cell_angle_alpha                 89.953662
_cell_angle_beta                  90.473729
_cell_angle_gamma                 90.050669
_cell_volume                      2262.25355015

loop_
_atom_site_label
_atom_site_type_symbol
_atom_type_description
_atom_site_fract_x
_atom_site_fract_y
_atom_site_fract_z
_atom_type_partial_charge
C1    C     C_R   0.329945 0.500002 0.499827 0.520769
C2    C     C_R   0.951520 0.500675 0.498381 0.035090
C3    C     C_R   0.543426 0.107536 0.593585 -0.142614
C4    C     C_R   0.455586 0.107374 0.407749 -0.144016
C5    C     C_R   0.547367 0.209294 0.588384 0.366982
C6    C     C_R   0.452196 0.209220 0.412177 0.364544
C7    C     C_R   0.499489 0.054569 0.500797 -0.051955
C8    C     C_R   0.423070 0.891708 0.467077 0.208444
C9    C     C_R   0.576251 0.892013 0.534765 0.206842
C10   C     C_R   0.426747 0.790431 0.461827 0.041917
C11   C     C_R   0.573089 0.790656 0.538570 0.047749
C12   C     C_R   0.670093 0.500057 0.499841 0.538828
C13   C     C_R   0.499600 0.945286 0.500907 0.024419
C14   C     C_R   0.496612 0.500033 0.262493 0.541327
C15   C     C_R   0.496694 0.500001 0.737440 0.538122
C16   C     C_R   0.357234 0.603957 0.127758 -0.102735
C17   C     C_R   0.357404 0.604242 0.868749 -0.104544
C18   C     C_R   0.292665 0.654831 0.062006 -0.121873
C19   C     C_R   0.292785 0.655041 0.932904 -0.123083
C20   C     C_R   0.424556 0.553463 0.933438 0.022750
C21   C     C_R   0.424508 0.553403 0.064711 0.026705
C22   C     C_R   0.490151 0.499857 0.128762 0.009802
C23   C     C_R   0.233533 0.500194 0.499539 0.011020
C24   C     C_R   0.490180 0.499836 0.871019 0.001158
C25   C     C_R   0.551177 0.443883 0.064623 -0.147934
C26   C     C_R   0.551207 0.443902 0.936692 -0.146257
C27   C     C_R   0.095362 0.582393 0.459441 -0.121908
C28   C     C_R   0.905098 0.583426 0.534466 -0.121606
C29   C     C_R   0.187222 0.582408 0.460593 -0.137505
C30   C     C_R   0.813233 0.583438 0.534075 -0.130482
C31   C     C_3   0.296328 0.957677 0.544377 0.004132
C32   C     C_3   0.235272 0.873450 0.578092 -0.270503
C33   C     C_3   0.174925 0.899400 0.685746 -0.486260
C34   C     C_R   0.766593 0.500312 0.499150 0.012264
C35   C     C_3   0.703968 0.959961 0.462699 0.003705
C36   C     C_3   0.770287 0.879363 0.435630 -0.268860
C37   C     C_3   0.832972 0.907656 0.331531 -0.483116
C38   C     C_3   0.685119 0.238004 0.675241 0.005306
C39   C     C_3   0.714405 0.195989 0.800239 -0.267867
C40   C     C_3   0.813205 0.173837 0.801596 -0.481958
C41   C     C_3   0.314643 0.237618 0.324372 0.009850
C42   C     C_3   0.285719 0.198099 0.197983 -0.264623
C43   C     C_3   0.186825 0.176281 0.195085 -0.483952
C44   C     C_R   0.187117 0.418280 0.538308 -0.144064
C45   C     C_R   0.812785 0.417542 0.463262 -0.146946
C46   C     C_R   0.095279 0.418659 0.538629 -0.125227
C47   C     C_R   0.904625 0.417881 0.462228 -0.125669
C48   C     C_R   0.048662 0.500587 0.498762 0.035476
Cu1   Cu    Cu3+1 0.500000 0.596430 0.500000 0.914234
Cu2   Cu    Cu3+1 0.500000 0.403570 0.500000 1.030292
H1    H     H_    0.600532 0.401798 0.114023 0.123501
H2    H     H_    0.939736 0.647691 0.564620 0.100098
H3    H     H_    0.221914 0.646165 0.429349 0.106957
H4    H     H_    0.778821 0.647987 0.562768 0.113549
H5    H     H_    0.221767 0.354414 0.569867 0.114256
H6    H     H_    0.777976 0.352942 0.434610 0.111663
H7    H     H_    0.060808 0.355314 0.571545 0.098620
H8    H     H_    0.938880 0.353752 0.431785 0.098404
H9    H     H_    0.574874 0.070570 0.670342 0.161993
H10   H     H_    0.423684 0.070231 0.331468 0.160883
H11   H     H_    0.254912 0.021987 0.524343 0.142823
H12   H     H_    0.600617 0.401936 0.888518 0.145446
H13   H     H_    0.339344 0.977310 0.625246 0.127442
H14   H     H_    0.194053 0.853712 0.496070 0.166400
H15   H     H_    0.275377 0.809797 0.605464 0.153180
H16   H     H_    0.214881 0.918002 0.769335 0.148251
H17   H     H_    0.132109 0.836844 0.708189 0.144032
H18   H     H_    0.132120 0.961459 0.660344 0.141782
H19   H     H_    0.741277 0.027183 0.482974 0.141896
H20   H     H_    0.662554 0.975320 0.378650 0.125693
H21   H     H_    0.809585 0.863453 0.520844 0.168144
H22   H     H_    0.734322 0.812932 0.407741 0.156126
H23   H     H_    0.369259 0.751203 0.429730 0.137817
H24   H     H_    0.795123 0.922713 0.244879 0.149980
H25   H     H_    0.879658 0.847621 0.313781 0.147042
H26   H     H_    0.871664 0.972605 0.358107 0.139250
H27   H     H_    0.721637 0.306414 0.660486 0.159877
H28   H     H_    0.704869 0.188553 0.598512 0.103122
H29   H     H_    0.699733 0.248384 0.875247 0.161487
H30   H     H_    0.677285 0.128629 0.819298 0.168691
H31   H     H_    0.829019 0.119747 0.729155 0.151751
H32   H     H_    0.832581 0.144167 0.893601 0.146268
H33   H     H_    0.851936 0.240523 0.784566 0.143783
H34   H     H_    0.630623 0.751575 0.570632 0.143158
H35   H     H_    0.278008 0.305554 0.341308 0.161912
H36   H     H_    0.294841 0.186419 0.399297 0.102621
H37   H     H_    0.300991 0.251915 0.124719 0.177636
H38   H     H_    0.322724 0.130994 0.177419 0.166001
H39   H     H_    0.170412 0.120987 0.265897 0.151256
H40   H     H_    0.167791 0.148285 0.102118 0.146626
H41   H     H_    0.148291 0.242789 0.213524 0.145521
H42   H     H_    0.352553 0.603353 0.227795 0.129441
H43   H     H_    0.352835 0.603882 0.768609 0.138018
H44   H     H_    0.241636 0.693222 0.111492 0.109918
H45   H     H_    0.241884 0.693661 0.882158 0.110491
H46   H     H_    0.060947 0.645901 0.426335 0.099645
N1    N     N_R   0.500000 0.258690 0.500000 -0.203437
N2    N     N_R   0.500000 0.741330 0.500000 -0.286737
O1    O     O_R   0.371460 0.581430 0.500010 -0.538028
O2    O     O_3   0.653992 0.937485 0.569402 -0.600337
O3    O     O_3   0.593660 0.260053 0.678323 -0.540111
O4    O     O_3   0.406078 0.260003 0.322064 -0.533391
O5    O     O_R   0.628540 0.581430 0.499990 -0.517328
O6    O     O_R   0.371470 0.418560 0.500010 -0.491967
O7    O     O_R   0.628530 0.418560 0.499990 -0.494256
O8    O     O_R   0.500000 0.581450 0.319650 -0.507760
O9    O     O_R   0.500000 0.581450 0.680350 -0.508033
O10   O     O_R   0.500010 0.418580 0.319650 -0.448633
O11   O     O_R   0.499990 0.418580 0.680350 -0.447784
O12   O     O_3   0.344512 0.936760 0.435550 -0.600819

loop_
_geom_bond_atom_site_label_1
_geom_bond_atom_site_label_2
_ccdc_geom_bond_type
C27   C48   A    
C37   H24   S    
Cu2   O6    S    
C8    C13   A    
C27   C29   A    
C41   C42   S    
C15   O11   A    
C35   C36   S    
C1    O1    A    
Cu1   O9    S    
C41   H36   S    
C30   H4    S    
C43   H39   S    
C11   N2    A    
C23   C29   A    
C11   H34   S    
C36   C37   S    
C24   C26   A    
C38   O3    S    
C3    C7    A    
C38   C39   S    
C10   H23   S    
C17   C20   A    
C41   O4    S    
C18   C19   A    
C15   O9    A    
C10   N2    A    
C31   H11   S    
C9    C13   A    
Cu1   N2    S    
C20   C24   A    
C45   H6    S    
C22   C25   A    
Cu2   O7    S    
C36   H21   S    
C14   O10   A    
C37   H25   S    
C21   C22   A    
Cu2   O10   S    
C40   H33   S    
C27   H46   S    
C4    C7    A    
C44   C46   A    
C33   H16   S    
C5    O3    S    
C45   C47   A    
C46   C48   A    
C43   H40   S    
C30   C34   A    
C6    N1    A    
C40   H32   S    
C32   H14   S    
C12   O5    A    
C4    C6    A    
C39   C40   S    
C38   H28   S    
C2    C48   S    
C25   C26   A    
Cu2   O11   S    
C43   H41   S    
C23   C44   A    
C39   H29   S    
C25   H1    S    
C8    O12   S    
Cu1   O1    S    
C31   C32   S    
C7    C13   S    
C4    H10   S    
C34   C45   A    
C9    C11   A    
C1    O6    A    
C16   C18   A    
C15   C24   S    
C37   H26   S    
C5    N1    A    
C1    C23   S    
C9    O2    S    
C35   H20   S    
C46   H7    S    
C18   H44   S    
C42   H38   S    
C42   C43   S    
C12   C34   S    
C35   O2    S    
C19   H45   S    
C33   H17   S    
Cu2   N1    S    
C40   H31   S    
C3    C5    A    
Cu1   O5    S    
C16   C21   A    
C16   H42   S    
Cu1   O8    S    
C38   H27   S    
C2    C47   A    
C31   H13   S    
C41   H35   S    
C32   C33   S    
C14   C22   S    
C28   C30   A    
C26   H12   S    
C39   H30   S    
C47   H8    S    
C28   H2    S    
C44   H5    S    
C12   O7    A    
C29   H3    S    
C17   C19   A    
C31   O12   S    
C6    O4    S    
C14   O8    A    
C17   H43   S    
C20   C21   A    
C35   H19   S    
C8    C10   A    
Cu1   Cu2   S    
C2    C28   A    
C42   H37   S    
C36   H22   S    
C33   H18   S    
C32   H15   S    
C3    H9    S    
