data_mof_unit_53266.cif
_audit_creation_date              2012-12-10T17:08:10-0500
_audit_creation_method            fapswitch 2.2
_symmetry_space_group_name_H-M    P1
_symmetry_Int_Tables_number       1
_space_group_crystal_system       triclinic
_cell_length_a                    23.541567
_cell_length_b                    11.038732
_cell_length_c                    9.799114
_cell_angle_alpha                 111.095241
_cell_angle_beta                  97.914687
_cell_angle_gamma                 91.13846
_cell_volume                      2346.54694447

loop_
_atom_site_label
_atom_site_type_symbol
_atom_type_description
_atom_site_fract_x
_atom_site_fract_y
_atom_site_fract_z
_atom_type_partial_charge
C1    C     C_R   0.495754 0.254055 0.440628 0.858628
C2    C     C_R   0.503965 0.745926 0.559367 0.858885
C3    C     C_R   0.230473 0.530898 0.405619 0.190772
C4    C     C_R   0.755937 0.435253 0.373505 0.239453
C5    C     C_R   0.289994 0.531985 0.397715 0.161014
C6    C     C_R   0.695619 0.427101 0.368375 0.151661
C7    C     C_R   0.328689 0.508642 0.508292 -0.136675
C8    C     C_R   0.671578 0.498072 0.496182 -0.168063
C9    C     C_R   0.307803 0.490502 0.627466 -0.355460
C10   C     C_R   0.708009 0.571605 0.627432 -0.335734
C11   C     C_R   0.249388 0.494517 0.638894 0.267791
C12   C     C_R   0.767607 0.574881 0.635192 0.261681
C13   C     C_R   0.210504 0.513467 0.527107 0.273828
C14   C     C_R   0.791782 0.507692 0.507911 0.253203
C15   C     C_2   0.493089 0.114754 0.407084 -0.351761
C16   C     C_2   0.505872 0.885175 0.592875 -0.353108
C17   C     C_2   0.499994 0.069481 0.516673 -0.146692
C18   C     C_2   0.497617 0.930358 0.483318 -0.156855
C19   C     C_2   0.503728 0.513322 0.081895 -0.097929
C20   C     C_2   0.494760 0.489959 0.918835 -0.079512
C21   C     C_R   0.391001 0.502665 0.502208 0.850991
C22   C     C_R   0.608977 0.497780 0.497856 0.836235
C23   C     C_R   0.883948 0.623567 0.537465 0.563697
C24   C     C_R   0.119511 0.401286 0.516547 0.564327
C25   C     C_R   0.880048 0.397935 0.504091 0.564755
C26   C     C_R   0.123812 0.628638 0.558383 0.567776
C27   C     C_R   0.939845 0.396972 0.509472 -0.025900
C28   C     C_R   0.064206 0.630378 0.556774 -0.024348
C29   C     C_R   0.971930 0.513070 0.530636 -0.016540
C30   C     C_R   0.032105 0.514198 0.535223 -0.016165
C31   C     C_R   0.943944 0.627813 0.546122 -0.027510
C32   C     C_R   0.059958 0.398870 0.516887 -0.028495
C33   C     C_R   0.968167 0.282981 0.493743 -0.162364
C34   C     C_R   0.035978 0.744741 0.574310 -0.162640
C35   C     C_R   0.027595 0.283814 0.496902 -0.164730
C36   C     C_R   0.976423 0.743362 0.568495 -0.163656
Cu1   Cu    Cu3+1 0.509980 0.521810 0.644910 0.936536
Cu2   Cu    Cu3+1 0.490020 0.478190 0.355090 0.945114
N1    N     N_R   0.853305 0.509747 0.516445 -0.435853
N2    N     N_R   0.150044 0.514810 0.536056 -0.433855
N3    N     N_2   0.475010 0.445410 0.137370 -0.280420
N4    N     N_2   0.524990 0.554590 0.862630 -0.283977
O1    O     O_R   0.505330 0.332340 0.577400 -0.579114
O2    O     O_R   0.494670 0.667660 0.422600 -0.579715
O3    O     O_R   0.488470 0.295500 0.332650 -0.580940
O4    O     O_R   0.511530 0.704500 0.667350 -0.573834
O5    O     O_R   0.426310 0.518390 0.622390 -0.588627
O6    O     O_R   0.573690 0.481610 0.377610 -0.570299
O7    O     O_R   0.409450 0.481550 0.377650 -0.534398
O8    O     O_R   0.590550 0.518450 0.622350 -0.574557
O9    O     O_2   0.856286 0.731756 0.548092 -0.536658
O10   O     O_2   0.146588 0.290714 0.494228 -0.537702
O11   O     O_2   0.848817 0.288324 0.487534 -0.538524
O12   O     O_2   0.155400 0.739579 0.581556 -0.541558
H1    H     H_    0.944477 0.192529 0.477650 0.188536
H2    H     H_    0.059703 0.835331 0.591089 0.188161
H3    H     H_    0.555674 0.624515 0.934864 0.191769
H4    H     H_    0.445311 0.373326 0.064658 0.196531
H5    H     H_    0.048012 0.193960 0.483013 0.187771
H6    H     H_    0.955947 0.832963 0.581139 0.187673
N5    N     N_2   0.190203 0.551153 0.294574 -0.411452
H7    H     H_    0.204123 0.618731 0.254003 0.263018
C37   C     C_3   0.163033 0.433084 0.179308 -0.679680
H8    H     H_    0.130298 0.458364 0.102872 0.233980
H9    H     H_    0.141093 0.371685 0.227419 0.252723
H10   H     H_    0.195461 0.376806 0.115115 0.220513
N6    N     N_2   0.781237 0.364744 0.246438 -0.389042
H11   H     H_    0.758658 0.278844 0.176631 0.286741
C38   C     C_3   0.800631 0.442470 0.167862 -0.681161
H12   H     H_    0.821361 0.380141 0.074427 0.231734
H13   H     H_    0.832680 0.521917 0.241725 0.245030
H14   H     H_    0.763738 0.485268 0.122957 0.219183
N7    N     N_2   0.310933 0.555742 0.279108 -0.410438
H15   H     H_    0.285081 0.515725 0.177552 0.250754
C39   C     C_3   0.331471 0.689443 0.313451 -0.634674
H16   H     H_    0.295440 0.753909 0.333759 0.216091
H17   H     H_    0.350416 0.696942 0.218835 0.220937
H18   H     H_    0.365273 0.722937 0.412849 0.232010
N8    N     N_2   0.660409 0.340419 0.237969 -0.429364
H19   H     H_    0.626984 0.288058 0.254454 0.261206
C40   C     C_3   0.646772 0.387446 0.117885 -0.632134
H20   H     H_    0.669288 0.331961 0.024881 0.226086
H21   H     H_    0.659540 0.493094 0.152973 0.218852
H22   H     H_    0.599862 0.371552 0.077163 0.228459
H23   H     H_    0.337058 0.473243 0.713020 0.176139
H24   H     H_    0.690118 0.625856 0.726022 0.178045
N9    N     N_2   0.229565 0.476277 0.761513 -0.396696
H25   H     H_    0.253349 0.415098 0.801185 0.255220
C41   C     C_3   0.220885 0.595673 0.879274 -0.677408
H26   H     H_    0.203024 0.572161 0.966670 0.222390
H27   H     H_    0.189947 0.653338 0.837098 0.253151
H28   H     H_    0.262466 0.654780 0.929014 0.222763
N10   N     N_2   0.803370 0.646249 0.771806 -0.393490
H29   H     H_    0.785935 0.728780 0.835585 0.261300
C42   C     C_3   0.823973 0.568047 0.856565 -0.668593
H30   H     H_    0.852819 0.630038 0.958736 0.232039
H31   H     H_    0.848742 0.488811 0.791715 0.248252
H32   H     H_    0.787207 0.525165 0.888424 0.217658
H33   H     H_    0.489303 0.864546 0.368079 0.180335
H34   H     H_    0.507693 0.135253 0.631958 0.179606
H35   H     H_    0.514154 0.951262 0.707916 0.152074
H36   H     H_    0.485430 0.048714 0.291990 0.150224
H37   H     H_    0.461856 0.416355 0.845595 0.159479
H38   H     H_    0.535855 0.588694 0.155520 0.165522

loop_
_geom_bond_atom_site_label_1
_geom_bond_atom_site_label_2
_ccdc_geom_bond_type
C24   O10   S    
C22   O6    A    
N9    H25   S    
C37   H9    S    
C34   H2    S    
N10   H29   S    
C27   C29   A    
N7    H15   S    
C19   C20   S    
C1    O3    A    
C21   O7    A    
C40   H20   S    
C42   H32   S    
Cu2   O7    S    
C27   C33   A    
Cu1   Cu2   S    
C25   O11   S    
N3    H4    S    
C33   C35   A    
C35   H5    S    
Cu1   N4    S    
C38   H13   S    
Cu2   O3    S    
C9    H23   S    
C14   N1    S    
C1    O1    A    
C42   H30   S    
C11   N9    S    
C13   N2    S    
C8    C22   S    
C1    C15   S    
Cu1   O5    S    
C2    C16   S    
Cu2   O6    S    
C3    C13   A    
C22   O8    A    
C37   H10   S    
C28   C34   A    
N10   C42   S    
C5    N7    S    
N7    C39   S    
N5    H7    S    
C26   O12   S    
N4    H3    S    
N8    C40   S    
C40   H21   S    
C3    N5    S    
N6    H11   S    
C32   C35   A    
Cu2   N3    S    
C4    C6    A    
C2    O2    A    
C20   H37   S    
C6    C8    A    
C36   H6    S    
C7    C21   S    
C2    O4    A    
C37   H8    S    
N6    C38   S    
C23   C31   A    
Cu1   O1    S    
C38   H14   S    
C39   H16   S    
C24   C32   A    
Cu2   O2    S    
C29   C30   A    
C39   H17   S    
C19   H38   S    
C23   O9    S    
N5    C37   S    
C17   C18   S    
C33   H1    S    
C41   H28   S    
C9    C11   A    
C10   C12   A    
C16   C18   D    
C12   C14   A    
N9    C41   S    
C12   N10   S    
C41   H27   S    
C18   H33   S    
C40   H22   S    
C5    C7    A    
C15   C17   D    
C10   H24   S    
C3    C5    A    
C17   H34   S    
C4    N6    S    
C20   N4    D    
C42   H31   S    
C25   C27   A    
C26   C28   A    
C28   C30   A    
C41   H26   S    
C29   C31   A    
C25   N1    A    
C30   C32   A    
Cu1   O8    S    
C11   C13   A    
C26   N2    A    
C6    N8    S    
C23   N1    A    
C24   N2    A    
C34   C36   A    
C15   H36   S    
C4    C14   A    
C38   H12   S    
C39   H18   S    
N8    H19   S    
C7    C9    A    
C16   H35   S    
C8    C10   A    
C31   C36   A    
Cu1   O4    S    
C19   N3    D    
C21   O5    A    
