data_mof_unit_53501.cif
_audit_creation_date              2013-03-05T15:42:46-0500
_audit_creation_method            fapswitch 2.2
_symmetry_space_group_name_H-M    P1
_symmetry_Int_Tables_number       1
_space_group_crystal_system       triclinic
_cell_length_a                    9.681885
_cell_length_b                    10.917604
_cell_length_c                    13.542681
_cell_angle_alpha                 89.910212
_cell_angle_beta                  73.505967
_cell_angle_gamma                 89.443055
_cell_volume                      1372.52862642

loop_
_atom_site_label
_atom_site_type_symbol
_atom_site_description
_atom_site_fract_x
_atom_site_fract_y
_atom_site_fract_z
_atom_type_partial_charge
O1    O     O_R   0.382960 0.678040 0.499980 -0.573994
O2    O     O_R   0.617100 0.678080 0.500020 -0.576202
C1    C     C_R   0.498102 0.734773 0.502815 0.884516
O3    O     O_R   0.325800 0.499940 0.650950 -0.585655
O4    O     O_R   0.559930 0.499980 0.650990 -0.590697
C2    C     C_R   0.425996 0.487034 0.698881 0.822466
Cu1   Cu    Cu3+1 0.361370 0.499980 0.499980 0.961938
Cu2   Cu    Cu3+1 0.638630 0.500020 0.500020 0.980278
O5    O     O_R   0.382900 0.321920 0.499980 -0.578034
O6    O     O_R   0.617040 0.321960 0.500020 -0.534915
O7    O     O_R   0.440070 0.500020 0.349010 -0.586537
O8    O     O_R   0.674200 0.500060 0.349050 -0.587508
C3    C     C_R   0.499705 0.265232 0.502843 0.899630
C4    C     C_R   0.576070 0.502428 0.300995 0.812029
C5    C     C_R   0.792030 0.560267 0.028433 0.135729
H1    H     H_    0.826006 0.587939 0.176067 0.170639
H2    H     H_    0.854703 0.513451 0.825150 0.142993
C6    C     C_R   0.618493 0.508342 0.189114 -0.094426
C7    C     C_R   0.251135 0.419595 0.861461 -0.228553
C8    C     C_R   0.212314 0.392967 0.966737 0.223411
C9    C     C_R   0.310836 0.412353 0.022839 -0.167424
C10   C     C_R   0.453946 0.448920 0.974048 0.041890
C11   C     C_R   0.498338 0.456325 0.865097 0.099374
C12   C     C_R   0.555376 0.477702 0.029326 0.069630
C13   C     C_R   0.697193 0.515018 0.974884 0.125887
C14   C     C_R   0.743374 0.500663 0.868719 -0.280392
C15   C     C_R   0.648346 0.463081 0.816363 -0.129623
C16   C     C_R   0.519900 0.473341 0.136928 -0.245373
C17   C     C_R   0.752517 0.554548 0.135194 -0.175724
C18   C     C_R   0.391876 0.454737 0.809785 -0.111372
H3    H     H_    0.416587 0.441867 0.182538 0.155665
H4    H     H_    0.172021 0.410058 0.819286 0.149925
H5    H     H_    0.271783 0.395368 0.104291 0.134892
H6    H     H_    0.699467 0.434189 0.738759 0.218615
C19   C     C_2   0.590000 0.064856 0.542573 0.377452
C20   C     C_2   0.502051 0.132633 0.501943 -0.424270
H7    H     H_    0.434930 0.090851 0.459737 0.134338
C21   C     C_2   0.599890 0.931452 0.526628 -0.213572
C22   C     C_2   0.489512 0.866654 0.513878 -0.383012
H8    H     H_    0.697953 0.885025 0.530546 0.204119
H9    H     H_    0.386341 0.909194 0.518018 0.167010
C23   C     C_2   0.052032 0.565517 0.563455 -0.052239
N1    N     N_2   0.152660 0.501340 0.501130 -0.278008
H10   H     H_    0.079937 0.621227 0.621088 0.152314
H11   H     H_    0.128884 0.452344 0.443599 0.198662
C24   C     C_2   0.897576 0.569798 0.560169 -0.073764
N2    N     N_2   0.846520 0.501370 0.501160 -0.278910
H12   H     H_    0.825020 0.633358 0.611774 0.158042
H13   H     H_    0.912455 0.437086 0.455446 0.205434
N3    N     N_3   0.925531 0.617941 0.976851 -0.597421
H14   H     H_    0.992381 0.554998 0.927490 0.209525
H15   H     H_    0.903767 0.690311 0.932694 0.234287
N4    N     N_3   0.072734 0.345435 0.018537 -0.575026
H16   H     H_    0.019943 0.409477 0.074033 0.226663
H17   H     H_    0.010861 0.335627 0.967119 0.223918
N5    N     N_R   0.675621 0.119268 0.601990 0.143756
O9    O     O_R   0.803200 0.075238 0.595878 -0.370699
O10   O     O_R   0.616997 0.196863 0.675126 -0.371680

loop_
_geom_bond_atom_site_label_1
_geom_bond_atom_site_label_2
_geom_bond_distance
_ccdc_geom_bond_type
O4    Cu2   1.968787 S    
N3    H15   1.045524 S    
C11   C18   1.436203 A    
Cu1   N1    2.016250 S    
C4    C6    1.454458 S    
C19   C20   1.351994 D    
Cu2   O8    1.974570 S    
C13   C14   1.387770 A    
C8    C9    1.395669 A    
C7    C8    1.398210 A    
N3    H14   1.041691 S    
C19   N5    1.441325 S    
Cu2   N2    2.017402 S    
C1    C22   1.446968 S    
Cu1   Cu2   2.684558 S    
N2    H13   1.025470 S    
C6    C17   1.394637 A    
O1    Cu1   1.957214 S    
N4    H16   1.044756 S    
N5    O9    1.301615 A    
Cu1   O7    1.968788 S    
N1    H11   1.025521 S    
C14   C15   1.377051 A    
C21   C22   1.338732 D    
C23   H10   1.084689 S    
O3    Cu1   1.974570 S    
H2    C14   1.082116 S    
Cu2   O6    1.957214 S    
C20   H7    1.083795 S    
C21   H8    1.086423 S    
N5    O10   1.301888 A    
C5    C17   1.388088 A    
C11   C15   1.417051 A    
N4    H17   1.045738 S    
C15   H6    1.073140 S    
O4    C2    1.283686 A    
O7    C4    1.292959 A    
C10   C12   1.430989 A    
C5    C13   1.414600 A    
C9    H5    1.076119 S    
C23   N1    1.293905 D    
C7    H4    1.083486 S    
C24   H12   1.084756 S    
C16   H3    1.074852 S    
C19   C21   1.470918 S    
C6    C16   1.395597 A    
C12   C13   1.424771 A    
C22   H9    1.084376 S    
C3    C20   1.447633 S    
O3    C2    1.317909 A    
C23   C24   1.508934 S    
C5    N3    1.434172 S    
Cu1   O5    1.953118 S    
O5    C3    1.294090 A    
C24   N2    1.294001 D    
O2    C1    1.293592 A    
C2    C18   1.485982 S    
H1    C17   1.083915 S    
C9    C10   1.416282 A    
C7    C18   1.400564 A    
C10   C11   1.417237 A    
O2    Cu2   1.953116 S    
C12   C16   1.399865 A    
O8    C4    1.295156 A    
C8    N4    1.435920 S    
O1    C1    1.290615 A    
O6    C3    1.290169 A    
