data_mof_unit_14215.cif
_audit_creation_date              2012-12-10T19:07:39-0500
_audit_creation_method            fapswitch 2.2
_symmetry_space_group_name_H-M    P1
_symmetry_Int_Tables_number       1
_space_group_crystal_system       triclinic
_cell_length_a                    10.922756
_cell_length_b                    10.905447
_cell_length_c                    9.676128
_cell_angle_alpha                 91.474135
_cell_angle_beta                  89.045088
_cell_angle_gamma                 95.557131
_cell_volume                      1146.6834348

loop_
_atom_site_label
_atom_site_type_symbol
_atom_type_description
_atom_site_fract_x
_atom_site_fract_y
_atom_site_fract_z
_atom_type_partial_charge
C1    C     C_R   0.503230 0.262802 0.497625 0.894017
C2    C     C_R   0.931524 0.468194 0.618990 0.040308
C3    C     C_3   0.924122 0.539875 0.750157 -0.487306
C4    C     C_3   0.061454 0.534572 0.758516 0.605779
C5    C     C_R   0.502121 0.068893 0.618418 0.110683
C6    C     C_R   0.499374 0.128418 0.493329 -0.321429
C7    C     C_R   0.481779 0.055589 0.370626 0.296103
C8    C     C_R   0.452014 0.928227 0.378686 0.394728
C9    C     C_R   0.474856 0.868361 0.502685 -0.241371
C10   C     C_R   0.492645 0.941259 0.622920 -0.019354
C11   C     C_3   0.590094 0.941316 0.728611 -0.517432
C12   C     C_R   0.262496 0.501563 0.500699 0.852042
C13   C     C_3   0.605097 0.080338 0.720044 0.768220
C14   C     C_R   0.541162 0.603261 0.073557 0.114523
C15   C     C_R   0.429986 0.411753 0.073872 0.369675
C16   C     C_R   0.433590 0.408768 0.925337 0.374383
C17   C     C_R   0.542866 0.601580 0.928674 0.080745
C18   C     C_3   0.661996 0.677396 0.918505 -0.537872
C19   C     C_3   0.655451 0.693145 0.075508 0.615364
C20   C     C_R   0.492785 0.736596 0.501367 0.836388
C21   C     C_R   0.736563 0.493909 0.498968 0.838402
C22   C     C_R   0.058502 0.467940 0.620659 0.081453
C23   C     C_R   0.127770 0.494354 0.499766 -0.171563
C24   C     C_R   0.063192 0.501364 0.374692 0.305766
C25   C     C_R   0.935456 0.476001 0.373386 -0.164416
C26   C     C_R   0.867939 0.477395 0.497131 -0.123188
Cu1   Cu    Cu3+1 0.499990 0.499980 0.640670 1.051105
Cu2   Cu    Cu3+1 0.500010 0.500020 0.359330 1.072998
H1    H     H_    0.671548 0.896267 0.689956 0.177605
H2    H     H_    0.734024 0.620465 0.881798 0.205156
H3    H     H_    0.660138 0.762401 0.862345 0.194822
H4    H     H_    0.889604 0.467888 0.275858 0.231117
H5    H     H_    0.897756 0.634299 0.733291 0.200279
H6    H     H_    0.870162 0.485486 0.829834 0.225520
H7    H     H_    0.548740 0.910300 0.828836 0.217290
N1    N     N_R   0.500790 0.500930 0.147930 -0.248718
N2    N     N_R   0.500790 0.500890 0.852020 -0.223985
O1    O     O_R   0.500000 0.319640 0.618810 -0.528512
O2    O     O_R   0.500010 0.319680 0.381230 -0.540965
O3    O     O_R   0.319650 0.499970 0.618810 -0.536191
O4    O     O_R   0.319660 0.500010 0.381230 -0.541451
O5    O     O_R   0.499990 0.680320 0.618770 -0.568338
O6    O     O_R   0.500000 0.680360 0.381190 -0.546856
O7    O     O_R   0.680340 0.499990 0.618770 -0.581535
O8    O     O_R   0.680350 0.500030 0.381190 -0.559320
Br1   Br    Br    0.135172 0.581149 0.214167 -0.385292
O9    O     O_3   0.574344 0.140265 0.843573 -0.639709
H8    H     H_    0.645360 0.136752 0.905474 0.370120
O10   O     O_3   0.719218 0.129916 0.664876 -0.716287
H9    H     H_    0.736137 0.083906 0.577798 0.314867
Br2   Br    Br    0.307065 0.303690 0.167448 -0.283338
Br3   Br    Br    0.335961 0.274789 0.833726 -0.293366
Br4   Br    Br    0.804408 0.651877 0.155143 -0.433214
O11   O     O_3   0.630973 0.812608 0.118969 -0.635936
H10   H     H_    0.561907 0.837679 0.064165 0.355359
O12   O     O_3   0.129085 0.650571 0.756032 -0.701832
H11   H     H_    0.116337 0.689655 0.848179 0.371375
Br5   Br    Br    0.100865 0.432312 0.907826 -0.364507
Br6   Br    Br    0.527477 0.115131 0.190070 -0.358607
O13   O     O_3   0.407242 0.865184 0.262027 -0.649541
H12   H     H_    0.347619 0.796509 0.292478 0.355240

loop_
_geom_bond_atom_site_label_1
_geom_bond_atom_site_label_2
_ccdc_geom_bond_type
C2    C22   A    
C20   O5    A    
C23   C24   A    
C12   O3    A    
C12   O4    A    
C18   H2    S    
C15   Br2   S    
C21   O7    A    
C4    C22   S    
C9    C10   A    
C15   N1    A    
C9    C20   S    
C5    C13   S    
O9    H8    S    
Cu1   O5    S    
Cu1   O3    S    
C21   C26   S    
C24   Br1   S    
C19   Br4   S    
C25   H4    S    
C11   H7    S    
C17   C18   S    
C25   C26   A    
C4    O12   S    
C5    C10   A    
C2    C26   A    
C17   N2    A    
C24   C25   A    
C11   C13   S    
C14   C17   A    
Cu2   N1    S    
C6    C7    A    
C1    O1    A    
Cu1   N2    S    
C13   O10   S    
C14   C19   S    
C19   O11   S    
C7    Br6   S    
C2    C3    S    
C21   O8    A    
C14   N1    A    
C5    C6    A    
Cu2   O8    S    
C10   C11   S    
C1    O2    A    
Cu1   O1    S    
C15   C16   A    
C16   Br3   S    
Cu2   O4    S    
C7    C8    A    
C20   O6    A    
O12   H11   S    
C11   H1    S    
C8    C9    A    
O10   H9    S    
C4    Br5   S    
Cu1   Cu2   S    
C13   O9    S    
C3    H5    S    
O11   H10   S    
C18   C19   S    
C12   C23   S    
C18   H3    S    
Cu2   O6    S    
Cu2   O2    S    
C3    H6    S    
C22   C23   A    
Cu1   O7    S    
C8    O13   S    
C3    C4    S    
C16   N2    A    
O13   H12   S    
C1    C6    S    
