data_mof_unit_17670.cif
_audit_creation_date              2012-10-26T18:49:35-0400
_audit_creation_method            fapswitch 2.2
_symmetry_space_group_name_H-M    P1
_symmetry_Int_Tables_number       1
_space_group_crystal_system       triclinic
_cell_length_a                    19.388119
_cell_length_b                    10.930524
_cell_length_c                    9.83928
_cell_angle_alpha                 109.918785
_cell_angle_beta                  100.27282
_cell_angle_gamma                 89.93488
_cell_volume                      1924.98490695

loop_
_atom_site_label
_atom_site_type_symbol
_atom_type_description
_atom_site_fract_x
_atom_site_fract_y
_atom_site_fract_z
_atom_type_partial_charge
C1    C     C_R   0.492043 0.253752 0.442660 0.553066
C2    C     C_R   0.632523 0.495549 0.500406 0.552049
C3    C     C_R   0.266989 0.495689 0.621783 -0.140757
C4    C     C_R   0.736734 0.529358 0.402859 -0.151419
C5    C     C_R   0.195871 0.497474 0.630592 0.070514
C6    C     C_R   0.808721 0.530839 0.403706 0.064644
C7    C     C_R   0.146218 0.506396 0.512190 0.093337
C8    C     C_R   0.854541 0.492486 0.508026 0.100276
C9    C     C_R   0.167451 0.511761 0.384749 0.091185
C10   C     C_R   0.827133 0.448598 0.608310 0.086896
C11   C     C_R   0.239536 0.508611 0.374712 -0.011117
C12   C     C_R   0.501746 0.746092 0.556988 0.557246
C13   C     C_R   0.753742 0.443378 0.604302 -0.015175
C14   C     C_R   0.290026 0.501629 0.496483 -0.020998
C15   C     C_R   0.708755 0.488735 0.503172 -0.012505
C16   C     C_R   0.931063 0.497611 0.512157 0.387852
C17   C     C_R   0.071155 0.506258 0.518522 0.377198
C18   C     C_3   0.261480 0.510751 0.234882 -0.375678
C19   C     C_3   0.723653 0.388459 0.705388 -0.370893
C20   C     C_3   0.398291 0.842640 0.363621 -0.367921
C21   C     C_3   0.424930 0.156309 0.637089 -0.376816
C22   C     C_3   0.589177 0.644023 0.954047 -0.226086
C23   C     C_2   0.483160 0.113418 0.416011 0.091220
C24   C     C_3   0.414725 0.347676 0.044526 -0.228786
C25   C     C_2   0.497978 0.886066 0.582243 0.091089
C26   C     C_2   0.455462 0.069316 0.509525 0.064673
C27   C     C_2   0.453614 0.929541 0.487536 0.062434
C28   C     C_2   0.504200 0.512541 0.081924 0.018159
C29   C     C_2   0.491966 0.495749 0.920254 0.017366
C30   C     C_R   0.366962 0.500818 0.498721 0.538339
Cu1   Cu    Cu3+1 0.512140 0.521810 0.644910 0.911821
Cu2   Cu    Cu3+1 0.487860 0.478190 0.355090 0.909089
H1    H     H_    0.304698 0.489163 0.714242 0.123893
H2    H     H_    0.122798 0.601485 0.243366 0.242980
H3    H     H_    0.865681 0.469931 0.822165 0.239162
H4    H     H_    0.867046 0.315721 0.699036 0.244056
H5    H     H_    0.300415 0.593243 0.260532 0.145513
H6    H     H_    0.283840 0.417050 0.180901 0.145388
H7    H     H_    0.218255 0.523116 0.151679 0.113063
H8    H     H_    0.678148 0.318413 0.641893 0.153625
H9    H     H_    0.761130 0.333824 0.757558 0.115203
H10   H     H_    0.706967 0.468930 0.795234 0.149861
H11   H     H_    0.361476 0.901633 0.315612 0.122737
H12   H     H_    0.702530 0.561850 0.323727 0.122084
H13   H     H_    0.422798 0.778049 0.273661 0.168971
H14   H     H_    0.367112 0.784217 0.406732 0.116512
H15   H     H_    0.394968 0.097598 0.682301 0.118821
H16   H     H_    0.468216 0.212734 0.726442 0.162440
H17   H     H_    0.388321 0.222531 0.601411 0.120708
H18   H     H_    0.531832 0.965502 0.802428 0.232796
H19   H     H_    0.595122 0.952610 0.701276 0.228153
H20   H     H_    0.476609 0.035591 0.195479 0.232172
H21   H     H_    0.558211 0.045725 0.295579 0.227977
H22   H     H_    0.614943 0.684080 0.884979 0.165788
H23   H     H_    0.448590 0.431170 0.846250 0.125483
H24   H     H_    0.570710 0.727381 0.038236 0.102444
H25   H     H_    0.628727 0.592497 0.007209 0.081957
H26   H     H_    0.391431 0.303044 0.112880 0.162873
H27   H     H_    0.372151 0.392637 0.989654 0.076292
H28   H     H_    0.436880 0.268764 0.962391 0.094472
H29   H     H_    0.544148 0.584511 0.158075 0.137930
H30   H     H_    0.155336 0.582656 0.812998 0.232682
H31   H     H_    0.216303 0.478505 0.834644 0.215674
H32   H     H_    0.820478 0.664416 0.308082 0.236221
H33   H     H_    0.810500 0.508049 0.191749 0.226095
H34   H     H_    0.116456 0.434375 0.171467 0.242835
N1    N     N_R   0.031810 0.600787 0.490876 -0.199128
N2    N     N_3   0.874952 0.415126 0.717721 -0.603837
N3    N     N_3   0.543363 0.977133 0.707560 -0.648593
N4    N     N_3   0.505209 0.022460 0.289590 -0.652439
N5    N     N_R   0.970667 0.403280 0.540075 -0.191054
N6    N     N_R   0.963035 0.596809 0.488362 -0.185789
N7    N     N_R   0.039511 0.407516 0.543365 -0.186657
N8    N     N_2   0.469620 0.445420 0.137370 -0.241728
N9    N     N_2   0.530380 0.554580 0.862630 -0.239406
N10   N     N_3   0.173710 0.491926 0.760469 -0.603824
N11   N     N_3   0.835025 0.569739 0.296373 -0.599131
N12   N     N_3   0.114233 0.515878 0.264595 -0.602745
O1    O     O_R   0.506480 0.332340 0.577400 -0.503202
O2    O     O_R   0.493520 0.667660 0.422600 -0.507533
O3    O     O_R   0.485980 0.295500 0.332650 -0.496384
O4    O     O_R   0.514020 0.704500 0.667350 -0.493408
O5    O     O_R   0.410390 0.518410 0.622410 -0.507857
O6    O     O_R   0.589610 0.481590 0.377590 -0.496071
O7    O     O_R   0.389900 0.481570 0.377660 -0.506620
O8    O     O_R   0.610100 0.518430 0.622340 -0.501759

loop_
_geom_bond_atom_site_label_1
_geom_bond_atom_site_label_2
_ccdc_geom_bond_type
C21   C26   S    
C11   C18   S    
H32   N11   S    
C2    O6    A    
C16   N6    A    
C28   N8    D    
C22   H25   S    
C21   H17   S    
C22   H22   S    
Cu2   O3    S    
C26   C27   S    
Cu1   O4    S    
C28   C29   S    
C18   H5    S    
Cu2   N8    S    
C11   C14   A    
H31   N10   S    
C3    H1    S    
C1    O3    A    
Cu1   O5    S    
N1    N6    A    
C23   C26   D    
C30   O5    A    
C7    C17   S    
C20   H13   S    
C19   H10   S    
C21   H16   S    
C28   H29   S    
C8    C16   S    
Cu1   O8    S    
C17   N7    A    
C23   N4    S    
H30   N10   S    
C16   N5    A    
C22   N9    S    
C14   C30   S    
H34   N12   S    
H21   N4    S    
Cu2   O6    S    
C17   N1    A    
H33   N11   S    
C13   C19   S    
C4    C6    A    
C5    C7    A    
C6    N11   S    
C22   H24   S    
C4    H12   S    
C18   H7    S    
Cu2   O2    S    
Cu1   N9    S    
Cu1   Cu2   S    
C24   H28   S    
C12   O4    A    
C30   O7    A    
C2    C15   S    
C9    C11   A    
C3    C14   A    
C8    C10   A    
C1    C23   S    
C13   C15   A    
C1    O1    A    
C25   N3    S    
C20   H11   S    
N5    N7    A    
C7    C9    A    
H18   N3    S    
C3    C5    A    
C10   C13   A    
C6    C8    A    
H4    N2    S    
Cu1   O1    S    
C29   N9    D    
C20   C27   S    
C10   N2    S    
C25   C27   D    
C29   H23   S    
C12   C25   S    
C4    C15   A    
C18   H6    S    
H2    N12   S    
C24   N8    S    
H3    N2    S    
C5    N10   S    
C24   H27   S    
Cu2   O7    S    
C12   O2    A    
C2    O8    A    
C9    N12   S    
H20   N4    S    
C19   H8    S    
C24   H26   S    
H19   N3    S    
C20   H14   S    
C19   H9    S    
C21   H15   S    
