data_mof_unit_11728.cif
_audit_creation_date              2012-10-26T17:13:03-0400
_audit_creation_method            fapswitch 2.2
_symmetry_space_group_name_H-M    P1
_symmetry_Int_Tables_number       1
_space_group_crystal_system       triclinic
_cell_length_a                    16.737159
_cell_length_b                    16.730125
_cell_length_c                    16.736174
_cell_angle_alpha                 67.953631
_cell_angle_beta                  68.121389
_cell_angle_gamma                 68.131759
_cell_volume                      3880.66865205

loop_
_atom_site_label
_atom_site_type_symbol
_atom_type_description
_atom_site_fract_x
_atom_site_fract_y
_atom_site_fract_z
_atom_type_partial_charge
C1    C     C_R   0.324424 0.948027 0.455506 0.003757
C2    C     C_R   0.324598 0.455821 0.946983 -0.056579
C3    C     C_R   0.543918 0.414344 0.986483 0.008438
C4    C     C_R   0.009994 0.456790 0.586406 0.004194
C5    C     C_R   0.983737 0.544973 0.414801 0.008412
C6    C     C_R   0.051026 0.675849 0.544477 0.006090
C7    C     C_R   0.945261 0.324947 0.456033 -0.055229
C8    C     C_R   0.457731 0.974637 0.457810 -0.014145
C9    C     C_R   0.542198 0.025739 0.542093 -0.013891
C10   C     C_R   0.971901 0.458484 0.458177 -0.016021
C11   C     C_R   0.022527 0.543028 0.542808 -0.014205
C12   C     C_R   0.457581 0.457652 0.974685 -0.015887
C13   C     C_R   0.542009 0.541937 0.025727 -0.014084
C14   C     C_R   0.031159 0.827652 0.563590 0.580674
C15   C     C_R   0.675443 0.052896 0.544111 -0.055368
C16   C     C_R   0.969978 0.172088 0.436032 0.539853
C17   C     C_R   0.827917 0.563952 0.029754 0.597334
C18   C     C_R   0.172053 0.435981 0.970353 0.552761
C19   C     C_R   0.563976 0.029889 0.827854 0.595049
C20   C     C_R   0.435921 0.970397 0.172108 0.556430
C21   C     C_R   0.436028 0.172122 0.970111 0.595368
C22   C     C_R   0.563994 0.827884 0.029760 0.579008
C23   C     C_R   0.969782 0.436130 0.172073 0.594683
C24   C     C_R   0.030321 0.563871 0.827758 0.591586
C25   C     C_R   0.172083 0.970168 0.436069 0.590213
C26   C     C_R   0.946455 0.455878 0.324424 0.003158
C27   C     C_R   0.827950 0.029643 0.564010 0.544771
C28   C     C_R   0.412410 0.956794 0.412468 -0.061969
C29   C     C_R   0.587622 0.043516 0.587377 -0.060657
C30   C     C_R   0.954611 0.412922 0.412706 -0.061427
C31   C     C_R   0.040540 0.588283 0.588127 -0.071002
C32   C     C_R   0.412293 0.412485 0.956615 -0.062239
C33   C     C_R   0.587712 0.587615 0.042577 -0.072779
C34   C     C_R   0.271917 0.950966 0.403229 0.020920
C35   C     C_R   0.728099 0.049258 0.596668 -0.024151
C36   C     C_R   0.949898 0.403399 0.271952 0.024276
C37   C     C_R   0.049350 0.544957 0.676206 -0.004402
C38   C     C_R   0.050364 0.596206 0.727546 0.030921
C39   C     C_R   0.403053 0.272014 0.950845 0.022640
C40   C     C_R   0.596951 0.728025 0.048697 0.013011
C41   C     C_R   0.596907 0.049174 0.727914 0.024472
C42   C     C_R   0.403154 0.950892 0.272044 -0.016203
C43   C     C_R   0.728122 0.596829 0.048715 0.022463
C44   C     C_R   0.271887 0.403265 0.950740 -0.015845
C45   C     C_R   0.052636 0.727099 0.595603 -0.008207
C46   C     C_R   0.949676 0.272095 0.403380 -0.024047
C47   C     C_R   0.450430 0.064989 0.706132 0.255318
C48   C     C_R   0.455302 0.324549 0.947848 0.002942
C49   C     C_R   0.550047 0.936634 0.293258 0.256677
C50   C     C_R   0.063053 0.706944 0.450213 0.259490
C51   C     C_R   0.933253 0.293672 0.550702 0.254690
C52   C     C_R   0.706356 0.450202 0.064648 0.257312
C53   C     C_R   0.293389 0.550372 0.935573 0.254015
C54   C     C_R   0.293596 0.935257 0.549770 0.260342
C55   C     C_R   0.706943 0.063704 0.449660 0.257481
C56   C     C_R   0.549486 0.293772 0.935104 0.255562
C57   C     C_R   0.450542 0.706558 0.063770 0.261556
C58   C     C_R   0.933665 0.550250 0.293320 0.254854
C59   C     C_R   0.544716 0.675602 0.051349 0.002085
C60   C     C_R   0.060424 0.450801 0.707728 0.259527
C61   C     C_R   0.313161 0.949024 0.313273 0.178497
C62   C     C_R   0.686874 0.051107 0.686668 0.173959
C63   C     C_R   0.947893 0.313367 0.313322 0.173157
C64   C     C_R   0.060484 0.683580 0.684199 0.165877
C65   C     C_R   0.313057 0.313214 0.949012 0.178628
C66   C     C_R   0.686873 0.686769 0.050742 0.160965
C67   C     C_R   0.669140 0.031379 0.409952 0.066809
C68   C     C_R   0.331388 0.967420 0.590490 0.012760
C69   C     C_R   0.027177 0.410789 0.670391 0.008639
C70   C     C_R   0.544633 0.052213 0.675356 0.003540
C71   C     C_R   0.965279 0.591265 0.331343 0.009604
C72   C     C_R   0.409911 0.668983 0.031362 0.007352
C73   C     C_R   0.590252 0.331333 0.967447 0.009510
C74   C     C_R   0.589845 0.969037 0.330899 0.066283
C75   C     C_R   0.409569 0.032869 0.668436 0.008748
C76   C     C_R   0.331278 0.590299 0.967620 0.068090
C77   C     C_R   0.668458 0.409331 0.032771 0.009668
C78   C     C_R   0.964211 0.332033 0.591178 0.068384
C79   C     C_R   0.030268 0.669488 0.409713 0.009846
C80   C     C_R   0.712820 0.017495 0.324548 -0.120070
C81   C     C_R   0.455658 0.947376 0.324701 -0.057222
C82   C     C_R   0.287149 0.982967 0.675268 -0.137570
C83   C     C_R   0.009036 0.326974 0.715890 -0.162439
C84   C     C_R   0.980754 0.676280 0.287024 -0.137886
C85   C     C_R   0.326056 0.714291 0.013619 -0.162204
C86   C     C_R   0.675099 0.287042 0.982962 -0.136936
C87   C     C_R   0.675298 0.982951 0.287162 -0.120242
C88   C     C_R   0.324752 0.017257 0.712748 -0.141553
C89   C     C_R   0.288678 0.676640 0.979242 -0.102295
C90   C     C_R   0.712721 0.324549 0.017199 -0.137382
C91   C     C_R   0.975096 0.289515 0.677932 -0.101516
C92   C     C_R   0.675650 0.544548 0.051524 0.000018
C93   C     C_R   0.014788 0.713903 0.324728 -0.140678
C94   C     C_R   0.543873 0.986877 0.414400 -0.008664
C95   C     C_R   0.455807 0.014040 0.585338 0.008672
C96   C     C_R   0.983221 0.415239 0.544755 -0.004599
C97   C     C_R   0.011202 0.586295 0.456177 0.008622
C98   C     C_R   0.414257 0.543838 0.986708 -0.004438
C99   C     C_R   0.585194 0.455548 0.014135 0.009026
C100  C     C_R   0.585556 0.013541 0.455984 -0.008758
C101  C     C_R   0.414531 0.986315 0.544161 0.007920
C102  C     C_R   0.455723 0.585265 0.013820 0.003867
Cu1   Cu    Cu3+1 0.995180 0.995180 0.424630 1.047228
Cu2   Cu    Cu3+1 0.004820 0.004820 0.575370 1.047220
Cu3   Cu    Cu3+1 0.995180 0.424630 0.995180 1.044009
Cu4   Cu    Cu3+1 0.004820 0.575370 0.004820 1.070059
Cu5   Cu    Cu3+1 0.424630 0.995180 0.995180 1.042892
Cu6   Cu    Cu3+1 0.575370 0.004820 0.004820 1.054736
H1    H     H_    0.288515 0.027891 0.778261 0.119536
H2    H     H_    0.290868 0.780733 0.022211 0.119054
H3    H     H_    0.970313 0.712617 0.221303 0.123673
H4    H     H_    0.017345 0.291731 0.782554 0.119409
H5    H     H_    0.236581 0.009172 0.236513 0.323373
H6    H     H_    0.763323 0.990921 0.763557 0.331918
H7    H     H_    0.007907 0.236856 0.236766 0.326173
H8    H     H_    0.125297 0.755700 0.687520 0.357675
H9    H     H_    0.236558 0.236335 0.009428 0.322927
H10   H     H_    0.763432 0.763617 0.991252 0.330335
H11   H     H_    0.337404 0.142820 0.758129 0.324157
H12   H     H_    0.711778 0.970463 0.222380 0.162692
H13   H     H_    0.574733 0.844046 0.237708 0.344644
H14   H     H_    0.140966 0.758739 0.336628 0.323566
H15   H     H_    0.842349 0.236225 0.574125 0.338814
H16   H     H_    0.758688 0.336863 0.142568 0.331970
H17   H     H_    0.237203 0.574811 0.843370 0.341105
H18   H     H_    0.241417 0.857296 0.663147 0.322041
H19   H     H_    0.763056 0.156152 0.424665 0.338616
H20   H     H_    0.662560 0.241955 0.857197 0.332068
H21   H     H_    0.336837 0.759545 0.140177 0.324113
H22   H     H_    0.856064 0.663301 0.240407 0.333025
H23   H     H_    0.025551 0.779521 0.288327 0.120652
H24   H     H_    0.136697 0.336200 0.760349 0.324034
H25   H     H_    0.960396 0.225642 0.715435 0.164610
H26   H     H_    0.778312 0.288329 0.027749 0.122511
H27   H     H_    0.224911 0.714103 0.964571 0.163217
H28   H     H_    0.221618 0.972263 0.711561 0.123080
H29   H     H_    0.777659 0.029982 0.288026 0.162373
H30   H     H_    0.711380 0.221567 0.972200 0.123712
O1    O     O_R   0.124540 0.978640 0.385460 -0.474282
O2    O     O_R   0.124540 0.385460 0.978640 -0.469578
O3    O     O_R   0.021360 0.875460 0.614540 -0.485123
O4    O     O_R   0.978640 0.124540 0.385460 -0.474261
O5    O     O_R   0.013780 0.867370 0.487190 -0.458257
O6    O     O_R   0.986220 0.132630 0.512810 -0.487679
O7    O     O_R   0.867370 0.487190 0.013780 -0.472946
O8    O     O_R   0.132630 0.512810 0.986220 -0.493851
O9    O     O_R   0.487190 0.013780 0.867370 -0.471694
O10   O     O_R   0.512810 0.986220 0.132630 -0.490953
O11   O     O_R   0.512810 0.132630 0.986220 -0.467733
O12   O     O_R   0.875460 0.021360 0.614540 -0.464481
O13   O     O_R   0.487190 0.867370 0.013780 -0.469742
O14   O     O_R   0.986220 0.512810 0.132630 -0.470271
O15   O     O_R   0.013780 0.487190 0.867370 -0.476529
O16   O     O_R   0.132630 0.986220 0.512810 -0.471378
O17   O     O_R   0.867370 0.013780 0.487190 -0.486676
O18   O     O_3   0.264514 0.945710 0.264638 -0.629997
O19   O     O_3   0.735522 0.054390 0.735320 -0.627815
O20   O     O_3   0.944552 0.264722 0.264756 -0.628892
O21   O     O_3   0.078616 0.725386 0.729998 -0.651364
O22   O     O_3   0.264347 0.264483 0.945932 -0.629767
O23   O     O_R   0.978640 0.385460 0.124540 -0.477248
O24   O     O_3   0.735368 0.735271 0.054581 -0.627731
O25   O     O_3   0.399656 0.119032 0.762981 -0.651924
O26   O     O_3   0.606335 0.884839 0.235655 -0.664572
O27   O     O_3   0.117473 0.763644 0.398841 -0.655021
O28   O     O_3   0.882141 0.234946 0.606392 -0.665823
O29   O     O_3   0.763309 0.399287 0.118822 -0.649309
O30   O     O_3   0.235518 0.606593 0.883743 -0.672030
O31   O     O_3   0.236592 0.881138 0.600800 -0.684194
O32   O     O_3   0.764855 0.115438 0.393194 -0.665697
O33   O     O_3   0.600318 0.237073 0.880913 -0.649884
O34   O     O_R   0.021360 0.614540 0.875460 -0.450032
O35   O     O_3   0.399461 0.763176 0.118013 -0.654848
O36   O     O_3   0.880209 0.601030 0.235648 -0.649336
O37   O     O_3   0.115302 0.398833 0.763861 -0.657285
O38   O     O_R   0.385460 0.124540 0.978640 -0.477033
O39   O     O_R   0.614540 0.875460 0.021360 -0.481895
O40   O     O_R   0.614540 0.021360 0.875460 -0.473396
O41   O     O_R   0.385460 0.978640 0.124540 -0.468301
O42   O     O_R   0.875460 0.614540 0.021360 -0.470373

loop_
_geom_bond_atom_site_label_1
_geom_bond_atom_site_label_2
_ccdc_geom_bond_type
Cu3   O15   S    
C23   O14   A    
Cu1   O4    S    
C89   H27   S    
C6    C45   A    
C42   C61   A    
C32   C48   A    
C74   C94   A    
C17   O7    A    
C50   C79   A    
C72   C85   A    
C75   C95   A    
C47   C70   A    
H22   O36   S    
H19   O32   S    
C16   O6    A    
C79   C93   A    
C80   C87   A    
C18   C44   S    
C65   O22   S    
C52   O29   S    
C90   H26   S    
C58   C71   A    
C57   C59   A    
C54   C68   A    
Cu5   O38   S    
C76   C98   A    
C80   H29   S    
C3    C99   A    
C25   O1    A    
C66   O24   S    
C2    C32   A    
C15   C35   A    
C49   O26   S    
C3    C12   A    
C4    C96   A    
H15   O28   S    
C78   C96   A    
C91   H25   S    
C1    C28   A    
C24   C38   S    
Cu5   Cu6   S    
C20   O10   A    
C10   C96   A    
C74   C87   A    
C20   O41   A    
C36   C63   A    
C8    C101  A    
C9    C95   A    
C55   O32   S    
C12   C98   A    
C9    C29   A    
C25   C34   S    
C47   O25   S    
C6    C31   A    
C25   O16   A    
C14   O3    A    
C11   C31   A    
C33   C59   A    
C40   C59   A    
C40   C66   A    
C12   C32   A    
H9    O22   S    
C39   C65   A    
C54   O31   S    
H21   O35   S    
C44   C65   A    
C58   O36   S    
C42   C81   A    
C41   C62   A    
C22   O39   A    
C3    C73   A    
Cu4   O42   S    
C4    C69   A    
C1    C34   A    
C15   C29   A    
C14   C45   S    
C38   C64   A    
C27   O17   A    
C77   C90   A    
C84   H3    S    
Cu4   O14   S    
H7    O20   S    
C7    C46   A    
H17   O30   S    
C8    C94   A    
C68   C101  A    
H8    O21   S    
C85   H2    S    
C86   C90   A    
C33   C92   A    
C2    C44   A    
C85   C89   A    
C27   C35   S    
C98   C102  A    
H13   O26   S    
C34   C61   A    
C19   O9    A    
C31   C37   A    
H24   O37   S    
C15   C55   A    
C13   C99   A    
C16   O4    A    
C1    C54   A    
C17   C43   S    
H6    O19   S    
C13   C33   A    
C37   C38   A    
C69   C83   A    
Cu1   O1    S    
H16   O29   S    
Cu5   O9    S    
C10   C30   A    
C53   O30   S    
C55   C67   A    
C21   C39   S    
C94   C100  A    
C21   O38   A    
C22   C40   S    
C71   C84   A    
C50   O27   S    
Cu2   O6    S    
C62   O19   S    
Cu6   O40   S    
C6    C50   A    
C4    C11   A    
C18   O2    A    
C26   C58   A    
C19   O40   A    
C67   C100  A    
C57   O35   S    
C88   H1    S    
C17   O42   A    
Cu1   O17   S    
C5    C97   A    
C26   C30   A    
C27   O12   A    
C21   O11   A    
C47   C75   A    
C56   O33   S    
C8    C28   A    
Cu3   O23   S    
C52   C92   A    
C53   C76   A    
H5    O18   S    
C16   C46   S    
C52   C77   A    
C61   O18   S    
C24   O15   A    
C29   C70   A    
C26   C36   A    
C48   C56   A    
C22   O13   A    
H10   O24   S    
C23   O23   A    
C56   C73   A    
Cu5   O41   S    
C28   C81   A    
C49   C74   A    
Cu4   O34   S    
C79   C97   A    
C67   C80   A    
C18   O8    A    
C2    C53   A    
Cu1   O5    S    
C20   C42   S    
Cu2   O12   S    
C78   C91   A    
C9    C100  A    
C83   C91   A    
Cu3   Cu4   S    
C76   C89   A    
C45   C64   A    
C43   C92   A    
Cu4   O8    S    
H11   O25   S    
C46   C63   A    
C11   C97   A    
C68   C82   A    
C14   O5    A    
C51   C78   A    
Cu5   O13   S    
C5    C10   A    
C5    C71   A    
H18   O31   S    
Cu3   O2    S    
C72   C102  A    
C60   C69   A    
C43   C66   A    
C82   C88   A    
C83   H4    S    
C64   O21   S    
Cu6   O39   S    
C77   C99   A    
C35   C62   A    
C49   C81   A    
C84   C93   A    
C57   C72   A    
C82   H28   S    
C24   O34   A    
C73   C86   A    
C37   C60   A    
C86   H30   S    
C7    C51   A    
Cu6   O11   S    
C95   C101  A    
C75   C88   A    
C87   H12   S    
H20   O33   S    
C7    C30   A    
C23   C36   S    
Cu1   Cu2   S    
H14   O27   S    
C60   O37   S    
Cu2   O3    S    
C41   C70   A    
C51   O28   S    
C63   O20   S    
Cu2   O16   S    
C13   C102  A    
C93   H23   S    
Cu3   O7    S    
C19   C41   S    
C39   C48   A    
Cu6   O10   S    
