data_mof_unit_39612.cif
_audit_creation_date              2013-03-05T15:55:54-0500
_audit_creation_method            fapswitch 2.2
_symmetry_space_group_name_H-M    P1
_symmetry_Int_Tables_number       1
_space_group_crystal_system       triclinic
_cell_length_a                    21.75311
_cell_length_b                    7.22086
_cell_length_c                    15.150507
_cell_angle_alpha                 90.001711
_cell_angle_beta                  107.393553
_cell_angle_gamma                 89.99929
_cell_volume                      2270.96544001

loop_
_atom_site_label
_atom_site_type_symbol
_atom_site_description
_atom_site_fract_x
_atom_site_fract_y
_atom_site_fract_z
_atom_type_partial_charge
O1    O     O_R   0.335860 0.638190 0.002110 -0.572036
O2    O     O_R   0.664140 0.361810 0.997890 -0.572900
O3    O     O_R   0.164140 0.138190 0.997890 -0.572868
O4    O     O_R   0.835860 0.861810 0.002110 -0.572077
O5    O     O_R   0.217530 0.305920 0.861960 -0.613668
O6    O     O_R   0.782470 0.694080 0.138040 -0.615275
O7    O     O_R   0.282470 0.805920 0.138040 -0.615255
O8    O     O_R   0.717530 0.194080 0.861960 -0.613560
C1    C     C_R   0.205602 0.476415 0.826369 1.029880
C2    C     C_R   0.794348 0.523461 0.173628 1.033896
C3    C     C_R   0.294352 0.976543 0.173628 1.033842
C4    C     C_R   0.705597 0.023580 0.826367 1.030405
O9    O     O_R   0.338690 0.308320 0.993240 -0.565261
O10   O     O_R   0.661310 0.691680 0.006760 -0.564409
O11   O     O_R   0.161310 0.808320 0.006760 -0.564402
O12   O     O_R   0.838690 0.191680 0.993240 -0.565191
O13   O     O_R   0.286170 0.140430 0.130100 -0.555539
O14   O     O_R   0.713830 0.859570 0.869900 -0.551109
O15   O     O_R   0.213830 0.640430 0.869900 -0.551077
O16   O     O_R   0.786170 0.359570 0.130100 -0.555605
C5    C     C_R   0.364455 0.478654 0.995790 1.043135
C6    C     C_R   0.635630 0.521316 0.004574 1.047480
C7    C     C_R   0.135632 0.978687 0.004581 1.047421
C8    C     C_R   0.864457 0.021344 0.995801 1.043509
O17   O     O_3   0.232630 0.472410 0.044750 -0.266257
O18   O     O_3   0.767370 0.527590 0.955250 -0.262752
O19   O     O_3   0.267370 0.972410 0.955250 -0.262764
O20   O     O_3   0.732630 0.027590 0.044750 -0.266333
V1    V     V_3+5 0.253220 0.196620 0.991700 1.340367
V2    V     V_3+5 0.746780 0.803380 0.008300 1.339781
V3    V     V_3+5 0.246780 0.696620 0.008300 1.339800
V4    V     V_3+5 0.753220 0.303380 0.991700 1.340399
C9    C     C_R   0.034308 0.835244 0.019578 -0.122319
C10   C     C_R   0.966118 0.165090 0.982445 -0.121839
C11   C     C_R   0.466118 0.334902 0.982431 -0.122183
C12   C     C_R   0.534297 0.664773 0.019537 -0.122471
H1    H     H_    0.060250 0.707296 0.036027 0.236052
H2    H     H_    0.940343 0.293389 0.966746 0.236582
H3    H     H_    0.440346 0.206596 0.966735 0.236563
H4    H     H_    0.560231 0.792734 0.035968 0.236063
C13   C     C_R   0.968104 0.837107 0.009981 0.410178
C14   C     C_R   0.032291 0.163154 0.991946 0.414321
C15   C     C_R   0.532291 0.336848 0.991934 0.414343
C16   C     C_R   0.468093 0.662898 0.009941 0.410211
C17   C     C_R   0.933142 0.005999 0.994410 -0.335862
C18   C     C_R   0.067151 0.994135 0.006916 -0.333536
C19   C     C_R   0.567146 0.505874 0.006897 -0.333504
C20   C     C_R   0.433137 0.493996 0.994389 -0.335829
C21   C     C_R   0.677658 0.020514 0.725097 -0.302560
C22   C     C_R   0.321082 0.980666 0.275045 -0.312418
C23   C     C_R   0.821066 0.519341 0.275047 -0.312476
C24   C     C_R   0.177641 0.479458 0.725107 -0.302530
C25   C     C_R   0.681129 0.144817 0.578214 -0.060491
C26   C     C_R   0.316017 0.858044 0.421445 -0.088228
C27   C     C_R   0.815950 0.641726 0.421468 -0.088218
C28   C     C_R   0.181113 0.355221 0.578211 -0.060445
C29   C     C_R   0.713628 0.090701 0.668724 -0.171222
C30   C     C_R   0.284483 0.908729 0.330103 -0.180623
C31   C     C_R   0.784445 0.591176 0.330096 -0.180740
C32   C     C_R   0.213605 0.409320 0.668724 -0.171002
C33   C     C_R   0.610834 0.988127 0.687142 0.272060
C34   C     C_R   0.387415 0.017758 0.314747 0.268606
C35   C     C_R   0.887400 0.482324 0.314763 0.268603
C36   C     C_R   0.110808 0.511692 0.687185 0.272061
C37   C     C_R   0.579895 0.021468 0.591470 -0.009472
C38   C     C_R   0.417128 0.989356 0.411166 -0.017742
C39   C     C_R   0.917089 0.510571 0.411201 -0.017894
C40   C     C_R   0.079860 0.478408 0.591506 -0.009613
C41   C     C_R   0.614135 0.123946 0.541547 -0.046159
C42   C     C_R   0.382216 0.890463 0.461553 -0.053965
C43   C     C_R   0.882141 0.609219 0.461635 -0.053875
C44   C     C_R   0.114116 0.376079 0.541543 -0.046137
C45   C     C_R   0.514748 0.968091 0.545444 0.043689
C46   C     C_R   0.482045 0.043891 0.457576 0.043064
C47   C     C_R   0.982012 0.456053 0.457599 0.042925
C48   C     C_R   0.014696 0.531710 0.545506 0.043514
C49   C     C_R   0.514251 0.177748 0.420357 -0.180799
C50   C     C_R   0.481909 0.837020 0.583293 -0.180270
C51   C     C_R   0.981814 0.662514 0.583441 -0.180414
C52   C     C_R   0.014241 0.322345 0.420322 -0.181103
C53   C     C_R   0.580142 0.209808 0.457560 0.332596
C54   C     C_R   0.415502 0.812668 0.547997 0.338902
C55   C     C_R   0.915390 0.686676 0.548196 0.338300
C56   C     C_R   0.080136 0.290329 0.457518 0.332691
H5    H     H_    0.708528 0.205299 0.536470 0.197888
H6    H     H_    0.288480 0.788346 0.460198 0.209685
H7    H     H_    0.788387 0.711430 0.460176 0.209826
H8    H     H_    0.208527 0.294788 0.536472 0.197748
H9    H     H_    0.488368 0.262564 0.362593 0.195811
H10   H     H_    0.506907 0.754418 0.642315 0.204246
H11   H     H_    0.006790 0.744971 0.642528 0.204599
H12   H     H_    0.988373 0.237589 0.362522 0.195834
N1    N     N_R   0.937017 0.663614 0.010632 0.238244
O21   O     O_R   0.961623 0.547032 0.077030 -0.335768
O22   O     O_R   0.895166 0.605533 0.935008 -0.349074
N2    N     N_R   0.063439 0.336740 0.991912 0.239337
O23   O     O_R   0.038253 0.455135 0.926665 -0.335565
O24   O     O_R   0.105665 0.393221 0.067545 -0.352935
N3    N     N_R   0.563447 0.163269 0.991906 0.239292
O25   O     O_R   0.538302 0.044915 0.926617 -0.335727
O26   O     O_R   0.605656 0.106774 0.067550 -0.352947
N4    N     N_R   0.436998 0.836386 0.010572 0.238222
O27   O     O_R   0.461575 0.952965 0.076985 -0.335817
O28   O     O_R   0.395153 0.894446 0.934939 -0.349168
N5    N     N_R   0.610262 0.341831 0.412644 0.231992
O29   O     O_R   0.645156 0.475123 0.460151 -0.387779
O30   O     O_R   0.593321 0.349452 0.322753 -0.318690
N6    N     N_R   0.383522 0.700372 0.599061 0.238081
O31   O     O_R   0.337489 0.771238 0.626825 -0.342090
O32   O     O_R   0.409042 0.543881 0.634302 -0.368660
N7    N     N_R   0.883347 0.798125 0.599541 0.238198
O33   O     O_R   0.837054 0.726832 0.626587 -0.342526
O34   O     O_R   0.909147 0.953518 0.636018 -0.368066
N8    N     N_R   0.110274 0.158467 0.412541 0.232004
O35   O     O_R   0.145162 0.025091 0.459979 -0.387862
O36   O     O_R   0.093360 0.151071 0.322645 -0.318550
N9    N     N_R   0.426467 0.043176 0.254210 0.225124
O37   O     O_R   0.417115 0.184394 0.198397 -0.373723
O38   O     O_R   0.474540 0.931735 0.259906 -0.338780
N10   N     N_R   0.572944 0.964205 0.749298 0.221391
O39   O     O_R   0.525688 0.077639 0.745392 -0.338887
O40   O     O_R   0.582235 0.821962 0.804469 -0.374339
N11   N     N_R   0.072937 0.535390 0.749381 0.221405
O41   O     O_R   0.082193 0.677614 0.804568 -0.374126
O42   O     O_R   0.025719 0.421831 0.745475 -0.339124
N12   N     N_R   0.926469 0.457085 0.254235 0.225122
O43   O     O_R   0.974511 0.568658 0.259958 -0.338824
O44   O     O_R   0.917151 0.315929 0.198382 -0.373743
C57   C     C_2   0.214008 0.872387 0.292315 1.121259
O45   O     O_2   0.181099 0.960483 0.226064 -0.638878
O46   O     O_R   0.184883 0.739276 0.333783 -0.750115
H13   H     H_    0.136838 0.728032 0.302277 0.374043
C58   C     C_2   0.784322 0.124190 0.704663 1.123610
O47   O     O_2   0.817682 0.034130 0.769835 -0.626087
O48   O     O_R   0.812985 0.258322 0.663068 -0.742186
H14   H     H_    0.860973 0.271090 0.694564 0.379135
C59   C     C_2   0.284290 0.375813 0.704684 1.123244
O49   O     O_2   0.317687 0.466524 0.769543 -0.625665
O50   O     O_R   0.312895 0.240887 0.663484 -0.741983
H15   H     H_    0.360894 0.228264 0.694940 0.379147
C60   C     C_2   0.713973 0.627532 0.292276 1.121187
O51   O     O_2   0.681075 0.539439 0.226014 -0.638906
O52   O     O_R   0.684836 0.760649 0.333729 -0.750111
H16   H     H_    0.636794 0.771900 0.302203 0.374061

loop_
_geom_bond_atom_site_label_1
_geom_bond_atom_site_label_2
_geom_bond_distance
_ccdc_geom_bond_type
O17   V3    1.767067 S    
O1    C5    1.326171 A    
N12   O43   1.301766 A    
C27   C31   1.397163 A    
O19   V1    1.767030 S    
O13   V1    2.043664 S    
C45   C46   1.418347 A    
N5    O29   1.301517 A    
O3    C7    1.326266 A    
N7    O33   1.301425 A    
C10   C14   1.403244 A    
C48   C51   1.407054 A    
C52   C56   1.393825 A    
O15   V3    2.043644 S    
C4    C21   1.471861 S    
C21   C29   1.413547 A    
O48   H14   1.013947 S    
C50   H10   1.077213 S    
O7    C3    1.338695 A    
N5    O30   1.301361 A    
C49   H9    1.078619 S    
N1    O21   1.298172 A    
C14   N2    1.424942 S    
C8    C17   1.504637 S    
C36   C40   1.424355 A    
O9    V1    2.020390 S    
C15   N3    1.424942 S    
N9    O38   1.301755 A    
C26   C30   1.397167 A    
O4    C8    1.326166 A    
C28   H8    1.082285 S    
C2    C23   1.471646 S    
C30   C57   1.490669 S    
O52   H16   1.014122 S    
C38   C46   1.431781 A    
O1    V3    2.012555 S    
C37   C45   1.432593 A    
N6    O31   1.301274 A    
C12   C19   1.394836 A    
O2    V4    2.012552 S    
C14   C18   1.418868 A    
O3    V1    2.012563 S    
C34   N9    1.436104 S    
C24   C32   1.413428 A    
C1    O15   1.341277 A    
C13   N1    1.425066 S    
C2    O16   1.340480 A    
C28   C44   1.404013 A    
C46   C49   1.406861 A    
N2    O24   1.301457 A    
O2    C6    1.326266 A    
N12   O44   1.301329 A    
C45   C50   1.407062 A    
O14   V2    2.043666 S    
C54   N6    1.435896 S    
C11   C15   1.403247 A    
C47   C52   1.406883 A    
O5    V1    2.043780 S    
C23   C35   1.412995 A    
C40   C44   1.418264 A    
C32   C59   1.489561 S    
C5    C20   1.504639 S    
O11   C7    1.347386 A    
C6    C19   1.504766 S    
C25   C41   1.403957 A    
O12   C8    1.347403 A    
C7    C18   1.504764 S    
C33   N10   1.435283 S    
C9    C18   1.394827 A    
C29   C58   1.489708 S    
C1    C24   1.471811 S    
O10   V2    2.020386 S    
C11   C20   1.394605 A    
N10   O40   1.301363 A    
N8    O35   1.301518 A    
C43   C55   1.410217 A    
C35   C39   1.424540 A    
C21   C33   1.413735 A    
C34   C38   1.424519 A    
O8    V4    2.043742 S    
N11   O41   1.301381 A    
O7    V3    2.043742 S    
C24   C36   1.413680 A    
C26   H6    1.080341 S    
C25   C29   1.397609 A    
O18   V4    1.767067 S    
C9    H1    1.072402 S    
C28   C32   1.397551 A    
C22   C30   1.413008 A    
C52   H12   1.078615 S    
C11   H3    1.072139 S    
C47   C48   1.418309 A    
O5    C1    1.337956 A    
C59   O50   1.399363 S    
C50   C54   1.393491 A    
N3    O25   1.297874 A    
C26   C42   1.405196 A    
C49   C53   1.393828 A    
O8    C4    1.337984 A    
N2    O23   1.297877 A    
O9    C5    1.347395 A    
N7    O34   1.301529 A    
C10   C17   1.394591 A    
C40   C48   1.432669 A    
N4    O28   1.301451 A    
C44   C56   1.409877 A    
C41   C53   1.409890 A    
O6    V2    2.043779 S    
C58   O47   1.223148 D    
C22   C34   1.413049 A    
C55   N7    1.436237 S    
C12   C16   1.403615 A    
C23   C31   1.412962 A    
O46   H13   1.014123 S    
C12   H4    1.072394 S    
N10   O39   1.301815 A    
C57   O45   1.222724 D    
O16   V4    2.043643 S    
C53   N5    1.437987 S    
C3    O13   1.340481 A    
C56   N8    1.437993 S    
N3    O26   1.301456 A    
C10   H2    1.072142 S    
C51   H11   1.077156 S    
O6    C2    1.338686 A    
N8    O36   1.301371 A    
O50   H15   1.013958 S    
O11   V3    2.020368 S    
O12   V4    2.020372 S    
C36   N11   1.435269 S    
C59   O49   1.222943 D    
C9    C13   1.403626 A    
O10   C6    1.347380 A    
C60   O52   1.399301 S    
C3    C22   1.471647 S    
N9    O37   1.301321 A    
C51   C55   1.393597 A    
C38   C42   1.419891 A    
C37   C41   1.418200 A    
O20   V2    1.767030 S    
N6    O32   1.301146 A    
C39   C43   1.420009 A    
C27   H7    1.080261 S    
N4    O27   1.298166 A    
C42   C54   1.410025 A    
O4    V2    2.012566 S    
C35   N12   1.436099 S    
N11   O42   1.301758 A    
C33   C37   1.424316 A    
C39   C47   1.431806 A    
C31   C60   1.490673 S    
N1    O22   1.301451 A    
C4    O14   1.341288 A    
C58   O48   1.399633 S    
C13   C17   1.419183 A    
C25   H5    1.082269 S    
C60   O51   1.222722 D    
C15   C19   1.418869 A    
C27   C43   1.405268 A    
C16   C20   1.419177 A    
C57   O46   1.399298 S    
C16   N4    1.425065 S    
