data_mof_unit_36969.cif
_audit_creation_date              2012-10-26T21:00:15-0400
_audit_creation_method            fapswitch 2.2
_symmetry_space_group_name_H-M    P1
_symmetry_Int_Tables_number       1
_space_group_crystal_system       triclinic
_cell_length_a                    19.318206
_cell_length_b                    8.674294
_cell_length_c                    7.4323
_cell_angle_alpha                 103.094699
_cell_angle_beta                  94.121938
_cell_angle_gamma                 92.240583
_cell_volume                      1207.95316639

loop_
_atom_site_label
_atom_site_type_symbol
_atom_type_description
_atom_site_fract_x
_atom_site_fract_y
_atom_site_fract_z
_atom_type_partial_charge
C1    C     C_R   0.497755 0.199592 0.453138 0.532062
C2    C     C_R   0.812586 0.453874 0.323783 -0.095707
C3    C     C_R   0.146400 0.483477 0.502177 -0.016808
C4    C     C_R   0.853787 0.477700 0.492143 -0.010536
C5    C     C_R   0.179774 0.538369 0.365419 -0.141442
C6    C     C_R   0.821931 0.504853 0.658991 -0.144457
C7    C     C_R   0.251748 0.542711 0.367264 -0.183838
C8    C     C_R   0.750204 0.511523 0.658196 -0.195101
C9    C     C_R   0.291783 0.491098 0.504875 0.006853
C10   C     C_R   0.708414 0.487893 0.490398 0.004999
C11   C     C_R   0.929862 0.476557 0.494076 0.345002
C12   C     C_R   0.501784 0.800404 0.546933 0.544265
C13   C     C_R   0.070252 0.479984 0.499435 0.344346
C14   C     C_3   0.312615 0.211397 0.691593 0.019902
C15   C     C_3   0.261069 0.092638 0.742201 -0.273370
C16   C     C_3   0.282065 0.922660 0.674422 -0.467305
C17   C     C_3   0.677643 0.269406 0.089891 0.030816
C18   C     C_3   0.725969 0.178044 0.954274 -0.283940
C19   C     C_3   0.696285 0.009380 0.869207 -0.465460
C20   C     C_2   0.496593 0.031640 0.426789 -0.164539
C21   C     C_2   0.502219 0.968347 0.573419 -0.171973
C22   C     C_R   0.367589 0.497466 0.502116 0.549083
C23   C     C_R   0.632544 0.497069 0.496703 0.550343
C24   C     C_R   0.258495 0.429481 0.638747 0.256113
C25   C     C_R   0.740166 0.453844 0.320763 0.255020
C26   C     C_R   0.186196 0.430746 0.639747 -0.100654
Cu1   Cu    Cu3+1 0.507710 0.517380 0.684380 0.958093
Cu2   Cu    Cu3+1 0.492290 0.482620 0.315620 0.960531
H1    H     H_    0.161253 0.386127 0.745193 0.146087
H2    H     H_    0.555072 0.620021 0.051219 0.249945
H3    H     H_    0.365296 0.193932 0.751009 0.146509
H4    H     H_    0.315325 0.185223 0.538014 0.113635
H5    H     H_    0.259151 0.118735 0.895222 0.180932
H6    H     H_    0.208335 0.104046 0.678094 0.164987
H7    H     H_    0.283642 0.893639 0.521378 0.150473
H8    H     H_    0.243518 0.839254 0.711770 0.167090
H9    H     H_    0.334031 0.906817 0.739936 0.156743
H10   H     H_    0.625412 0.266630 0.015602 0.179793
H11   H     H_    0.670552 0.208346 0.205111 0.116418
H12   H     H_    0.836380 0.433332 0.193466 0.140307
H13   H     H_    0.733152 0.240612 0.841421 0.179680
H14   H     H_    0.777543 0.172343 0.028029 0.162368
H15   H     H_    0.689078 0.943812 0.979358 0.156154
H16   H     H_    0.732716 0.945786 0.773173 0.160992
H17   H     H_    0.645531 0.011619 0.789823 0.151883
H18   H     H_    0.150363 0.580107 0.258019 0.156640
H19   H     H_    0.852500 0.524212 0.790952 0.156208
H20   H     H_    0.276228 0.588403 0.261828 0.156706
H21   H     H_    0.727581 0.536079 0.790212 0.172449
H22   H     H_    0.491334 0.959783 0.285608 0.134548
H23   H     H_    0.507392 0.040217 0.714617 0.120217
H24   H     H_    0.445097 0.379871 0.948852 0.249312
N1    N     N_R   0.031112 0.492554 0.344892 -0.217319
N2    N     N_R   0.968985 0.463756 0.648629 -0.218424
N3    N     N_R   0.962223 0.490572 0.342111 -0.226572
N4    N     N_R   0.037898 0.465013 0.651138 -0.226209
N5    N     N_2   0.480680 0.456420 0.038530 -0.256376
N6    N     N_2   0.519320 0.543580 0.961470 -0.254119
O1    O     O_R   0.505010 0.286130 0.619770 -0.515496
O2    O     O_3   0.701783 0.430619 0.151217 -0.571012
O3    O     O_R   0.494990 0.713870 0.380230 -0.502671
O4    O     O_R   0.491990 0.256780 0.308370 -0.510637
O5    O     O_R   0.508010 0.743220 0.691630 -0.503230
O6    O     O_R   0.406650 0.514660 0.655750 -0.464880
O7    O     O_R   0.593350 0.485340 0.344250 -0.470801
O8    O     O_R   0.393640 0.485310 0.344340 -0.501432
O9    O     O_R   0.606360 0.514690 0.655660 -0.507579
O10   O     O_3   0.295897 0.368892 0.770386 -0.565621

loop_
_geom_bond_atom_site_label_1
_geom_bond_atom_site_label_2
_ccdc_geom_bond_type
Cu2   O8    S    
C19   H17   S    
C9    C24   A    
C25   O2    S    
C10   C23   S    
C5    C7    A    
C5    H18   S    
C14   H3    S    
C15   H6    S    
C2    C4    A    
C3    C13   S    
C16   H9    S    
C13   N4    A    
C7    H20   S    
C23   O7    A    
C1    O1    A    
C17   C18   S    
Cu1   O1    S    
Cu2   N5    S    
C16   H8    S    
C4    C11   S    
C12   O3    A    
N5    N6    D    
C11   N2    A    
Cu1   O5    S    
C6    C8    A    
C8    H21   S    
C10   C25   A    
C4    C6    A    
C6    H19   S    
C19   H15   S    
Cu2   O7    S    
C2    C25   A    
C13   N1    A    
C17   H10   S    
C18   H14   S    
C16   H7    S    
Cu1   O6    S    
N2    N4    A    
C9    C22   S    
Cu1   O9    S    
H24   N5    S    
C24   O10   S    
Cu2   O3    S    
C22   O6    A    
C15   C16   S    
C1    O4    A    
C2    H12   S    
C21   H23   S    
C11   N3    A    
C19   H16   S    
C26   H1    S    
C8    C10   A    
C18   C19   S    
C17   H11   S    
C18   H13   S    
C23   O9    A    
Cu1   Cu2   S    
C7    C9    A    
C12   O5    A    
C14   O10   S    
C14   C15   S    
C22   O8    A    
C1    C20   S    
C20   H22   S    
C17   O2    S    
C20   C21   D    
H2    N6    S    
N1    N3    A    
C14   H4    S    
C12   C21   S    
C15   H5    S    
C3    C26   A    
C24   C26   A    
C3    C5    A    
Cu1   N6    S    
Cu2   O4    S    
