data_mof_unit_50432.cif
_audit_creation_date              2013-03-05T16:19:19-0500
_audit_creation_method            fapswitch 2.2
_symmetry_space_group_name_H-M    P1
_symmetry_Int_Tables_number       1
_space_group_crystal_system       triclinic
_cell_length_a                    10.622866
_cell_length_b                    9.755409
_cell_length_c                    23.408112
_cell_angle_alpha                 90.185496
_cell_angle_beta                  91.831602
_cell_angle_gamma                 90.043683
_cell_volume                      2424.5390766

loop_
_atom_site_label
_atom_site_type_symbol
_atom_site_description
_atom_site_fract_x
_atom_site_fract_y
_atom_site_fract_z
_atom_type_partial_charge
O1    O     O_R   0.314910 0.616040 0.499990 -0.643390
O2    O     O_R   0.314910 0.383960 0.499990 -0.639563
C1    C     C_R   0.257772 0.500249 0.499910 0.882860
O3    O     O_R   0.500080 0.616070 0.416130 -0.638566
O4    O     O_R   0.500080 0.383930 0.416130 -0.623420
C2    C     C_R   0.501752 0.499787 0.389329 0.894986
Zn1   Zn    Zn3+2 0.500150 0.654960 0.499970 0.907928
Zn2   Zn    Zn3+2 0.500150 0.345040 0.499970 0.911419
O5    O     O_R   0.685320 0.616040 0.499970 -0.630969
O6    O     O_R   0.685320 0.383960 0.499970 -0.642088
O7    O     O_R   0.500150 0.616010 0.583820 -0.623660
O8    O     O_R   0.500150 0.383990 0.583820 -0.633249
C3    C     C_R   0.742153 0.500314 0.500024 0.953117
C4    C     C_R   0.501447 0.500215 0.610660 0.896174
C5    C     C_R   0.638563 0.495492 0.881324 0.511587
N1    N     N_R   0.525142 0.503329 0.852421 -0.358980
C6    C     C_R   0.414041 0.511550 0.879922 0.501104
C7    C     C_R   0.414121 0.511893 0.939538 -0.002255
C8    C     C_R   0.530230 0.503802 0.970438 -0.023053
C9    C     C_R   0.643366 0.495749 0.941130 -0.060428
C10   C     C_R   0.301187 0.519798 0.968654 -0.164356
C11   C     C_R   0.302985 0.519401 0.027928 -0.164383
C12   C     C_R   0.417732 0.511154 0.059126 -0.000073
C13   C     C_R   0.532711 0.503542 0.030578 -0.058212
C14   C     C_R   0.649217 0.495571 0.061917 -0.036219
C15   C     C_R   0.763568 0.488069 0.031620 0.164222
C16   C     C_R   0.758358 0.488187 0.971747 -0.152793
C17   C     C_R   0.419916 0.509808 0.118516 0.498945
N2    N     N_R   0.531824 0.501155 0.148292 -0.352639
C18   C     C_R   0.644885 0.495130 0.122209 0.507390
O9    O     O_2   0.745935 0.487943 0.852147 -0.560400
O10   O     O_2   0.304118 0.518729 0.849494 -0.552295
H1    H     H_    0.211093 0.526075 0.945793 0.191320
H2    H     H_    0.214080 0.525388 0.049207 0.188067
O11   O     O_2   0.311078 0.516502 0.146685 -0.557192
O12   O     O_2   0.751183 0.488461 0.155073 -0.564582
H3    H     H_    0.845225 0.482237 0.948807 0.193092
C19   C     C_R   0.522099 0.372983 0.238087 0.239381
C20   C     C_R   0.512713 0.374346 0.297382 -0.187231
H4    H     H_    0.507105 0.278102 0.320071 0.151076
C21   C     C_R   0.510279 0.499224 0.327278 -0.069551
C22   C     C_R   0.519464 0.623349 0.297679 -0.251108
H5    H     H_    0.519279 0.720839 0.319901 0.158397
C23   C     C_R   0.529062 0.622742 0.238790 -0.153287
H6    H     H_    0.534595 0.718872 0.215986 0.144695
C24   C     C_R   0.529741 0.498510 0.209028 0.329076
C25   C     C_R   0.506129 0.625999 0.762191 -0.104411
H7    H     H_    0.498715 0.721850 0.785304 0.134256
C26   C     C_R   0.498989 0.625294 0.702904 -0.214679
H8    H     H_    0.486543 0.721758 0.680665 0.149863
C27   C     C_R   0.507319 0.500874 0.672945 -0.037287
C28   C     C_R   0.523796 0.377472 0.702976 -0.248948
H9    H     H_    0.531302 0.280393 0.680763 0.150261
C29   C     C_R   0.531353 0.378669 0.762280 -0.110616
H10   H     H_    0.543348 0.283434 0.785458 0.135889
C30   C     C_R   0.522137 0.502794 0.791712 0.328953
C31   C     C_3   0.075818 0.426036 0.553786 -0.455987
C32   C     C_3   0.069574 0.428642 0.444626 -0.497749
H11   H     H_    0.116959 0.476368 0.592872 0.204333
H12   H     H_    0.099931 0.484128 0.406072 0.187995
H13   H     H_    0.109366 0.317924 0.553976 0.135354
H14   H     H_    0.108949 0.323322 0.441614 0.156706
C33   C     C_3   0.930364 0.427127 0.555048 0.334959
C34   C     C_3   0.925318 0.418800 0.447124 0.350082
H15   H     H_    0.896687 0.318308 0.553479 0.042897
H16   H     H_    0.906480 0.309014 0.456749 0.087670
H17   H     H_    0.111266 0.707284 0.538228 0.191018
H18   H     H_    0.101271 0.706370 0.461382 0.172150
H19   H     H_    0.901191 0.703391 0.542098 0.224077
H20   H     H_    0.890136 0.716565 0.467235 0.151676
C35   C     C_3   0.071866 0.650866 0.500233 -0.412589
C36   C     C_3   0.121288 0.501094 0.499646 0.057036
C37   C     C_3   0.878200 0.501206 0.500173 -0.034827
C38   C     C_3   0.929447 0.651449 0.502067 -0.388172
C39   C     C_3   0.376170 0.081569 0.476174 0.155657
C40   C     C_3   0.376126 0.917807 0.476195 0.162326
H21   H     H_    0.301944 0.114336 0.505911 0.106914
H22   H     H_    0.301993 0.885613 0.506010 0.104094
H23   H     H_    0.594240 0.119371 0.419392 0.161755
H24   H     H_    0.594324 0.879567 0.419396 0.150074
C41   C     C_3   0.601878 0.080638 0.463864 -0.223800
C42   C     C_3   0.601875 0.919021 0.463864 -0.245770
C43   C     C_3   0.519940 0.081421 0.557259 -0.322594
C44   C     C_3   0.519938 0.919488 0.557257 -0.313983
N3    N     N_3   0.499750 0.138610 0.498760 -0.046523
N4    N     N_3   0.499750 0.861390 0.498760 -0.044044
H25   H     H_    0.610707 0.119933 0.576207 0.162632
H26   H     H_    0.610701 0.881425 0.576197 0.174521
H27   H     H_    0.445260 0.119204 0.585584 0.153841
H28   H     H_    0.445267 0.881977 0.585574 0.149546
H29   H     H_    0.694775 0.117830 0.480874 0.143925
H30   H     H_    0.694743 0.882322 0.480901 0.142808
O13   O     O_3   0.890029 0.496922 0.604665 -0.602613
C45   C     C_3   0.866944 0.403284 0.648919 -0.281228
H31   H     H_    0.951646 0.339854 0.659228 0.162876
H32   H     H_    0.784768 0.336793 0.637408 0.150955
H33   H     H_    0.843596 0.461777 0.687888 0.220360
O14   O     O_3   0.860172 0.437899 0.393499 -0.595415
C46   C     C_3   0.858612 0.573951 0.373377 -0.257638
H34   H     H_    0.948906 0.629133 0.380846 0.147157
H35   H     H_    0.778805 0.630863 0.391531 0.157034
H36   H     H_    0.840820 0.571067 0.326438 0.208423
C47   C     C_3   0.332616 0.143641 0.417758 -0.841074
H37   H     H_    0.321936 0.254738 0.418553 0.277971
H38   H     H_    0.396157 0.116237 0.382925 0.225634
H39   H     H_    0.235816 0.109332 0.405960 0.201515
C48   C     C_3   0.332217 0.854468 0.417825 -0.841220
H40   H     H_    0.319810 0.743486 0.418772 0.276880
H41   H     H_    0.235963 0.889710 0.405764 0.196224
H42   H     H_    0.396369 0.879913 0.383024 0.227838
C49   C     C_3   0.892452 0.479519 0.060667 -0.756421
H43   H     H_    0.899647 0.385280 0.087018 0.269161
H44   H     H_    0.968934 0.474486 0.029448 0.196227
H45   H     H_    0.910235 0.572055 0.087455 0.269409
C50   C     C_3   0.522627 0.238926 0.206085 -0.893883
H46   H     H_    0.515663 0.150059 0.235373 0.228756
H47   H     H_    0.441395 0.234886 0.175087 0.253553
H48   H     H_    0.611354 0.228979 0.182623 0.257336

loop_
_geom_bond_atom_site_label_1
_geom_bond_atom_site_label_2
_geom_bond_distance
_ccdc_geom_bond_type
C32   H14   1.112488 S    
C43   H25   1.112917 S    
C33   H15   1.120092 S    
O13   C45   1.410582 S    
C7    C10   1.400628 A    
C21   C22   1.401924 A    
C8    C9    1.404892 A    
C41   C42   1.576644 S    
C20   C21   1.403627 A    
C28   H9    1.083139 S    
Zn1   O7    2.000416 S    
C15   C16   1.400835 A    
C44   H28   1.112304 S    
C43   C44   1.579720 S    
C17   N2    1.361506 A    
C40   H22   1.114473 S    
Zn2   N3    2.013917 S    
O2    C1    1.287004 A    
C19   C20   1.394759 A    
O7    C4    1.294237 A    
C31   H11   1.113735 S    
Zn1   N4    2.014107 S    
C10   H1    1.083343 S    
C32   H12   1.110390 S    
C50   H46   1.110888 S    
C42   H30   1.112092 S    
C7    C8    1.412158 A    
C37   C38   1.563130 S    
C31   H13   1.113487 S    
O5    C3    1.280635 A    
C39   N3    1.505045 S    
C49   H44   1.111010 S    
C46   H34   1.108273 S    
C17   O11   1.350681 S    
C23   C24   1.396084 A    
N1    C6    1.364594 A    
C26   C27   1.404090 A    
C2    C21   1.458207 S    
H20   C38   1.106656 S    
C34   C37   1.572480 S    
C49   H45   1.110081 S    
C34   O14   1.426687 S    
C10   C11   1.387043 A    
C39   C47   1.554311 S    
C48   H41   1.107294 S    
C22   C23   1.385492 A    
O3    Zn1   1.997641 S    
C43   H27   1.112333 S    
C28   C29   1.387970 A    
C31   C33   1.546408 S    
C32   C34   1.538333 S    
C5    C9    1.399229 A    
C11   H2    1.083239 S    
C29   C30   1.396269 A    
C27   C28   1.404259 A    
C25   H7    1.082965 S    
C13   C14   1.420697 A    
O3    C2    1.294941 A    
C20   H4    1.082737 S    
H23   C41   1.109172 S    
C33   C37   1.562194 S    
C45   H33   1.109290 S    
C50   H47   1.110142 S    
C14   C15   1.427851 A    
C42   N4    1.489606 S    
O1    C1    1.281895 A    
C34   H16   1.114445 S    
C39   C40   1.597566 S    
N1    C30   1.420433 S    
N2    C18   1.365811 A    
C35   C38   1.514892 S    
C4    C27   1.457322 S    
Zn2   O8    1.998001 S    
C50   H48   1.110076 S    
C6    C7    1.395457 A    
H19   C38   1.113576 S    
C47   H38   1.107231 S    
C12   C17   1.389783 A    
C45   H32   1.112812 S    
C39   H21   1.114663 S    
H24   C42   1.109099 S    
C46   H35   1.108957 S    
C3    C37   1.445119 S    
C26   H8    1.083058 S    
C40   C48   1.555498 S    
C48   H42   1.107329 S    
C22   H5    1.082558 S    
C48   H40   1.090960 S    
C40   N4    1.505041 S    
C23   H6    1.083058 S    
C14   C18   1.413557 A    
Zn1   O5    2.003629 S    
C29   H10   1.082932 S    
C49   H43   1.110071 S    
C43   N3    1.489548 S    
O1    Zn1   2.003804 S    
O2    Zn2   2.004372 S    
C44   H26   1.112802 S    
C44   N4    1.489379 S    
O6    C3    1.285224 A    
O4    Zn2   2.000053 S    
C5    O9    1.349978 S    
C9    C16   1.398493 A    
C25   C26   1.387447 A    
C33   O13   1.422405 S    
C18   O12   1.347596 S    
N2    C24   1.422914 S    
C8    C13   1.407181 A    
O8    C4    1.294325 A    
C35   C36   1.553094 S    
C19   C50   1.505130 S    
C32   C36   1.551891 S    
O4    C2    1.294832 A    
C16   H3    1.083877 S    
H18   C35   1.113077 S    
C1    C36   1.449700 S    
C47   H39   1.107429 S    
H17   C35   1.114357 S    
C31   C36   1.555674 S    
C45   H31   1.112954 S    
C19   C24   1.406285 A    
C12   C13   1.412758 A    
C41   H29   1.112404 S    
C46   H36   1.109172 S    
Zn2   O6    2.003061 S    
O14   C46   1.409721 S    
C47   H37   1.089963 S    
C6    O10   1.350198 S    
C11   C12   1.403288 A    
C15   C49   1.511554 S    
C41   N3    1.489511 S    
C5    N1    1.365155 A    
C25   C30   1.396128 A    
