data_mof_unit_39233.cif
_audit_creation_date              2012-12-10T20:49:43-0500
_audit_creation_method            fapswitch 2.2
_symmetry_space_group_name_H-M    P1
_symmetry_Int_Tables_number       1
_space_group_crystal_system       triclinic
_cell_length_a                    8.10604
_cell_length_b                    8.936773
_cell_length_c                    16.727807
_cell_angle_alpha                 89.996315
_cell_angle_beta                  85.994358
_cell_angle_gamma                 89.995552
_cell_volume                      1208.83290581

loop_
_atom_site_label
_atom_site_type_symbol
_atom_type_description
_atom_site_fract_x
_atom_site_fract_y
_atom_site_fract_z
_atom_type_partial_charge
C1    C     C_R   0.499995 0.782030 0.500018 0.937516
C2    C     C_R   0.499998 0.217970 0.500044 0.945471
C3    C     C_1   0.499991 0.934814 0.500058 -0.190647
C4    C     C_1   0.500000 0.065172 0.500064 -0.193483
C5    C     C_R   0.478704 0.509309 0.653444 0.887946
C6    C     C_R   0.521435 0.501073 0.346100 0.887881
C7    C     C_R   0.469862 0.564935 0.735360 -0.085163
C8    C     C_R   0.531459 0.520688 0.259518 -0.106576
C9    C     C_R   0.603737 0.648140 0.760685 -0.315069
C10   C     C_R   0.385441 0.539304 0.220518 -0.297213
C11   C     C_R   0.597998 0.709392 0.837782 0.565931
C12   C     C_R   0.391356 0.577437 0.139448 0.577456
C13   C     C_R   0.453827 0.689355 0.888027 0.058315
C14   C     C_R   0.547159 0.590529 0.096832 0.058585
C15   C     C_R   0.316519 0.614431 0.861144 -0.237677
C16   C     C_R   0.692381 0.563868 0.135039 -0.245215
C17   C     C_R   0.324174 0.552523 0.784810 -0.209676
C18   C     C_R   0.685071 0.531309 0.216277 -0.194619
C19   C     C_2   0.460752 0.708779 0.973857 -0.102305
C20   C     C_2   0.562796 0.618427 0.010757 -0.150740
H1    H     H_    0.207712 0.595412 0.901230 0.171238
H2    H     H_    0.811683 0.569408 0.101798 0.169975
H3    H     H_    0.711243 0.667479 0.719957 0.169523
H4    H     H_    0.266341 0.524754 0.253040 0.172088
H5    H     H_    0.799204 0.515524 0.245231 0.167773
H6    H     H_    0.218227 0.492487 0.765118 0.163181
H7    H     H_    0.656171 0.554194 0.975675 0.151776
H8    H     H_    0.366219 0.774634 0.006556 0.172660
N1    N     N_1   0.926360 0.500000 0.499990 -0.037920
N2    N     N_1   0.073640 0.500000 0.500010 -0.037426
O1    O     O_R   0.363150 0.714660 0.500000 -0.614612
O2    O     O_R   0.636850 0.285340 0.500000 -0.610585
O3    O     O_R   0.636850 0.714660 0.500000 -0.616931
O4    O     O_R   0.363150 0.285340 0.500000 -0.611955
O5    O     O_R   0.346950 0.500000 0.615800 -0.618816
O6    O     O_R   0.653050 0.500000 0.384200 -0.621961
O7    O     O_R   0.620700 0.500000 0.615800 -0.621771
O8    O     O_R   0.379300 0.500000 0.384200 -0.623503
Zn1   Zn    Zn3+2 0.317220 0.500000 0.500010 0.983576
Zn2   Zn    Zn3+2 0.682780 0.500000 0.499990 0.982254
O9    O     O_3   0.247242 0.585376 0.099517 -0.620729
C21   C     C_3   0.141919 0.697436 0.134095 -0.391757
H9    H     H_    0.210457 0.799967 0.150374 0.164468
H10   H     H_    0.067773 0.653168 0.187203 0.180479
H11   H     H_    0.054582 0.731759 0.089333 0.198514
O10   O     O_3   0.725986 0.794833 0.865291 -0.603914
C22   C     C_3   0.881502 0.726857 0.847576 -0.335060
H12   H     H_    0.929790 0.754226 0.785544 0.181313
H13   H     H_    0.878092 0.603443 0.857101 0.147538
H14   H     H_    0.969808 0.773817 0.888675 0.199865

loop_
_geom_bond_atom_site_label_1
_geom_bond_atom_site_label_2
_ccdc_geom_bond_type
C2    C4    S    
C6    O8    A    
C15   C17   A    
N1    N2    T    
C20   H7    S    
C5    O7    A    
O7    Zn2   S    
C11   C13   A    
O9    C21   S    
C5    O5    A    
O5    Zn1   S    
C19   C20   D    
O1    Zn1   S    
C1    O1    A    
C16   H2    S    
C2    O4    A    
O2    Zn2   S    
C1    O3    A    
C22   H13   S    
C19   H8    S    
C9    C11   A    
C12   O9    S    
C18   H5    S    
C21   H10   S    
C17   H6    S    
C10   C12   A    
N1    Zn2   S    
C16   C18   A    
C6    O6    A    
N2    Zn1   S    
C22   H14   S    
C5    C7    S    
C13   C15   A    
O8    Zn1   S    
C14   C16   A    
C15   H1    S    
O3    Zn2   S    
C21   H9    S    
C13   C19   S    
C3    C4    T    
C22   H12   S    
C14   C20   S    
O6    Zn2   S    
C2    O2    A    
C7    C9    A    
O10   C22   S    
C9    H3    S    
C11   O10   S    
C6    C8    S    
C10   H4    S    
C8    C10   A    
C8    C18   A    
O4    Zn1   S    
C12   C14   A    
C1    C3    S    
C21   H11   S    
C7    C17   A    
