data_mof_unit_52592.cif
_audit_creation_date              2012-12-10T16:53:53-0500
_audit_creation_method            fapswitch 2.2
_symmetry_space_group_name_H-M    P1
_symmetry_Int_Tables_number       1
_space_group_crystal_system       triclinic
_cell_length_a                    7.768997
_cell_length_b                    8.548591
_cell_length_c                    10.606306
_cell_angle_alpha                 90.924079
_cell_angle_beta                  84.960212
_cell_angle_gamma                 93.910638
_cell_volume                      700.013497992

loop_
_atom_site_label
_atom_site_type_symbol
_atom_type_description
_atom_site_fract_x
_atom_site_fract_y
_atom_site_fract_z
_atom_type_partial_charge
C1    C     C_R   0.546007 0.794818 0.495556 0.954687
C2    C     C_3   0.501752 0.510304 0.121929 0.173141
C3    C     C_3   0.456754 0.340831 0.077037 -0.441129
C4    C     C_3   0.683620 0.568936 0.060403 -0.396477
C5    C     C_2   0.570318 0.958481 0.492352 -0.406147
C6    C     C_2   0.430197 0.041438 0.496359 -0.397702
C7    C     C_R   0.501246 0.503526 0.742230 0.833693
C8    C     C_R   0.454031 0.205188 0.500645 0.982922
C9    C     C_R   0.501119 0.508756 0.258149 0.836978
C10   C     C_3   0.370182 0.622662 0.937606 -0.401479
C11   C     C_3   0.366121 0.620563 0.081973 -0.404709
C12   C     C_3   0.460809 0.335635 0.931665 -0.141780
C13   C     C_3   0.683070 0.567470 0.916429 -0.446332
C14   C     C_3   0.501129 0.505921 0.878847 0.148682
H1    H     H_    0.237708 0.596116 0.908178 0.181896
H2    H     H_    0.784860 0.492143 0.086516 0.181418
H3    H     H_    0.574819 0.269548 0.897753 0.112940
H4    H     H_    0.552349 0.261173 0.108014 0.151171
H5    H     H_    0.702485 0.010170 0.489468 0.181579
H6    H     H_    0.298191 0.989688 0.498190 0.179066
H7    H     H_    0.014214 0.382505 0.404507 0.186600
H8    H     H_    0.985818 0.617434 0.595584 0.182052
H9    H     H_    0.410118 0.743463 0.903619 0.162558
H10   H     H_    0.394651 0.741618 0.118392 0.164823
H11   H     H_    0.233610 0.580625 0.122225 0.179400
H12   H     H_    0.328378 0.297692 0.123036 0.166024
H13   H     H_    0.785388 0.491829 0.875354 0.186165
H14   H     H_    0.716989 0.688009 0.879652 0.165680
H15   H     H_    0.718866 0.689909 0.094243 0.168833
N1    N     N_2   0.950330 0.457950 0.465890 -0.173568
N2    N     N_2   0.049670 0.542050 0.534110 -0.174473
O1    O     O_R   0.389250 0.738570 0.508370 -0.619863
O2    O     O_R   0.678390 0.711620 0.486510 -0.631264
O3    O     O_R   0.355430 0.513500 0.696140 -0.618786
O4    O     O_R   0.644580 0.486550 0.674270 -0.635473
O5    O     O_R   0.321610 0.288380 0.513490 -0.615178
O6    O     O_R   0.610750 0.261430 0.491630 -0.612039
O7    O     O_R   0.355420 0.513450 0.325730 -0.636814
O8    O     O_R   0.644570 0.486500 0.303860 -0.630749
Zn1   Zn    Zn3+2 0.306940 0.517990 0.514600 0.929944
Zn2   Zn    Zn3+2 0.693060 0.482010 0.485400 0.923963
C15   C     C_R   0.301175 0.242927 0.887310 0.152926
C16   C     C_R   0.131253 0.280554 0.928561 -0.126086
C17   C     C_R   0.988429 0.186917 0.893440 -0.149247
C18   C     C_R   0.012297 0.053956 0.817652 -0.107021
C19   C     C_R   0.179488 0.013617 0.777601 -0.137242
C20   C     C_R   0.322978 0.107381 0.811732 -0.167124
H16   H     H_    0.107665 0.377920 0.992181 0.111903
H17   H     H_    0.859184 0.215664 0.927583 0.114491
H18   H     H_    0.901347 0.980927 0.791585 0.110035
H19   H     H_    0.198016 0.908623 0.721053 0.138167
H20   H     H_    0.451348 0.072414 0.780522 0.108947

loop_
_geom_bond_atom_site_label_1
_geom_bond_atom_site_label_2
_ccdc_geom_bond_type
C12   H3    S    
C4    H2    S    
C2    C4    S    
C16   C17   A    
C13   H14   S    
C20   H20   S    
C5    H5    S    
C10   H9    S    
C6    H6    S    
C16   H16   S    
H7    N1    S    
C4    H15   S    
O5    Zn1   S    
C15   C20   A    
O2    Zn2   S    
C2    C3    S    
C10   C11   S    
C1    O2    A    
N1    Zn2   S    
C13   C14   S    
N2    Zn1   S    
O7    Zn1   S    
C5    C6    D    
C18   H18   S    
C3    H4    S    
C17   H17   S    
O3    Zn1   S    
C2    C11   S    
C9    O7    A    
C12   C14   S    
C10   H1    S    
O1    Zn1   S    
O6    Zn2   S    
N1    N2    D    
O4    Zn2   S    
C7    O3    A    
C1    C5    S    
H8    N2    S    
C11   H11   S    
C12   C15   S    
C11   H10   S    
C9    O8    A    
C17   C18   A    
C8    O6    A    
O8    Zn2   S    
C8    O5    A    
C4    C13   S    
C3    H12   S    
C19   C20   A    
C13   H13   S    
C6    C8    S    
C3    C12   S    
C18   C19   A    
C2    C9    S    
C7    O4    A    
C19   H19   S    
C7    C14   S    
C1    O1    A    
C15   C16   A    
C10   C14   S    
