data_mof_unit_68519.cif
_audit_creation_date              2012-12-11T17:48:24-0500
_audit_creation_method            fapswitch 2.2
_symmetry_space_group_name_H-M    P1
_symmetry_Int_Tables_number       1
_space_group_crystal_system       triclinic
_cell_length_a                    8.21191
_cell_length_b                    12.710215
_cell_length_c                    15.11507
_cell_angle_alpha                 96.959735
_cell_angle_beta                  97.725385
_cell_angle_gamma                 98.593738
_cell_volume                      1529.61773625

loop_
_atom_site_label
_atom_site_type_symbol
_atom_type_description
_atom_site_fract_x
_atom_site_fract_y
_atom_site_fract_z
_atom_type_partial_charge
Ba1   Ba    Ba6+2 0.843750 0.550210 0.455600 1.655085
Ba2   Ba    Ba6+2 0.346090 0.449880 0.544410 1.652066
C1    C     C_3   0.505465 0.907220 0.187450 -0.415637
C2    C     C_3   0.562809 0.822972 0.242080 0.348004
C3    C     C_3   0.419896 0.277746 0.268433 0.321707
C4    C     C_3   0.386502 0.241251 0.167056 -0.041586
C5    C     C_3   0.118207 0.233073 0.792469 0.380351
C6    C     C_3   0.153527 0.205869 0.887255 -0.366982
C7    C     C_3   0.616228 0.168691 0.753349 0.392170
C8    C     C_3   0.685064 0.091808 0.812126 -0.384542
C9    C     C_R   0.828352 0.430237 0.829848 -0.014068
C10   C     C_R   0.899315 0.433686 0.921311 -0.062406
C11   C     C_R   0.039009 0.448411 0.107976 -0.035133
C12   C     C_3   0.049283 0.795192 0.214113 0.300623
C13   C     C_R   0.876710 0.394004 0.074333 -0.047212
C14   C     C_R   0.807960 0.388665 0.983642 -0.107355
C15   C     C_R   0.107773 0.461428 0.201994 0.031117
C16   C     C_R   0.270985 0.515173 0.229447 -0.302088
C17   C     C_R   0.087705 0.529850 0.797359 -0.001508
C18   C     C_R   0.159920 0.534183 0.889957 0.003901
C19   C     C_R   0.065554 0.485694 0.951778 0.036513
C20   C     C_R   0.322841 0.585699 0.923379 -0.006083
C21   C     C_R   0.393175 0.590089 0.013339 -0.080680
C22   C     C_R   0.301470 0.545685 0.075810 -0.018472
C23   C     C_3   0.009438 0.839498 0.126357 -0.167208
C24   C     C_R   0.135516 0.492855 0.045237 0.042650
C25   C     C_R   0.369379 0.554746 0.168278 -0.011706
C26   C     C_R   0.925219 0.474147 0.769568 -0.275668
C27   C     C_R   0.773157 0.181146 0.536672 -0.282879
C28   C     C_R   0.422764 0.809504 0.465732 -0.246443
C29   C     C_R   0.390511 0.987127 0.434043 -0.061869
C30   C     C_R   0.325995 0.879161 0.429020 0.035267
C31   C     C_R   0.580849 0.848541 0.515033 0.082869
C32   C     C_R   0.647785 0.960127 0.523707 -0.055987
C33   C     C_R   0.550860 0.029551 0.481178 -0.052009
C34   C     C_3   0.159383 0.803260 0.733114 0.164829
C35   C     C_R   0.615371 0.140182 0.488514 0.041255
C36   C     C_R   0.872798 0.113588 0.573886 -0.016415
C37   C     C_R   0.808752 0.004606 0.571276 -0.090964
C38   C     C_3   0.111142 0.824948 0.828577 -0.030354
C39   C     C_3   0.928152 0.221770 0.349997 0.282230
C40   C     C_3   0.884063 0.100091 0.328450 -0.388759
C41   C     C_3   0.732690 0.684983 0.728900 0.357071
C42   C     C_3   0.691731 0.704773 0.823463 -0.368989
H1    H     H_    0.660161 0.863046 0.299438 0.057252
H2    H     H_    0.081597 0.747258 0.853477 0.112230
H3    H     H_    0.995516 0.860352 0.820682 0.057037
H4    H     H_    0.826509 0.254260 0.379018 0.010136
H5    H     H_    0.044062 0.242168 0.399618 0.079752
H6    H     H_    0.756570 0.077174 0.289748 0.100155
H7    H     H_    0.889134 0.063288 0.391259 0.095076
H8    H     H_    0.974056 0.068727 0.287890 0.161544
H9    H     H_    0.855830 0.660737 0.731853 -0.112279
H10   H     H_    0.640674 0.615692 0.693363 0.107209
H11   H     H_    0.454453 0.967036 0.230922 0.092127
H12   H     H_    0.788391 0.764111 0.868862 0.107986
H13   H     H_    0.677451 0.627997 0.851243 0.084329
H14   H     H_    0.573192 0.735589 0.820128 0.135536
H15   H     H_    0.453561 0.784898 0.269874 -0.066694
H16   H     H_    0.406700 0.867948 0.130648 0.141788
H17   H     H_    0.304090 0.299736 0.290265 -0.029487
H18   H     H_    0.520587 0.349177 0.283143 0.057103
H19   H     H_    0.279884 0.173210 0.150886 0.085378
H20   H     H_    0.352292 0.309065 0.132486 0.025082
H21   H     H_    0.611548 0.948937 0.159556 0.116961
H22   H     H_    0.113631 0.902882 0.118797 0.050609
H23   H     H_    0.206379 0.306551 0.787634 0.093068
H24   H     H_    0.988686 0.248635 0.779936 -0.081830
H25   H     H_    0.276966 0.180856 0.895930 0.155386
H26   H     H_    0.152918 0.276468 0.938022 0.061721
H27   H     H_    0.060252 0.137602 0.897331 0.096449
H28   H     H_    0.718820 0.205865 0.720378 -0.085564
H29   H     H_    0.518245 0.122890 0.698822 0.122804
H30   H     H_    0.781417 0.137883 0.867098 0.090662
H31   H     H_    0.740182 0.031740 0.771243 0.087179
H32   H     H_    0.955988 0.722914 0.215999 0.113399
H33   H     H_    0.584611 0.050061 0.843531 0.153350
H34   H     H_    0.799451 0.356528 0.117906 0.132361
H35   H     H_    0.680817 0.350266 0.962731 0.102919
H36   H     H_    0.519610 0.631240 0.033436 0.148492
H37   H     H_    0.398284 0.624110 0.880388 0.089406
H38   H     H_    0.324311 0.523993 0.299959 0.070049
H39   H     H_    0.869902 0.468934 0.699709 0.066424
H40   H     H_    0.310723 0.037054 0.403145 0.099185
H41   H     H_    0.887302 0.956121 0.605062 0.109987
H42   H     H_    0.822695 0.265749 0.540827 0.059031
H43   H     H_    0.175412 0.772634 0.218104 -0.067223
H44   H     H_    0.369657 0.725436 0.461166 0.064003
H45   H     H_    0.894271 0.875754 0.125720 0.092668
H46   H     H_    0.045189 0.767933 0.685608 -0.003598
O1    O     O_2   0.827880 0.435260 0.277750 -0.461608
O2    O     O_3   0.731969 0.779983 0.689508 -0.650027
O3    O     O_3   0.041879 0.874795 0.284575 -0.629354
O4    O     O_2   0.361830 0.564780 0.722310 -0.460971
O5    O     O_3   0.089430 0.561130 0.608830 -0.482780
O6    O     O_3   0.564130 0.365960 0.666760 -0.472217
O7    O     O_3   0.277071 0.734476 0.728936 -0.649623
O8    O     O_3   0.601940 0.368240 0.453770 -0.482059
O9    O     O_3   0.133170 0.309040 0.621000 -0.501122
O10   O     O_2   0.214075 0.119411 0.569018 -0.429443
O11   O     O_3   0.142394 0.146131 0.732040 -0.553656
O12   O     O_3   0.100280 0.438960 0.391170 -0.497082
O13   O     O_3   0.587780 0.631850 0.546230 -0.495675
O14   O     O_2   0.332590 0.233690 0.456160 -0.473811
O15   O     O_3   0.467180 0.192544 0.310901 -0.665161
O16   O     O_2   0.485699 0.438186 0.824217 -0.508676
O17   O     O_3   0.545145 0.242356 0.807146 -0.593515
O18   O     O_3   0.625580 0.634130 0.333250 -0.487855
O19   O     O_2   0.715044 0.560132 0.177373 -0.466728
O20   O     O_3   0.949843 0.263133 0.270093 -0.639367
O21   O     O_3   0.631330 0.750054 0.186242 -0.582493
O22   O     O_2   0.857130 0.766340 0.543890 -0.476762
O23   O     O_3   0.056550 0.691050 0.379010 -0.495321
O24   O     O_2   0.997628 0.882499 0.449080 -0.454292
P1    P     P_3+3 0.998730 0.403530 0.291970 0.973914
P2    P     P_3+3 0.687380 0.751030 0.571310 0.980354
P3    P     P_3+3 0.105669 0.830794 0.386047 0.963471
P4    P     P_3+3 0.190990 0.596560 0.708040 0.967246
P5    P     P_3+3 0.090027 0.170793 0.621780 1.008828
P6    P     P_3+3 0.584874 0.621241 0.215663 0.970666
P7    P     P_3+3 0.508253 0.232686 0.427046 0.931475
P8    P     P_3+3 0.607629 0.372158 0.783476 0.936119
N1    N     N_2   0.231686 0.899042 0.895886 -0.399591
H47   H     H_    0.225199 0.979503 0.897230 0.224578
C43   C     C_3   0.396291 0.874224 0.919390 -0.133100
H48   H     H_    0.465201 0.878772 0.861659 0.118906
H49   H     H_    0.388172 0.794422 0.941173 0.131587
H50   H     H_    0.466431 0.933118 0.976920 0.072755
N2    N     N_2   0.533482 0.207645 0.136677 -0.412700
H51   H     H_    0.582224 0.151792 0.171628 0.236483
C44   C     C_3   0.516511 0.177037 0.040670 -0.267786
H52   H     H_    0.636317 0.157812 0.022351 0.112638
H53   H     H_    0.483145 0.244533 0.006356 0.130968
H54   H     H_    0.417574 0.105628 0.018688 0.109989
C45   C     C_2   0.982868 0.749718 0.050934 0.797137
O25   O     O_2   0.098250 0.731953 0.011699 -0.652598
O26   O     O_R   0.828911 0.682133 0.030558 -0.753112
H55   H     H_    0.828568 0.619221 0.983107 0.299685
C46   C     C_2   0.229154 0.903066 0.697574 0.887146
O27   O     O_2   0.295009 0.984771 0.747702 -0.592680
O28   O     O_R   0.231152 0.899744 0.605920 -0.730891
H56   H     H_    0.187981 0.824517 0.573101 0.264250

loop_
_geom_bond_atom_site_label_1
_geom_bond_atom_site_label_2
_ccdc_geom_bond_type
C38   H3    S    
C19   C24   A    
Ba2   O4    S    
O8    P7    S    
C46   O28   S    
C39   C40   S    
O18   P6    S    
C17   C18   A    
C22   C25   A    
C30   P3    S    
C44   H54   S    
Ba2   P4    S    
C45   O25   D    
C3    O15   S    
C25   P6    S    
C38   H2    S    
C6    H25   S    
O3    P3    S    
C9    C26   A    
Ba2   O5    S    
C33   C35   A    
C22   C24   A    
C12   H43   S    
C32   C33   A    
Ba1   O22   S    
C36   C37   A    
N1    C43   S    
C13   H34   S    
Ba2   O12   S    
C13   C14   A    
Ba1   Ba2   S    
C4    H20   S    
O7    P4    S    
C34   C38   S    
O12   P1    S    
C5    H24   S    
C1    H11   S    
C41   H9    S    
C10   C14   A    
C17   P4    S    
C42   H14   S    
C6    H27   S    
C27   C36   A    
C43   H50   S    
C21   C22   A    
C7    H28   S    
C34   O7    S    
Ba1   P2    S    
C21   H36   S    
C7    C8    S    
Ba1   O13   S    
C12   O3    S    
C40   H7    S    
N1    H47   S    
C1    H16   S    
Ba1   O1    S    
O4    P4    D    
C26   H39   S    
C1    H21   S    
Ba1   O23   S    
C4    N2    S    
C39   H5    S    
C8    H33   S    
C31   C32   A    
C2    H1    S    
O5    P4    S    
C46   O27   D    
C16   C25   A    
O15   P7    S    
C32   C37   A    
O11   P5    S    
C20   H37   S    
C5    C6    S    
O14   P7    D    
O9    P5    S    
C10   C19   A    
C29   H40   S    
O21   P6    S    
C12   H32   S    
C4    H19   S    
C41   C42   S    
C8    H31   S    
C42   H12   S    
C41   H10   S    
C29   C30   A    
Ba2   O14   S    
C42   H13   S    
Ba1   O5    S    
O16   P8    D    
C15   C16   A    
C3    H17   S    
O10   P5    D    
C17   C26   A    
O2    P2    S    
C27   H42   S    
C40   H6    S    
C35   P7    S    
C36   P5    S    
C2    O21   S    
C18   C20   A    
Ba2   O9    S    
C39   O20   S    
C11   C13   A    
C43   H48   S    
O23   P3    S    
C11   C24   A    
C9    P8    S    
C37   H41   S    
C28   H44   S    
C44   H52   S    
O22   P2    D    
C15   P1    S    
N2    H51   S    
C34   H46   S    
C45   O26   S    
C38   N1    S    
C31   P2    S    
C28   C31   A    
C23   H45   S    
C7    H29   S    
C23   H22   S    
C44   H53   S    
Ba1   O8    S    
C9    C10   A    
C11   C15   A    
C7    O17   S    
O26   H55   S    
C6    H26   S    
C41   O2    S    
O6    P8    S    
C14   H35   S    
Ba2   O6    S    
O13   P2    S    
O28   H56   S    
C28   C30   A    
C8    H30   S    
C3    C4    S    
Ba2   O13   S    
Ba1   O12   S    
C2    H15   S    
C16   H38   S    
C39   H4    S    
O1    P1    D    
C3    H18   S    
C29   C33   A    
C12   C23   S    
C23   C45   S    
C34   C46   S    
O24   P3    D    
Ba1   O18   S    
C5    H23   S    
C18   C19   A    
Ba2   O8    S    
C5    O11   S    
C27   C35   A    
C43   H49   S    
C20   C21   A    
Ba1   P1    S    
O17   P8    S    
O20   P1    S    
C1    C2    S    
O19   P6    D    
C40   H8    S    
N2    C44   S    
