data_mof_unit_31741.cif
_audit_creation_date              2012-12-10T16:54:07-0500
_audit_creation_method            fapswitch 2.2
_symmetry_space_group_name_H-M    P1
_symmetry_Int_Tables_number       1
_space_group_crystal_system       triclinic
_cell_length_a                    9.985279
_cell_length_b                    10.84431
_cell_length_c                    13.510516
_cell_angle_alpha                 93.568097
_cell_angle_beta                  72.499673
_cell_angle_gamma                 85.814603
_cell_volume                      1386.07089613

loop_
_atom_site_label
_atom_site_type_symbol
_atom_type_description
_atom_site_fract_x
_atom_site_fract_y
_atom_site_fract_z
_atom_type_partial_charge
C1    C     C_R   0.499183 0.732971 0.490645 0.709302
C2    C     C_R   0.460277 0.533152 0.972008 0.058486
C3    C     C_R   0.482326 0.480185 0.869176 -0.007638
C4    C     C_R   0.560793 0.502084 0.025107 -0.004554
C5    C     C_R   0.685127 0.421718 0.973158 -0.106728
C6    C     C_R   0.706482 0.369935 0.870441 0.413740
C7    C     C_R   0.602833 0.396194 0.821916 -0.279019
C8    C     C_R   0.535240 0.539724 0.131900 -0.235211
C9    C     C_R   0.766014 0.452455 0.126167 -0.131795
C10   C     C_R   0.381053 0.509381 0.816378 -0.159708
C11   C     C_2   0.613389 0.055755 0.429670 -0.161150
C12   C     C_R   0.423657 0.498427 0.699882 0.794032
C13   C     C_2   0.513415 0.130933 0.501748 -0.290381
C14   C     C_2   0.616175 0.917972 0.425920 -0.069526
C15   C     C_2   0.495823 0.862760 0.464370 0.205379
C16   C     C_2   0.049988 0.586843 0.544046 0.109218
C17   C     C_2   0.896109 0.579870 0.553716 0.140277
C18   C     C_R   0.504744 0.265172 0.499061 0.772523
C19   C     C_R   0.577745 0.504502 0.300597 0.740355
C20   C     C_R   0.785570 0.394253 0.026411 0.504435
C21   C     C_R   0.629402 0.503625 0.184951 -0.213365
C22   C     C_R   0.245501 0.565938 0.874663 0.366183
C23   C     C_R   0.222547 0.616430 0.978159 -0.019102
C24   C     C_R   0.334313 0.610483 0.020499 -0.255068
Cu1   Cu    Cu3+1 0.361370 0.499980 0.499980 0.971571
Cu2   Cu    Cu3+1 0.638630 0.500020 0.500020 0.938106
H1    H     H_    0.431478 0.094315 0.561875 0.199404
H2    H     H_    0.075351 0.671027 0.578977 0.038598
H3    H     H_    0.821025 0.644371 0.612291 0.065510
H4    H     H_    0.440550 0.593721 0.178039 0.153375
H5    H     H_    0.314744 0.659192 0.095886 0.186444
H6    H     H_    0.616697 0.348103 0.746756 0.157121
H7    H     H_    0.694013 0.096584 0.371540 0.156151
N1    N     N_2   0.152660 0.501340 0.501130 0.016948
N2    N     N_2   0.846520 0.501370 0.501160 0.014318
O1    O     O_R   0.382960 0.678040 0.499980 -0.579070
O2    O     O_R   0.617100 0.678080 0.500020 -0.597996
O3    O     O_R   0.325800 0.499940 0.650950 -0.527738
O4    O     O_R   0.559930 0.499980 0.650990 -0.593082
O5    O     O_R   0.382900 0.321920 0.499980 -0.559657
O6    O     O_R   0.617040 0.321960 0.500020 -0.616514
O7    O     O_R   0.440070 0.500020 0.349010 -0.607660
O8    O     O_R   0.674200 0.500060 0.349050 -0.610250
C25   C     C_2   0.889856 0.465187 0.164438 0.339640
H8    H     H_    0.884900 0.534729 0.226782 0.143188
O9    O     O_2   0.002967 0.404959 0.121954 -0.547706
C26   C     C_2   0.746871 0.840097 0.363024 0.342730
H9    H     H_    0.739665 0.749846 0.326506 0.093032
O10   O     O_2   0.863398 0.874945 0.350158 -0.550875
O11   O     O_3   0.365951 0.924833 0.471825 -0.614254
C27   C     C_3   0.329072 0.893192 0.380406 0.105187
H10   H     H_    0.212164 0.901146 0.402437 0.184055
H11   H     H_    0.364968 0.795361 0.346957 0.128231
C28   C     C_3   0.385630 0.981857 0.296631 -0.406520
H12   H     H_    0.351810 0.079194 0.330201 0.219175
H13   H     H_    0.502671 0.969565 0.269287 0.217910
C29   C     C_3   0.333687 0.957211 0.202568 -0.889851
H14   H     H_    0.372959 0.861880 0.165336 0.258256
H15   H     H_    0.374263 0.024534 0.144656 0.250006
H16   H     H_    0.216660 0.967587 0.226054 0.287261
O12   O     O_3   0.123577 0.392085 0.464237 -0.495228
C30   C     C_3   0.218183 0.349541 0.362754 0.289210
H17   H     H_    0.188770 0.257274 0.344575 0.097087
H18   H     H_    0.327364 0.324764 0.357920 0.154776
C31   C     C_3   0.215064 0.424945 0.269826 -0.351011
H19   H     H_    0.110600 0.451575 0.263739 0.271616
H20   H     H_    0.258323 0.514507 0.275134 0.221363
C32   C     C_3   0.294555 0.346033 0.168207 -0.887266
H21   H     H_    0.246083 0.257613 0.163912 0.255807
H22   H     H_    0.406884 0.323719 0.162903 0.246310
H23   H     H_    0.287094 0.394944 0.100622 0.303709
O13   O     O_3   0.932718 0.451773 0.408692 -0.516975
C33   C     C_3   0.901199 0.328807 0.384122 0.285513
H24   H     H_    0.980044 0.295030 0.308576 0.110869
H25   H     H_    0.806406 0.325989 0.360027 0.140505
C34   C     C_3   0.909252 0.230473 0.462286 -0.406773
H26   H     H_    0.967450 0.256151 0.516384 0.264109
H27   H     H_    0.805415 0.216737 0.515156 0.222151
C35   C     C_3   0.971493 0.103124 0.406215 -0.898635
H28   H     H_    0.944741 0.087917 0.332712 0.279871
H29   H     H_    0.929771 0.030415 0.457784 0.298864
H30   H     H_    0.087157 0.092448 0.388274 0.249815
O14   O     O_3   0.836535 0.305948 0.815488 -0.565668
C36   C     C_3   0.824895 0.196283 0.757356 0.060604
H31   H     H_    0.823926 0.220217 0.679368 0.152997
H32   H     H_    0.726770 0.152021 0.794557 0.099712
C37   C     C_3   0.952326 0.102290 0.747590 -0.316543
H33   H     H_    0.042652 0.151152 0.756670 0.263289
H34   H     H_    0.922472 0.038954 0.810183 0.173447
C38   C     C_3   0.002060 0.022577 0.644221 -0.907028
H35   H     H_    0.911440 0.982759 0.626860 0.249408
H36   H     H_    0.079150 0.945305 0.648207 0.264706
H37   H     H_    0.056581 0.078990 0.581439 0.287022
O15   O     O_3   0.905005 0.312385 0.982097 -0.509431
C39   C     C_3   0.872435 0.188978 0.000514 0.143165
H38   H     H_    0.963347 0.127164 0.949488 0.157806
H39   H     H_    0.776956 0.166977 0.978960 0.111971
C40   C     C_3   0.856763 0.156971 0.112298 -0.417882
H40   H     H_    0.953725 0.175367 0.132582 0.258873
H41   H     H_    0.764840 0.213209 0.168489 0.193730
C41   C     C_3   0.834079 0.020077 0.122138 -0.912204
H42   H     H_    0.735194 0.999517 0.105502 0.246403
H43   H     H_    0.825574 0.997959 0.202334 0.288711
H44   H     H_    0.924418 0.960240 0.067469 0.274855
O16   O     O_3   0.133145 0.551083 0.836086 -0.563323
C42   C     C_3   0.074696 0.665421 0.814792 0.043451
H45   H     H_    0.130779 0.684297 0.733790 0.160928
H46   H     H_    0.083351 0.746624 0.866357 0.097651
C43   C     C_3   0.918882 0.653304 0.826286 -0.284911
H47   H     H_    0.910758 0.579869 0.767870 0.234926
H48   H     H_    0.864963 0.624395 0.904642 0.222221
C44   C     C_3   0.842266 0.774593 0.812739 -0.984813
H49   H     H_    0.843663 0.847196 0.874011 0.258927
H50   H     H_    0.730786 0.760509 0.819949 0.267137
H51   H     H_    0.892845 0.805243 0.734627 0.259186
C45   C     C_2   0.081023 0.671182 0.045379 0.371243
H52   H     H_    0.987446 0.655743 0.023708 0.092228
O17   O     O_2   0.066626 0.733134 0.127217 -0.554206

loop_
_geom_bond_atom_site_label_1
_geom_bond_atom_site_label_2
_ccdc_geom_bond_type
C16   H2    S    
C37   H33   S    
C41   H42   S    
C17   H3    S    
C33   H24   S    
C39   H38   S    
C34   C35   S    
C4    C8    A    
C44   H50   S    
C29   H14   S    
C39   C40   S    
C26   O10   D    
C5    C20   A    
C10   C22   A    
C13   C18   S    
C19   C21   S    
C34   H27   S    
C3    C7    A    
C43   H48   S    
Cu1   O5    S    
C5    C6    A    
C11   C14   S    
Cu2   O4    S    
C29   H15   S    
C42   H45   S    
C45   H52   S    
C15   O11   S    
C18   O5    A    
C30   H18   S    
C16   N1    D    
C23   C45   S    
O14   C36   S    
C25   O9    D    
C16   C17   S    
C31   H20   S    
C23   C24   A    
C36   C37   S    
C1    C15   S    
C19   O7    A    
C1    O2    A    
Cu1   N1    S    
C41   H43   S    
C33   H25   S    
O15   C39   S    
C44   H49   S    
C19   O8    A    
Cu2   O8    S    
C8    C21   A    
C7    H6    S    
C28   H13   S    
C27   H10   S    
C11   H7    S    
C34   H26   S    
C43   C44   S    
C35   H29   S    
C32   H21   S    
C29   H16   S    
Cu1   Cu2   S    
N1    O12   S    
C27   H11   S    
C2    C4    A    
C30   H17   S    
Cu1   O3    S    
C9    C20   A    
C38   H36   S    
C26   H9    S    
C31   C32   S    
O11   C27   S    
C36   H31   S    
C14   C26   S    
C10   C12   S    
N2    O13   S    
C40   H40   S    
C41   H44   S    
C40   H41   S    
C37   H34   S    
C2    C24   A    
C33   C34   S    
C18   O6    A    
C22   O16   S    
C25   H8    S    
C38   H37   S    
C20   O15   S    
C28   H12   S    
C9    C25   S    
C6    O14   S    
C30   C31   S    
C14   C15   D    
C36   H32   S    
O13   C33   S    
Cu1   O7    S    
C35   H30   S    
C39   H39   S    
Cu2   O2    S    
C6    C7    A    
C40   C41   S    
O16   C42   S    
C27   C28   S    
C8    H4    S    
C12   O4    A    
C2    C3    A    
C24   H5    S    
C3    C10   A    
C43   H47   S    
C11   C13   D    
C9    C21   A    
C38   H35   S    
C42   H46   S    
C32   H23   S    
C45   O17   D    
C12   O3    A    
O12   C30   S    
Cu1   O1    S    
C35   H28   S    
Cu2   N2    S    
C4    C5    A    
C1    O1    A    
C32   H22   S    
C31   H19   S    
C37   C38   S    
C22   C23   A    
C13   H1    S    
C17   N2    D    
C28   C29   S    
C44   H51   S    
Cu2   O6    S    
C42   C43   S    
