data_mof_unit_48030.cif
_audit_creation_date              2012-12-10T18:58:39-0500
_audit_creation_method            fapswitch 2.2
_symmetry_space_group_name_H-M    P1
_symmetry_Int_Tables_number       1
_space_group_crystal_system       triclinic
_cell_length_a                    10.636036
_cell_length_b                    9.840594
_cell_length_c                    17.611758
_cell_angle_alpha                 90.15368
_cell_angle_beta                  90.053911
_cell_angle_gamma                 90.019105
_cell_volume                      1843.32555126

loop_
_atom_site_label
_atom_site_type_symbol
_atom_type_description
_atom_site_fract_x
_atom_site_fract_y
_atom_site_fract_z
_atom_type_partial_charge
C1    C     C_R   0.260544 0.499946 0.499899 0.922804
C2    C     C_R   0.739481 0.499981 0.500110 0.921321
C3    C     C_1   0.511052 0.500320 0.966344 -0.074511
C4    C     C_1   0.510725 0.500119 0.033659 -0.074213
C5    C     C_R   0.065957 0.501962 0.570684 0.104676
C6    C     C_R   0.934150 0.498069 0.429329 0.105077
C7    C     C_R   0.934566 0.500384 0.570750 0.103536
C8    C     C_R   0.065542 0.496437 0.429281 0.103097
C9    C     C_R   0.500038 0.499808 0.353601 0.886539
C10   C     C_R   0.500301 0.500193 0.646396 0.886561
C11   C     C_R   0.872030 0.499758 0.500066 -0.146826
C12   C     C_R   0.128036 0.499672 0.499949 -0.146735
C13   C     C_R   0.530588 0.623924 0.847177 0.154153
C14   C     C_R   0.529433 0.376223 0.152785 0.154664
C15   C     C_R   0.483998 0.621938 0.153060 0.188717
C16   C     C_R   0.485187 0.378167 0.846954 0.188739
C17   C     C_R   0.525268 0.622074 0.767927 -0.213057
C18   C     C_R   0.524237 0.377972 0.232031 -0.218161
C19   C     C_R   0.482591 0.620540 0.231883 -0.263269
C20   C     C_R   0.483682 0.379468 0.768134 -0.268186
C21   C     C_R   0.502697 0.500662 0.728761 -0.109112
C22   C     C_R   0.501914 0.499358 0.271230 -0.109067
C23   C     C_R   0.560908 0.072250 0.555691 -0.073695
C24   C     C_R   0.439161 0.927810 0.444283 -0.069021
C25   C     C_R   0.439073 0.071678 0.444315 -0.075133
C26   C     C_R   0.560770 0.928391 0.555742 -0.070074
C27   C     C_R   0.509093 0.500758 0.886025 0.056550
C28   C     C_R   0.508095 0.499463 0.113969 0.057087
H1    H     H_    0.540037 0.714204 0.735932 0.177722
H2    H     H_    0.538981 0.285800 0.263999 0.180514
H3    H     H_    0.464310 0.714079 0.262586 0.161174
H4    H     H_    0.465479 0.285851 0.737456 0.164522
H5    H     H_    0.609713 0.126944 0.600196 0.125256
H6    H     H_    0.390564 0.873230 0.399694 0.117677
H7    H     H_    0.390263 0.125928 0.399817 0.124497
H8    H     H_    0.609205 0.874302 0.600393 0.117113
N1    N     N_R   0.500000 0.857200 0.500000 -0.078538
N2    N     N_R   0.500000 0.142800 0.500000 -0.081184
O1    O     O_R   0.316770 0.614620 0.500000 -0.620985
O2    O     O_R   0.683230 0.385380 0.500000 -0.622736
O3    O     O_R   0.683230 0.614620 0.500000 -0.620313
O4    O     O_R   0.316770 0.385380 0.500000 -0.623042
O5    O     O_R   0.500010 0.614710 0.389120 -0.627904
O6    O     O_R   0.499990 0.385290 0.610880 -0.629973
O7    O     O_R   0.499990 0.614710 0.610880 -0.632027
O8    O     O_R   0.500010 0.385290 0.389120 -0.634110
Zn1   Zn    Zn3+2 0.500000 0.653120 0.500000 0.932222
Zn2   Zn    Zn3+2 0.500000 0.346880 0.500000 0.927287
C29   C     C_3   0.558029 0.753938 0.891731 -0.386006
C30   C     C_3   0.592640 0.878839 0.844661 -0.932822
H9    H     H_    0.676216 0.857568 0.808763 0.262035
H10   H     H_    0.512087 0.910438 0.808632 0.257854
H11   H     H_    0.616271 0.964241 0.883463 0.253003
H12   H     H_    0.474221 0.779511 0.926555 0.218856
H13   H     H_    0.637815 0.734268 0.931014 0.206370
C31   C     C_3   0.556692 0.246269 0.108187 -0.390456
C32   C     C_3   0.590574 0.121077 0.155213 -0.925227
H14   H     H_    0.674196 0.141820 0.191268 0.264577
H15   H     H_    0.509785 0.089806 0.191065 0.255559
H16   H     H_    0.613861 0.035672 0.116375 0.252346
H17   H     H_    0.472970 0.221077 0.073097 0.218897
H18   H     H_    0.636749 0.265811 0.069169 0.206749
C33   C     C_3   0.460574 0.755134 0.112413 -0.419711
C34   C     C_3   0.327320 0.761832 0.080368 -0.867820
H19   H     H_    0.311435 0.680374 0.037742 0.263841
H20   H     H_    0.257534 0.751124 0.126871 0.258686
H21   H     H_    0.312766 0.861557 0.052336 0.246950
H22   H     H_    0.472843 0.841997 0.152136 0.204119
H23   H     H_    0.530491 0.769374 0.066339 0.200811
C35   C     C_3   0.461942 0.244961 0.887617 -0.419672
C36   C     C_3   0.328520 0.237756 0.919224 -0.864905
H24   H     H_    0.312098 0.319314 0.961690 0.263043
H25   H     H_    0.258979 0.247950 0.872476 0.259192
H26   H     H_    0.314135 0.138075 0.947330 0.246619
H27   H     H_    0.474746 0.158064 0.847998 0.204393
H28   H     H_    0.531636 0.231121 0.933923 0.200321
C37   C     C_3   0.140717 0.504992 0.645051 -0.399637
C38   C     C_3   0.170937 0.361603 0.672715 -0.872017
H29   H     H_    0.084159 0.299636 0.677608 0.250723
H30   H     H_    0.236334 0.310013 0.633026 0.283000
H31   H     H_    0.216261 0.367305 0.729425 0.251841
H32   H     H_    0.229597 0.562796 0.638768 0.203431
H33   H     H_    0.090327 0.561004 0.690323 0.215847
C39   C     C_3   0.859524 0.497184 0.354928 -0.396425
C40   C     C_3   0.830435 0.352318 0.328781 -0.875590
H34   H     H_    0.917323 0.290133 0.325984 0.251807
H35   H     H_    0.763443 0.302797 0.368192 0.282983
H36   H     H_    0.787450 0.354944 0.271367 0.250997
H37   H     H_    0.770209 0.554423 0.360496 0.201393
H38   H     H_    0.909725 0.551778 0.309181 0.214347
C41   C     C_3   0.860404 0.499846 0.645222 -0.394913
C42   C     C_3   0.831694 0.644191 0.672231 -0.887174
H39   H     H_    0.918720 0.706120 0.675647 0.254302
H40   H     H_    0.765158 0.694472 0.632856 0.272998
H41   H     H_    0.788360 0.640569 0.729479 0.252373
H42   H     H_    0.770949 0.442830 0.639391 0.197108
H43   H     H_    0.910793 0.444312 0.690583 0.213717
C43   C     C_3   0.139849 0.492061 0.354863 -0.397917
C44   C     C_3   0.169910 0.634930 0.326391 -0.883711
H44   H     H_    0.083096 0.696663 0.321011 0.253083
H45   H     H_    0.235116 0.687215 0.365952 0.273366
H46   H     H_    0.215366 0.628291 0.269805 0.252918
H47   H     H_    0.228785 0.434454 0.361393 0.198880
H48   H     H_    0.089190 0.435173 0.309968 0.215038

loop_
_geom_bond_atom_site_label_1
_geom_bond_atom_site_label_2
_ccdc_geom_bond_type
C14   C31   S    
C17   H1    S    
C14   C18   A    
C19   H3    S    
C15   C28   A    
C40   H34   S    
C15   C19   A    
O1    Zn1   S    
C38   H30   S    
C9    C22   S    
C32   H15   S    
C37   H33   S    
C2    O3    A    
C43   H47   S    
C31   C32   S    
C23   C26   A    
C8    C43   S    
C41   H42   S    
C39   C40   S    
C33   H23   S    
C23   H5    S    
C30   H10   S    
C35   C36   S    
C18   H2    S    
N1    Zn1   S    
C29   H12   S    
N2    Zn2   S    
C16   C20   A    
C16   C27   A    
C40   H35   S    
C9    O8    A    
C1    C12   S    
C39   H38   S    
C2    C11   S    
C4    C28   S    
C24   N1    A    
O7    Zn1   S    
C10   C21   S    
O8    Zn2   S    
C9    O5    A    
C30   H11   S    
C6    C39   S    
C10   O6    A    
C34   H21   S    
C19   C22   A    
C16   C35   S    
C24   C25   A    
C5    C12   A    
C41   C42   S    
C36   H25   S    
C38   H29   S    
C32   H16   S    
C6    C8    A    
C29   H13   S    
C42   H41   S    
C24   H6    S    
C34   H20   S    
C7    C11   A    
C25   N2    A    
C44   H44   S    
C8    C12   A    
C7    C41   S    
C10   O7    A    
C42   H40   S    
C30   H9    S    
O3    Zn1   S    
C31   H17   S    
O4    Zn2   S    
C41   H43   S    
C25   H7    S    
C13   C29   S    
C26   H8    S    
C44   H45   S    
C43   C44   S    
C35   H28   S    
C31   H18   S    
C39   H37   S    
C5    C37   S    
C3    C4    T    
C6    C11   A    
C5    C7    A    
C20   H4    S    
C40   H36   S    
O2    Zn2   S    
C33   H22   S    
C18   C22   A    
C36   H26   S    
C26   N1    A    
C23   N2    A    
C13   C17   A    
C34   H19   S    
C3    C27   S    
C36   H24   S    
C38   H31   S    
C32   H14   S    
C37   H32   S    
C43   H48   S    
C42   H39   S    
C17   C21   A    
C1    O1    A    
C33   C34   S    
C2    O2    A    
C1    O4    A    
C44   H46   S    
C20   C21   A    
C29   C30   S    
C35   H27   S    
C15   C33   S    
C37   C38   S    
C13   C27   A    
C14   C28   A    
O5    Zn1   S    
O6    Zn2   S    
