data_mof_unit_62482.cif
_audit_creation_date              2012-12-10T19:53:47-0500
_audit_creation_method            fapswitch 2.2
_symmetry_space_group_name_H-M    P1
_symmetry_Int_Tables_number       1
_space_group_crystal_system       triclinic
_cell_length_a                    14.99726
_cell_length_b                    14.175411
_cell_length_c                    10.520421
_cell_angle_alpha                 89.004516
_cell_angle_beta                  89.942365
_cell_angle_gamma                 89.975042
_cell_volume                      2236.22185745

loop_
_atom_site_label
_atom_site_type_symbol
_atom_type_description
_atom_site_fract_x
_atom_site_fract_y
_atom_site_fract_z
_atom_type_partial_charge
C1    C     C_R   0.327785 0.500005 0.499072 0.876889
C2    C     C_R   0.449583 0.796586 0.413908 0.053291
C3    C     C_R   0.499781 0.053301 0.500454 0.138319
C4    C     C_R   0.499729 0.946528 0.500478 0.124390
C5    C     C_R   0.500797 0.500960 0.257259 0.947133
C6    C     C_R   0.499419 0.499015 0.742702 0.949129
C7    C     C_3   0.509719 0.589898 0.035122 0.203683
C8    C     C_3   0.490772 0.409824 0.964626 0.206767
C9    C     C_3   0.577266 0.534655 0.955226 0.150147
C10   C     C_3   0.423181 0.465019 0.044601 0.145532
C11   C     C_3   0.431742 0.552086 0.955177 -0.293793
C12   C     C_R   0.672253 0.499993 0.499252 0.880000
C13   C     C_3   0.568717 0.447636 0.044686 -0.285534
C14   C     C_3   0.499752 0.496851 0.877352 -0.157008
C15   C     C_3   0.500706 0.502951 0.122530 -0.155464
C16   C     C_R   0.095303 0.578521 0.438413 -0.160754
C17   C     C_R   0.904868 0.421464 0.442168 -0.159332
C18   C     C_R   0.907012 0.579744 0.528119 -0.158657
C19   C     C_R   0.093169 0.419959 0.530926 -0.156393
C20   C     C_R   0.187257 0.579042 0.444699 -0.165672
C21   C     C_R   0.812925 0.420960 0.448632 -0.188962
C22   C     C_R   0.815038 0.579730 0.533093 -0.146114
C23   C     C_R   0.424929 0.105826 0.459438 -0.252520
C24   C     C_R   0.185125 0.420023 0.535810 -0.169388
C25   C     C_R   0.232072 0.499890 0.493784 -0.016134
C26   C     C_R   0.768045 0.500058 0.494268 -0.019657
C27   C     C_R   0.048224 0.499304 0.482574 0.110964
C28   C     C_R   0.951948 0.500567 0.482811 0.108197
C29   C     C_R   0.550343 0.893412 0.589224 -0.252846
C30   C     C_R   0.574718 0.104616 0.541332 -0.249061
C31   C     C_R   0.448990 0.895806 0.411827 -0.247065
C32   C     C_R   0.426601 0.205025 0.459411 0.054305
C33   C     C_R   0.549815 0.794235 0.586955 0.041861
C34   C     C_R   0.573266 0.203828 0.540899 0.045521
H1    H     H_    0.375706 0.594135 0.914856 0.188641
H2    H     H_    0.219341 0.358565 0.574322 0.159571
H3    H     H_    0.364673 0.070926 0.429066 0.139907
H4    H     H_    0.589280 0.927797 0.661455 0.153022
H5    H     H_    0.634883 0.068793 0.571904 0.139320
H6    H     H_    0.409835 0.932107 0.339860 0.150358
H7    H     H_    0.368683 0.244034 0.427133 0.144359
H8    H     H_    0.589045 0.754459 0.655510 0.154685
H9    H     H_    0.631228 0.241894 0.573118 0.135844
H10   H     H_    0.409847 0.758632 0.345968 0.143303
H11   H     H_    0.624756 0.405614 0.085055 0.186468
H12   H     H_    0.060927 0.639678 0.399359 0.139408
H13   H     H_    0.939232 0.360394 0.405594 0.141141
H14   H     H_    0.943060 0.640642 0.561712 0.140660
H15   H     H_    0.057136 0.358931 0.567094 0.139460
H16   H     H_    0.223227 0.640622 0.410139 0.154738
H17   H     H_    0.777038 0.359414 0.416773 0.154741
H18   H     H_    0.780857 0.641121 0.569083 0.168263
I1    I     I_    0.523780 0.735340 0.082338 -0.334052
I2    I     I_    0.478088 0.264811 0.913685 -0.303593
I3    I     I_    0.701105 0.585366 0.879510 -0.364586
I4    I     I_    0.299507 0.414213 0.120892 -0.344513
N1    N     N_R   0.500000 0.252470 0.500000 -0.097199
N2    N     N_R   0.500000 0.747530 0.500000 -0.101553
O1    O     O_R   0.369060 0.579480 0.500010 -0.633022
O2    O     O_R   0.630940 0.420520 0.499990 -0.640866
O3    O     O_R   0.630940 0.579480 0.499990 -0.617344
O4    O     O_R   0.369060 0.420520 0.500010 -0.627155
O5    O     O_R   0.499980 0.579460 0.313950 -0.607820
O6    O     O_R   0.500020 0.420540 0.686050 -0.598050
O7    O     O_R   0.500020 0.579460 0.686050 -0.616463
O8    O     O_R   0.499980 0.420540 0.313950 -0.606295
Zn1   Zn    Zn3+2 0.500000 0.606140 0.500000 0.976585
Zn2   Zn    Zn3+2 0.500000 0.393860 0.500000 0.980263

loop_
_geom_bond_atom_site_label_1
_geom_bond_atom_site_label_2
_ccdc_geom_bond_type
C29   H4    S    
C2    H10   S    
C3    C30   A    
O8    Zn2   S    
C21   C26   A    
C2    N2    A    
C8    C13   S    
C9    I3    S    
C23   H3    S    
C6    C14   S    
C5    O5    A    
C19   C27   A    
O3    Zn1   S    
C8    I2    S    
C3    C23   A    
C4    C29   A    
C13   C15   S    
O4    Zn2   S    
C32   H7    S    
C30   C34   A    
C10   C11   S    
C23   C32   A    
C16   C27   A    
C11   H1    S    
C19   C24   A    
C24   H2    S    
C24   C25   A    
C1    C25   S    
C12   O3    A    
O2    Zn2   S    
C33   N2    A    
C32   N1    A    
C34   N1    A    
C33   H8    S    
O6    Zn2   S    
C7    C15   S    
C16   C20   A    
C6    O7    A    
C30   H5    S    
C7    C11   S    
C10   C15   S    
C1    O1    A    
C11   C14   S    
O5    Zn1   S    
C19   H15   S    
C5    C15   S    
C4    C31   A    
C20   C25   A    
C7    I1    S    
N1    Zn2   S    
C16   H12   S    
C3    C4    S    
C12   O2    A    
C29   C33   A    
N2    Zn1   S    
C21   H17   S    
C18   C28   A    
C31   H6    S    
C13   H11   S    
C1    O4    A    
C22   H18   S    
C10   I4    S    
C22   C26   A    
C6    O6    A    
C27   C28   S    
C7    C9    S    
C9    C14   S    
C9    C13   S    
C5    O8    A    
C20   H16   S    
C8    C14   S    
O1    Zn1   S    
C18   C22   A    
C17   C28   A    
C8    C10   S    
C17   C21   A    
C34   H9    S    
C17   H13   S    
C12   C26   S    
C2    C31   A    
O7    Zn1   S    
C18   H14   S    
