data_mof_unit_60411.cif
_audit_creation_date              2012-12-10T20:44:23-0500
_audit_creation_method            fapswitch 2.2
_symmetry_space_group_name_H-M    P1
_symmetry_Int_Tables_number       1
_space_group_crystal_system       triclinic
_cell_length_a                    28.234883
_cell_length_b                    26.000952
_cell_length_c                    13.042243
_cell_angle_alpha                 89.918697
_cell_angle_beta                  82.9089
_cell_angle_gamma                 90.023026
_cell_volume                      9501.50465613

loop_
_atom_site_label
_atom_site_type_symbol
_atom_type_description
_atom_site_fract_x
_atom_site_fract_y
_atom_site_fract_z
_atom_type_partial_charge
C1    C     C_R   0.589667 0.098910 0.511398 0.523446
C2    C     C_R   0.287084 0.157631 0.499971 0.260037
C3    C     C_R   0.805705 0.314892 0.581901 0.258882
C4    C     C_R   0.787084 0.657637 0.500007 0.260033
C5    C     C_R   0.310363 0.775940 0.504818 0.202064
C6    C     C_R   0.297644 0.205196 0.448070 0.201603
C7    C     C_R   0.810364 0.275939 0.504816 0.202067
C8    C     C_R   0.797642 0.705196 0.448084 0.201599
C9    C     C_R   0.349357 0.777637 0.425265 0.244394
C10   C     C_R   0.345291 0.216224 0.406135 0.245612
C11   C     C_R   0.849357 0.277637 0.425262 0.244394
C12   C     C_R   0.589767 0.901202 0.511556 0.519501
C13   C     C_R   0.845286 0.716218 0.406122 0.245604
C14   C     C_R   0.381119 0.818997 0.420455 -0.073842
C15   C     C_R   0.381530 0.181506 0.421231 -0.062715
C16   C     C_R   0.881119 0.318998 0.420453 -0.073847
C17   C     C_R   0.881526 0.681500 0.421213 -0.062718
C18   C     C_R   0.710428 0.162327 0.482661 -0.061654
C19   C     C_R   0.697707 0.819246 0.429428 -0.063150
C20   C     C_R   0.210426 0.662331 0.482642 -0.061645
C21   C     C_R   0.197684 0.319217 0.429385 -0.063171
C22   C     C_R   0.675135 0.125351 0.478591 0.203465
C23   C     C_R   0.089667 0.598910 0.511397 0.523428
C24   C     C_R   0.662836 0.856871 0.427557 0.201993
C25   C     C_R   0.175134 0.625354 0.478570 0.203475
C26   C     C_R   0.162814 0.356845 0.427520 0.201984
C27   C     C_R   0.699066 0.212616 0.516866 0.202700
C28   C     C_R   0.699488 0.787784 0.516704 0.201998
C29   C     C_R   0.199065 0.712616 0.516872 0.202704
C30   C     C_R   0.199487 0.287780 0.516691 0.201994
C31   C     C_R   0.626942 0.138123 0.512502 -0.023552
C32   C     C_R   0.627487 0.862554 0.513940 -0.021822
C33   C     C_R   0.126942 0.638122 0.512503 -0.023565
C34   C     C_R   0.089767 0.401201 0.511557 0.519487
C35   C     C_R   0.127488 0.362554 0.513938 -0.021835
C36   C     C_R   0.614965 0.188404 0.549286 -0.011414
C37   C     C_R   0.628205 0.830397 0.601818 -0.007433
C38   C     C_R   0.114966 0.688400 0.549311 -0.011448
C39   C     C_R   0.128226 0.330419 0.601845 -0.007419
C40   C     C_R   0.409872 0.901078 0.490016 0.514109
C41   C     C_R   0.409589 0.098520 0.488673 0.528872
C42   C     C_R   0.909872 0.401078 0.490016 0.514112
C43   C     C_R   0.909589 0.598520 0.488673 0.528869
C44   C     C_R   0.651441 0.226015 0.548391 0.253489
C45   C     C_R   0.337083 0.856496 0.573056 -0.081448
C46   C     C_R   0.665349 0.793769 0.603379 0.251906
C47   C     C_R   0.151441 0.726011 0.548420 0.253480
C48   C     C_R   0.165370 0.293789 0.603399 0.251923
C49   C     C_R   0.477453 0.001395 0.777559 0.539887
C50   C     C_R   0.977453 0.501400 0.777560 0.539790
C51   C     C_R   0.521985 0.999985 0.222486 0.495425
C52   C     C_R   0.021985 0.499985 0.222486 0.495392
C53   C     C_2   0.525267 0.999654 0.108818 0.056620
C54   C     C_2   0.025273 0.499647 0.108819 0.056585
C55   C     C_2   0.492694 0.026414 0.060212 0.245756
C56   C     C_R   0.324223 0.124563 0.516592 -0.080510
C57   C     C_2   0.992730 0.526439 0.060188 0.245640
C58   C     C_2   0.468781 0.004252 0.891805 0.267711
C59   C     C_2   0.968782 0.504286 0.891805 0.267720
C60   C     C_2   0.497922 0.031917 0.946480 0.149690
C61   C     C_2   0.997964 0.531912 0.946452 0.149704
C62   C     C_R   0.375005 0.858823 0.493118 -0.069778
C63   C     C_R   0.371468 0.135936 0.477171 -0.069540
C64   C     C_R   0.875005 0.358823 0.493118 -0.069779
C65   C     C_R   0.871468 0.635936 0.477175 -0.069542
C66   C     C_2   0.533382 0.070322 0.898929 0.587639
C67   C     C_R   0.837083 0.356495 0.573056 -0.081445
C68   C     C_2   0.033488 0.570236 0.898846 0.587649
C69   C     C_2   0.564263 0.968083 0.052084 0.580427
C70   C     C_2   0.064231 0.468017 0.052111 0.580543
C71   C     C_2   0.565538 0.200819 0.595975 0.557679
C72   C     C_2   0.588601 0.831915 0.688263 0.560519
C73   C     C_2   0.065540 0.700808 0.596018 0.557695
C74   C     C_2   0.088641 0.331956 0.688330 0.560512
C75   C     C_R   0.824224 0.624569 0.516623 -0.080518
C76   C     C_R   0.305704 0.814893 0.581901 0.258879
H1    H     H_    0.332794 0.886117 0.631828 0.187131
H2    H     H_    0.417843 0.190464 0.389145 0.201573
H3    H     H_    0.910680 0.319965 0.359015 0.190317
H4    H     H_    0.917837 0.690454 0.389104 0.201569
H5    H     H_    0.552337 0.121612 0.784835 0.366453
H6    H     H_    0.052482 0.621526 0.784770 0.366431
H7    H     H_    0.262242 0.776973 0.681572 0.368523
H8    H     H_    0.218863 0.159264 0.492213 0.367664
H9    H     H_    0.762242 0.276972 0.681568 0.368522
H10   H     H_    0.718861 0.659266 0.492271 0.367676
H11   H     H_    0.608392 0.284703 0.571700 0.361003
H12   H     H_    0.315647 0.088697 0.557100 0.188859
H13   H     H_    0.652425 0.778731 0.750949 0.358750
H14   H     H_    0.108390 0.784696 0.571777 0.361001
H15   H     H_    0.152484 0.278792 0.750994 0.358740
H16   H     H_    0.444560 0.033953 0.180933 0.329753
H17   H     H_    0.944592 0.534037 0.180883 0.329794
H18   H     H_    0.416104 0.955922 0.894587 0.344141
H19   H     H_    0.916033 0.456044 0.894636 0.344172
H20   H     H_    0.590474 0.930325 0.922173 0.381214
H21   H     H_    0.090370 0.430160 0.922269 0.381259
H22   H     H_    0.661857 0.056416 0.428300 0.337338
H23   H     H_    0.832795 0.386115 0.631829 0.187128
H24   H     H_    0.643514 0.916948 0.351771 0.345599
H25   H     H_    0.161854 0.556421 0.428273 0.337334
H26   H     H_    0.143495 0.416917 0.351721 0.345606
H27   H     H_    0.333528 0.712543 0.362657 0.359306
H28   H     H_    0.329625 0.281464 0.343597 0.360127
H29   H     H_    0.833528 0.212544 0.362652 0.359308
H30   H     H_    0.829616 0.781450 0.343565 0.360118
H31   H     H_    0.523173 0.230875 0.716980 0.363766
H32   H     H_    0.539095 0.791998 0.780913 0.357598
H33   H     H_    0.023179 0.730848 0.717048 0.363799
H34   H     H_    0.815651 0.588708 0.557149 0.188864
H35   H     H_    0.039153 0.292060 0.781070 0.357597
H36   H     H_    0.746964 0.151677 0.456089 0.187194
H37   H     H_    0.724336 0.815722 0.362539 0.189137
H38   H     H_    0.246961 0.651684 0.456051 0.187191
H39   H     H_    0.224294 0.315673 0.362465 0.189150
H40   H     H_    0.410681 0.819964 0.359018 0.190320
N1    N     N_2   0.276338 0.735803 0.504682 -0.285525
N2    N     N_2   0.261603 0.242308 0.438817 -0.285437
N3    N     N_2   0.776340 0.235802 0.504681 -0.285530
N4    N     N_2   0.761601 0.742309 0.438834 -0.285426
N5    N     N_2   0.734350 0.251707 0.517087 -0.134288
N6    N     N_2   0.736121 0.750646 0.522263 -0.133382
N7    N     N_2   0.234349 0.751707 0.517096 -0.134288
N8    N     N_2   0.236122 0.250643 0.522247 -0.133376
O1    O     O_3   0.499990 0.000000 0.500000 -0.471208
O2    O     O_R   0.950070 0.602520 0.433660 -0.514791
O3    O     O_R   0.588860 0.940050 0.570910 -0.496751
O4    O     O_R   0.588860 0.059950 0.570910 -0.524956
O5    O     O_R   0.088860 0.440050 0.570910 -0.496711
O6    O     O_R   0.088860 0.559950 0.570910 -0.524994
O7    O     O_R   0.401370 0.059920 0.548800 -0.534340
O8    O     O_R   0.401370 0.940080 0.548800 -0.541617
O9    O     O_R   0.901370 0.559920 0.548800 -0.534345
O10   O     O_R   0.901370 0.440080 0.548800 -0.541612
O11   O     O_R   0.520330 0.000000 0.732910 -0.486315
O12   O     O_3   0.999990 0.500000 0.500000 -0.471198
O13   O     O_R   0.020330 0.500000 0.732910 -0.486398
O14   O     O_R   0.518600 0.042600 0.271700 -0.523633
O15   O     O_R   0.518600 0.957400 0.271700 -0.519603
O16   O     O_R   0.018600 0.542600 0.271700 -0.523670
O17   O     O_R   0.018600 0.457400 0.271700 -0.519593
O18   O     O_R   0.442440 0.000000 0.723710 -0.538478
O19   O     O_R   0.942440 0.500000 0.723710 -0.538498
O20   O     O_2   0.568327 0.080757 0.941785 -0.465764
O21   O     O_R   0.525758 0.096481 0.808588 -0.679032
O22   O     O_2   0.068521 0.580512 0.941535 -0.465797
O23   O     O_R   0.559670 0.102510 0.446620 -0.491210
O24   O     O_R   0.025841 0.596481 0.808613 -0.678929
O25   O     O_3   0.271911 0.813184 0.667858 -0.625542
O26   O     O_3   0.241171 0.141531 0.533354 -0.624989
O27   O     O_3   0.771912 0.313183 0.667858 -0.625549
O28   O     O_3   0.741173 0.641541 0.533415 -0.624972
O29   O     O_3   0.642176 0.276517 0.577442 -0.599553
O30   O     O_3   0.669833 0.763014 0.688287 -0.601738
O31   O     O_3   0.142177 0.776510 0.577496 -0.599560
O32   O     O_3   0.169874 0.263057 0.688331 -0.601733
O33   O     O_3   0.453391 0.050781 0.113142 -0.634962
O34   O     O_R   0.559670 0.897490 0.446620 -0.524834
O35   O     O_3   0.953449 0.550857 0.113093 -0.634925
O36   O     O_3   0.432251 0.975752 0.945107 -0.662527
O37   O     O_3   0.932208 0.475857 0.945135 -0.662507
O38   O     O_2   0.598504 0.955590 0.095563 -0.451576
O39   O     O_R   0.561751 0.951520 0.950915 -0.675723
O40   O     O_2   0.098481 0.455526 0.095564 -0.451515
O41   O     O_R   0.061670 0.451394 0.950998 -0.675680
O42   O     O_3   0.689726 0.077571 0.440279 -0.648446
O43   O     O_3   0.665244 0.887192 0.339819 -0.633710
O44   O     O_3   0.189724 0.577579 0.440236 -0.648450
O45   O     O_R   0.059670 0.602510 0.446620 -0.491210
O46   O     O_3   0.165201 0.387142 0.339751 -0.633677
O47   O     O_3   0.357353 0.740436 0.349529 -0.649899
O48   O     O_3   0.358294 0.260730 0.351753 -0.643880
O49   O     O_3   0.857353 0.240437 0.349525 -0.649902
O50   O     O_3   0.858287 0.760718 0.351718 -0.643883
O51   O     O_2   0.531490 0.191073 0.549798 -0.476403
O52   O     O_R   0.558179 0.224278 0.693048 -0.655967
O53   O     O_2   0.576834 0.872508 0.731200 -0.483582
O54   O     O_R   0.565207 0.786325 0.721342 -0.651810
O55   O     O_2   0.031489 0.691069 0.549843 -0.476392
O56   O     O_R   0.059670 0.397490 0.446620 -0.524826
O57   O     O_R   0.058185 0.724254 0.693105 -0.655927
O58   O     O_2   0.076888 0.372558 0.731244 -0.483598
O59   O     O_R   0.065251 0.286374 0.721475 -0.651807
O60   O     O_R   0.450070 0.897480 0.433660 -0.533996
O61   O     O_R   0.450070 0.102520 0.433660 -0.514776
O62   O     O_R   0.950070 0.397480 0.433660 -0.533995
Zn1   Zn    Zn3+2 0.506960 0.939150 0.414470 0.989475
Zn2   Zn    Zn3+2 0.506960 0.060850 0.414470 1.019171
Zn3   Zn    Zn3+2 0.006960 0.439150 0.414470 0.989485
Zn4   Zn    Zn3+2 0.006960 0.560850 0.414470 1.019133
Zn5   Zn    Zn3+2 0.548670 1.000000 0.592090 1.036893
Zn6   Zn    Zn3+2 0.048670 0.500000 0.592090 1.036889
Zn7   Zn    Zn3+2 0.437380 0.000000 0.578960 0.985883
Zn8   Zn    Zn3+2 0.937380 0.500000 0.578960 0.985867

loop_
_geom_bond_atom_site_label_1
_geom_bond_atom_site_label_2
_ccdc_geom_bond_type
C2    O26   S    
C21   C26   A    
H26   O46   S    
C8    C13   A    
C41   C63   S    
O16   Zn4   S    
O1    Zn1   S    
C34   O56   A    
C1    O4    A    
C72   O54   S    
C21   H39   S    
C53   C69   S    
O34   Zn1   S    
H9    O27   S    
C27   N5    S    
C50   O13   A    
H21   O41   S    
C12   O3    A    
C2    C6    A    
C7    C11   A    
C28   C46   A    
O12   Zn6   S    
O1    Zn2   S    
C50   C59   S    
O45   Zn4   S    
C30   C48   A    
C57   O35   S    
C18   H36   S    
C3    C7    A    
O56   Zn3   S    
H19   O37   S    
C38   C73   S    
C28   N6    S    
C56   H12   S    
C15   H2    S    
C66   O20   D    
H31   O52   S    
C19   H37   S    
C10   O48   S    
C14   C62   A    
O5    Zn6   S    
C45   C62   A    
C1    C31   S    
C40   C62   S    
C71   O52   S    
C52   O17   A    
C43   O9    A    
C34   C35   S    
C39   C74   S    
O2    Zn4   S    
C1    O23   A    
C4    C75   A    
O12   Zn8   S    
C27   C44   A    
C34   O5    A    
C52   C54   S    
O9    Zn8   S    
C66   O21   S    
C54   C70   S    
H11   O29   S    
C68   O24   S    
C36   C71   S    
C4    C8    A    
H28   O48   S    
C42   O62   A    
N3    N5    D    
C40   O8    A    
C60   C66   S    
H29   O49   S    
C55   C60   S    
C12   C32   S    
H27   O47   S    
O7    Zn7   S    
C72   O53   D    
O15   Zn1   S    
C43   O2    A    
N4    N6    D    
C20   C29   A    
C53   C55   D    
C25   O44   S    
O14   Zn2   S    
C13   O50   S    
C46   O30   S    
C59   C61   D    
C11   O49   S    
C22   C31   A    
H14   O31   S    
C41   O61   A    
C64   C67   A    
C7    N3    S    
C24   O43   S    
O17   Zn3   S    
C69   O38   D    
C70   O41   S    
C41   O7    A    
O61   Zn2   S    
C74   O59   S    
C23   C33   S    
O19   Zn8   S    
C17   H4    S    
O3    Zn5   S    
C49   C58   S    
C23   O6    A    
O12   Zn4   S    
H16   O33   S    
C51   C53   S    
C73   O55   D    
H25   O44   S    
C35   C39   A    
C9    C14   A    
C24   C32   A    
C5    C9    A    
C59   O37   S    
H10   O28   S    
O13   Zn6   S    
C73   O57   S    
C11   C16   A    
C23   O45   A    
O1    Zn7   S    
C43   C65   S    
C49   O18   A    
H35   O59   S    
C51   O15   A    
H30   O50   S    
C56   C63   A    
H32   O54   S    
O1    Zn5   S    
N2    N8    D    
C32   C37   A    
C4    O28   S    
C19   C28   A    
O11   Zn5   S    
C38   C47   A    
H22   O42   S    
C29   C47   A    
H5    O21   S    
H24   O43   S    
O8    Zn7   S    
C36   C44   A    
C44   O29   S    
O10   Zn8   S    
C42   C64   S    
C68   O22   D    
C50   O19   A    
C8    N4    S    
H33   O57   S    
C75   H34   S    
H18   O36   S    
C18   C22   A    
C17   C65   A    
C3    C67   A    
C18   C27   A    
C69   O39   S    
C30   N8    S    
C45   H1    S    
C70   O40   D    
C6    C10   A    
H6    O24   S    
O60   Zn1   S    
C57   C61   S    
C74   O58   D    
C67   H23   S    
O23   Zn2   S    
C21   C30   A    
C3    O27   S    
C33   C38   A    
C65   C75   A    
H20   O39   S    
C13   C17   A    
O12   Zn3   S    
C10   C15   A    
O4    Zn5   S    
C16   H3    S    
O62   Zn3   S    
C19   C24   A    
N1    N7    D    
H15   O32   S    
C2    C56   A    
C20   H38   S    
O6    Zn6   S    
C61   C68   S    
H13   O30   S    
C47   O31   S    
C76   O25   S    
C5    C76   A    
C14   H40   S    
C29   N7    S    
C45   C76   A    
C52   O16   A    
O18   Zn7   S    
C71   O51   D    
C42   O10   A    
C49   O11   A    
C48   O32   S    
C9    O47   S    
C22   O42   S    
C51   O14   A    
C26   C35   A    
C55   O33   S    
H7    O25   S    
C26   O46   S    
H17   O35   S    
C20   C25   A    
C37   C72   S    
C5    N1    S    
C15   C63   A    
C31   C36   A    
C58   O36   S    
C16   C64   A    
C12   O34   A    
C37   C46   A    
C58   C60   D    
C6    N2    S    
C25   C33   A    
C39   C48   A    
C40   O60   A    
C54   C57   D    
H8    O26   S    
