data_mof_unit_63370.cif
_audit_creation_date              2012-12-10T16:55:20-0500
_audit_creation_method            fapswitch 2.2
_symmetry_space_group_name_H-M    P1
_symmetry_Int_Tables_number       1
_space_group_crystal_system       triclinic
_cell_length_a                    21.740237
_cell_length_b                    21.739332
_cell_length_c                    21.813933
_cell_angle_alpha                 119.527815
_cell_angle_beta                  118.119221
_cell_angle_gamma                 90.141507
_cell_volume                      7532.53529594

loop_
_atom_site_label
_atom_site_type_symbol
_atom_type_description
_atom_site_fract_x
_atom_site_fract_y
_atom_site_fract_z
_atom_type_partial_charge
C1    C     C_R   0.001589 0.382407 0.503282 0.950092
C2    C     C_1   0.842539 0.334767 0.173812 -0.094224
C3    C     C_1   0.122178 0.626550 0.751190 -0.181113
C4    C     C_1   0.877826 0.373522 0.248796 -0.187113
C5    C     C_2   0.977779 0.242252 0.551275 0.182285
C6    C     C_2   0.021011 0.757036 0.447536 0.193149
C7    C     C_2   0.987641 0.183585 0.497148 -0.406088
C8    C     C_2   0.012681 0.816368 0.502769 -0.416275
C9    C     C_2   0.969272 0.303417 0.539237 -0.147436
C10   C     C_2   0.029878 0.696039 0.459807 -0.148057
C11   C     C_2   0.008581 0.322939 0.515850 -0.396879
C12   C     C_R   0.998433 0.617629 0.496800 0.949880
C13   C     C_2   0.991412 0.677153 0.484358 -0.397808
C14   C     C_R   0.615987 0.996823 0.494093 0.947385
C15   C     C_R   0.384444 0.002930 0.506598 0.937504
C16   C     C_R   0.080159 0.581113 0.662331 0.911480
C17   C     C_R   0.919840 0.418893 0.337665 0.912450
C18   C     C_R   0.418663 0.919010 0.337699 0.908039
C19   C     C_R   0.581338 0.080993 0.662304 0.910633
C20   C     C_R   0.881544 0.004653 0.502060 0.838077
C21   C     C_R   0.118469 0.001686 0.497867 0.837585
C22   C     C_R   0.996791 0.119015 0.499715 0.933085
C23   C     C_3   0.273944 0.845008 0.048995 -0.191875
C24   C     C_R   0.003325 0.880971 0.500258 0.936763
C25   C     C_2   0.756655 0.011001 0.444025 -0.181849
C26   C     C_2   0.242043 0.065996 0.552947 -0.181161
C27   C     C_2   0.820300 0.022939 0.510429 -0.199008
C28   C     C_2   0.179905 0.008939 0.489115 -0.178320
C29   C     C_2   0.691084 0.017698 0.447319 -0.099766
C30   C     C_2   0.307648 0.069697 0.549818 -0.100903
C31   C     C_2   0.675113 0.987756 0.480780 -0.272563
C32   C     C_2   0.326470 0.007763 0.521819 -0.276972
C33   C     C_3   0.272300 0.691865 0.949282 -0.438588
C34   C     C_3   0.727152 0.155051 0.951076 -0.223535
C35   C     C_3   0.726894 0.306932 0.050652 -0.424927
C36   C     C_3   0.158500 0.699501 0.952699 -0.358246
C37   C     C_3   0.840745 0.302261 0.047289 -0.484814
C38   C     C_3   0.205856 0.747154 0.051749 0.184668
C39   C     C_3   0.793959 0.253942 0.948447 0.189412
C40   C     C_1   0.372195 0.875147 0.249052 -0.147380
C41   C     C_1   0.627883 0.124868 0.750947 -0.115682
C42   C     C_3   0.200876 0.713156 0.917790 0.207821
C43   C     C_3   0.799203 0.287047 0.082188 0.251638
C44   C     C_3   0.321111 0.739764 0.045858 -0.437155
C45   C     C_3   0.220666 0.797273 0.950468 -0.068081
C46   C     C_3   0.678550 0.259563 0.954029 -0.475961
C47   C     C_3   0.283020 0.793884 0.082737 0.116199
C48   C     C_3   0.717175 0.206188 0.917224 0.146406
C49   C     C_2   0.258142 0.915414 0.096608 0.407068
C50   C     C_2   0.742754 0.084661 0.903048 0.453545
C51   C     C_3   0.972156 0.243883 0.619174 -0.336087
C52   C     C_3   0.950862 0.309568 0.667256 -0.878922
C53   C     C_3   0.024324 0.754262 0.377912 -0.338137
C54   C     C_3   0.043962 0.687690 0.328470 -0.920580
C55   C     C_2   0.835430 0.063492 0.597347 0.436657
C56   C     C_3   0.781065 0.202848 0.049501 -0.069537
C57   C     C_2   0.165887 0.956683 0.403489 0.434152
C58   C     C_3   0.215675 0.693670 0.082221 -0.452923
C59   C     C_3   0.145488 0.655267 0.066500 -0.831430
C60   C     C_3   0.783646 0.306785 0.917020 -0.361206
C61   C     C_3   0.853984 0.346570 0.934168 -0.854565
C62   C     C_2   0.169005 0.799843 0.089725 0.363893
C63   C     C_2   0.834234 0.203058 0.915261 0.371379
C64   C     C_3   0.151587 0.821791 0.915781 -0.402829
C65   C     C_3   0.168284 0.888132 0.912433 -0.860831
C66   C     C_3   0.851248 0.179536 0.083487 -0.417556
C67   C     C_1   0.332289 0.838467 0.174302 -0.111817
C68   C     C_3   0.836812 0.113202 0.087730 -0.846375
C69   C     C_1   0.667890 0.161575 0.825692 -0.022411
C70   C     C_1   0.157491 0.665373 0.826169 -0.099709
H1    H     H_    0.334704 0.703884 0.070007 0.181474
H2    H     H_    0.066747 0.665796 0.447501 0.181509
H3    H     H_    0.050308 0.297465 0.510500 0.165239
H4    H     H_    0.950188 0.703112 0.490600 0.163537
H5    H     H_    0.751312 0.991925 0.384910 0.160876
H6    H     H_    0.245748 0.109198 0.609680 0.157633
H7    H     H_    0.656502 0.045682 0.422132 0.162326
H8    H     H_    0.339465 0.121884 0.569826 0.161235
H9    H     H_    0.258902 0.632209 0.926504 0.186610
H10   H     H_    0.739078 0.366783 0.074023 0.186692
H11   H     H_    0.706142 0.953422 0.497521 0.142933
H12   H     H_    0.664945 0.295832 0.930417 0.180319
H13   H     H_    0.298076 0.958157 0.510061 0.139416
H14   H     H_    0.105144 0.710099 0.926577 0.201351
H15   H     H_    0.895035 0.293144 0.073453 0.143763
H16   H     H_    0.143595 0.639099 0.926429 0.165847
H17   H     H_    0.853785 0.362609 0.073015 0.190120
H18   H     H_    0.252227 0.803469 0.924653 0.166570
H19   H     H_    0.750464 0.195649 0.075815 0.166560
H20   H     H_    0.328587 0.865542 0.061969 0.171335
H21   H     H_    0.672848 0.134436 0.938762 0.169043
H22   H     H_    0.206423 0.913916 0.092151 0.107224
H23   H     H_    0.303258 0.699467 0.923609 0.180375
H24   H     H_    0.794172 0.086173 0.906784 0.085503
H25   H     H_    0.991165 0.362926 0.698233 0.256924
H26   H     H_    0.895142 0.307374 0.624303 0.262203
H27   H     H_    0.950310 0.306852 0.716524 0.265560
H28   H     H_    0.930642 0.192041 0.590054 0.212567
H29   H     H_    0.025995 0.246037 0.665605 0.222068
H30   H     H_    0.099968 0.689432 0.370185 0.258465
H31   H     H_    0.003636 0.634853 0.298789 0.266473
H32   H     H_    0.042963 0.689643 0.278096 0.256938
H33   H     H_    0.969996 0.752373 0.332561 0.225883
H34   H     H_    0.696119 0.297622 0.075696 0.176963
H35   H     H_    0.065725 0.805550 0.405598 0.193127
H36   H     H_    0.874413 0.052504 0.642061 0.073526
H37   H     H_    0.129039 0.900618 0.363914 0.054342
H38   H     H_    0.128698 0.696050 0.106967 0.268016
H39   H     H_    0.099828 0.626455 0.999855 0.263917
H40   H     H_    0.155893 0.613418 0.082265 0.242884
H41   H     H_    0.235265 0.648961 0.049951 0.214237
H42   H     H_    0.257560 0.724479 0.150589 0.210001
H43   H     H_    0.898685 0.376676 0.001373 0.243638
H44   H     H_    0.872591 0.306508 0.895541 0.288036
H45   H     H_    0.374710 0.771490 0.066024 0.183149
H46   H     H_    0.842877 0.387533 0.917097 0.249240
H47   H     H_    0.742642 0.275177 0.848360 0.231443
H48   H     H_    0.762570 0.350686 0.947765 0.192884
H49   H     H_    0.198420 0.838823 0.157331 0.090225
H50   H     H_    0.885752 0.200915 0.957560 0.041732
H51   H     H_    0.211171 0.936867 0.975093 0.285512
H52   H     H_    0.186879 0.873039 0.868769 0.254443
H53   H     H_    0.117794 0.904057 0.889060 0.257212
H54   H     H_    0.108636 0.776290 0.850561 0.224178
H55   H     H_    0.126099 0.834311 0.952504 0.238187
H56   H     H_    0.624928 0.227284 0.933233 0.183071
H57   H     H_    0.819260 0.127871 0.132221 0.253849
H58   H     H_    0.793930 0.064048 0.025473 0.282141
H59   H     H_    0.887991 0.098150 0.110536 0.256792
H60   H     H_    0.875784 0.167528 0.045899 0.190383
H61   H     H_    0.894357 0.225489 0.148358 0.227134
H62   H     H_    0.982057 0.179461 0.442912 0.153048
H63   H     H_    0.019602 0.820882 0.557713 0.150892
H64   H     H_    0.931792 0.333161 0.550569 0.182397
O1    O     O_R   0.051090 0.409550 0.500010 -0.620382
O2    O     O_R   0.051070 0.590460 0.499970 -0.621862
O3    O     O_R   0.112510 0.561440 0.622850 -0.616222
O4    O     O_R   0.887490 0.438560 0.377150 -0.615853
O5    O     O_R   0.010350 0.561430 0.622870 -0.619761
O6    O     O_R   0.989650 0.438570 0.377130 -0.621170
O7    O     O_R   0.590290 0.948920 0.499990 -0.626117
O8    O     O_R   0.409710 0.051080 0.500010 -0.607677
O9    O     O_R   0.590320 0.051050 0.499970 -0.603762
O10   O     O_R   0.409680 0.948950 0.500030 -0.631119
O11   O     O_R   0.438380 0.887500 0.377150 -0.629473
O12   O     O_R   0.948910 0.590450 0.499990 -0.620779
O13   O     O_R   0.561620 0.112500 0.622850 -0.626714
O14   O     O_R   0.438400 0.989630 0.377130 -0.597735
O15   O     O_R   0.561600 0.010370 0.622870 -0.598351
O16   O     O_R   0.944190 0.034670 0.569380 -0.638486
O17   O     O_R   0.055810 0.965330 0.430620 -0.632630
O18   O     O_2   0.304313 0.975803 0.141207 -0.560136
O19   O     O_2   0.696766 0.024242 0.858939 -0.564991
O20   O     O_2   0.807690 0.111775 0.620850 -0.530068
O21   O     O_2   0.191838 0.976771 0.374995 -0.543188
O22   O     O_2   0.106658 0.798654 0.047001 -0.592701
O23   O     O_R   0.874830 0.965310 0.430660 -0.607036
O24   O     O_2   0.809354 0.163669 0.840069 -0.556927
O25   O     O_R   0.125170 0.034690 0.569340 -0.609673
O26   O     O_R   0.034670 0.125130 0.569340 -0.628001
O27   O     O_R   0.965330 0.874870 0.430660 -0.624377
O28   O     O_R   0.965310 0.055770 0.430620 -0.610182
O29   O     O_R   0.034690 0.944230 0.569380 -0.610889
O30   O     O_R   0.948930 0.409540 0.500030 -0.621184
Zn1   Zn    Zn3+2 0.068220 0.500010 0.499990 0.959832
Zn2   Zn    Zn3+2 0.931780 0.499990 0.500010 0.962429
Zn3   Zn    Zn3+2 0.499800 0.931810 0.500010 0.982544
Zn4   Zn    Zn3+2 0.500200 0.068190 0.499990 0.999693
Zn5   Zn    Zn3+2 0.046310 0.046310 0.592620 0.949488
Zn6   Zn    Zn3+2 0.953690 0.953690 0.407380 0.957733

loop_
_geom_bond_atom_site_label_1
_geom_bond_atom_site_label_2
_ccdc_geom_bond_type
C55   O20   D    
C66   C68   S    
C34   C56   S    
C23   C45   S    
C35   H10   S    
C54   H31   S    
C36   C42   S    
C16   O3    A    
O15   Zn3   S    
C48   C69   S    
C18   O11   A    
O3    Zn1   S    
C15   C32   S    
C28   C57   S    
C57   O21   D    
C7    H62   S    
O17   Zn6   S    
C44   H1    S    
C58   H42   S    
C33   C42   S    
C37   H15   S    
C36   H14   S    
C18   O14   A    
C22   O28   A    
C27   C55   S    
C23   C49   S    
O16   Zn5   S    
O2    Zn1   S    
C50   O19   D    
C52   H27   S    
C42   C70   S    
C59   H40   S    
C52   H25   S    
C12   O12   A    
C14   C31   S    
C18   C40   S    
C34   H21   S    
C8    C24   S    
C46   H12   S    
C24   O27   A    
C44   H45   S    
C20   O16   A    
C40   C67   T    
C1    C11   S    
C26   H6    S    
O26   Zn5   S    
C60   H48   S    
C17   O4    A    
C65   H51   S    
C35   C43   S    
C68   H58   S    
C44   C47   S    
C9    H64   S    
C51   H28   S    
C21   O17   A    
O12   Zn2   S    
C14   O7    A    
C38   C58   S    
C51   H29   S    
C21   O25   A    
C54   H30   S    
C47   C67   S    
C37   H17   S    
C25   C29   S    
C46   C48   S    
C34   C50   S    
O7    Zn3   S    
C55   H36   S    
C51   C52   S    
C3    C70   T    
C23   C47   S    
C1    O30   A    
C35   H34   S    
C11   H3    S    
C5    C7    D    
C50   H24   S    
C6    C8    D    
O10   Zn3   S    
C36   H16   S    
C58   C59   S    
C64   H54   S    
C19   O13   A    
C58   H41   S    
C60   C61   S    
C25   H5    S    
C42   C45   S    
C37   C43   S    
O5    Zn2   S    
C2    C4    T    
C5    C9    S    
O23   Zn6   S    
C15   O8    A    
C59   H39   S    
O28   Zn6   S    
C2    C43   S    
C45   H18   S    
C61   H46   S    
C62   H49   S    
C23   H20   S    
C60   H47   S    
C65   H52   S    
C12   C13   S    
C9    C11   D    
C68   H57   S    
C38   C47   S    
O27   Zn6   S    
C56   H19   S    
C57   H37   S    
C21   C28   S    
C26   C30   S    
C20   O23   A    
C61   H43   S    
O14   Zn4   S    
C24   O29   A    
C34   C48   S    
C4    C17   S    
C6    C53   S    
C61   H44   S    
C41   C69   T    
C66   H61   S    
O11   Zn3   S    
O6    Zn1   S    
C32   H13   S    
C14   O9    A    
O25   Zn5   S    
C49   O18   D    
C8    H63   S    
C33   C44   S    
C46   H56   S    
C33   H9    S    
C10   C13   D    
C33   H23   S    
C6    C10   S    
C53   C54   S    
C20   C27   S    
C25   C27   D    
C7    C22   S    
C39   C63   S    
C45   C64   S    
C26   C28   D    
C59   H38   S    
C31   H11   S    
O4    Zn2   S    
C54   H32   S    
C64   C65   S    
O30   Zn2   S    
C37   C39   S    
C30   C32   D    
C63   H50   S    
C22   O26   A    
C53   H33   S    
C56   C66   S    
C39   C60   S    
C36   C38   S    
C19   O15   A    
C62   O22   D    
C52   H26   S    
C17   O6    A    
C65   H53   S    
C68   H59   S    
O29   Zn5   S    
O9    Zn4   S    
O1    Zn1   S    
O13   Zn4   S    
O8    Zn4   S    
C15   O10   A    
C30   H8    S    
C53   H35   S    
C43   C56   S    
C29   H7    S    
C13   H4    S    
C29   C31   D    
C64   H55   S    
C12   O2    A    
C16   O5    A    
C5    C51   S    
C49   H22   S    
C63   O24   D    
C38   C62   S    
C1    O1    A    
C35   C46   S    
C3    C16   S    
C19   C41   S    
C39   C48   S    
C66   H60   S    
C10   H2    S    
