data_mof_unit_38438.cif
_audit_creation_date              2012-12-10T17:19:23-0500
_audit_creation_method            fapswitch 2.2
_symmetry_space_group_name_H-M    P1
_symmetry_Int_Tables_number       1
_space_group_crystal_system       triclinic
_cell_length_a                    18.296357
_cell_length_b                    18.296621
_cell_length_c                    34.505405
_cell_angle_alpha                 89.999839
_cell_angle_beta                  89.999725
_cell_angle_gamma                 89.999336
_cell_volume                      11551.08147

loop_
_atom_site_label
_atom_site_type_symbol
_atom_type_description
_atom_site_fract_x
_atom_site_fract_y
_atom_site_fract_z
_atom_type_partial_charge
Br1   Br    Br    0.526749 0.774753 0.547544 -0.335852
Br2   Br    Br    0.006464 0.726716 0.952449 -0.335657
Br3   Br    Br    0.725971 0.019716 0.047544 -0.336403
Br4   Br    Br    0.274077 0.979805 0.952447 -0.335710
Br5   Br    Br    0.005933 0.726739 0.047543 -0.335774
Br6   Br    Br    0.993666 0.273269 0.952451 -0.335657
Br7   Br    Br    0.274033 0.980293 0.047545 -0.336383
Br8   Br    Br    0.725926 0.020200 0.952445 -0.335754
Br9   Br    Br    0.472741 0.225182 0.452443 -0.335077
Br10  Br    Br    0.775241 0.530676 0.547545 -0.336133
Br11  Br    Br    0.224686 0.468826 0.452440 -0.335166
Br12  Br    Br    0.473239 0.225245 0.547543 -0.335852
Br13  Br    Br    0.527245 0.774816 0.452444 -0.335036
Br14  Br    Br    0.224758 0.469319 0.547544 -0.336126
Br15  Br    Br    0.775312 0.531171 0.452441 -0.335162
Br16  Br    Br    0.994165 0.273251 0.047546 -0.335767
C1    C     C_R   0.515784 0.866712 0.520349 0.223950
C2    C     C_R   0.003711 0.634154 0.979646 0.223989
C3    C     C_R   0.432970 0.994104 0.959219 0.006195
C4    C     C_R   0.001732 0.567260 0.040775 0.006095
C5    C     C_R   0.998169 0.432737 0.959223 0.006097
C6    C     C_R   0.432959 0.994245 0.040775 0.006214
C7    C     C_R   0.567032 0.005895 0.959218 0.006204
C8    C     C_R   0.000000 0.500000 0.644101 0.814609
C9    C     C_R   1.000000 0.500000 0.355897 0.814492
C10   C     C_R   0.500000 0.000000 0.644101 0.814752
C11   C     C_R   0.500000 1.000000 0.355897 0.814614
C12   C     C_R   0.500000 0.000000 0.144100 0.814878
C13   C     C_R   0.633711 0.011669 0.020349 0.223951
C14   C     C_R   0.500000 1.000000 0.855898 0.814861
C15   C     C_R   0.000000 0.500000 0.144100 0.815141
C16   C     C_R   0.000001 0.500000 0.855899 0.815044
C17   C     C_R   0.860131 0.639865 0.750001 0.886224
C18   C     C_R   0.139877 0.360116 0.250004 1.102237
C19   C     C_R   0.360123 0.860116 0.750004 1.102356
C20   C     C_R   0.639869 0.139865 0.250001 0.886396
C21   C     C_R   0.139870 0.360136 0.750001 0.886236
C22   C     C_R   0.860123 0.639884 0.250004 1.102241
C23   C     C_R   0.639877 0.139884 0.750004 1.102365
C24   C     C_R   0.366304 0.988199 0.979644 0.224089
C25   C     C_R   0.360131 0.860134 0.250001 0.886413
C26   C     C_R   0.860135 0.360131 0.250001 0.886437
C27   C     C_R   0.139884 0.639877 0.750003 1.102388
C28   C     C_R   0.360117 0.139878 0.250002 1.102285
C29   C     C_R   0.639864 0.860131 0.750001 0.886254
C30   C     C_R   0.139864 0.639870 0.250002 0.886422
C31   C     C_R   0.860116 0.360122 0.750003 1.102380
C32   C     C_R   0.639885 0.860124 0.250005 1.102275
C33   C     C_R   0.360134 0.139868 0.750001 0.886254
C34   C     C_R   0.138059 0.753589 0.691411 0.208938
C35   C     C_R   0.003560 0.634159 0.020351 0.223968
C36   C     C_R   0.710767 0.396469 0.228548 0.203024
C37   C     C_R   0.396489 0.289249 0.771428 0.202909
C38   C     C_R   0.753466 0.861821 0.308670 0.210241
C39   C     C_R   0.861933 0.246422 0.691405 0.208911
C40   C     C_R   0.289231 0.603531 0.228547 0.203018
C41   C     C_R   0.603509 0.710744 0.771424 0.202894
C42   C     C_R   0.246553 0.138198 0.308677 0.209949
C43   C     C_R   0.138194 0.246549 0.308679 0.210277
C44   C     C_R   0.710747 0.603511 0.771427 0.202906
C45   C     C_R   0.396466 0.710764 0.228547 0.203053
C46   C     C_R   0.996370 0.365835 0.979647 0.223988
C47   C     C_R   0.753579 0.138066 0.691406 0.208921
C48   C     C_R   0.861814 0.753458 0.308674 0.210278
C49   C     C_R   0.289258 0.396490 0.771421 0.202895
C50   C     C_R   0.603533 0.289237 0.228551 0.203053
C51   C     C_R   0.246414 0.861942 0.691411 0.208967
C52   C     C_R   0.789237 0.103526 0.271472 0.202769
C53   C     C_R   0.361881 0.746474 0.808635 0.210032
C54   C     C_R   0.746473 0.638117 0.191378 0.209321
C55   C     C_R   0.103522 0.210757 0.728576 0.203284
C56   C     C_R   0.210775 0.896467 0.271489 0.202792
C57   C     C_R   0.366292 0.988336 0.020350 0.223950
C58   C     C_R   0.638127 0.253516 0.808639 0.209928
C59   C     C_R   0.253528 0.361885 0.191378 0.209330
C60   C     C_R   0.896480 0.789251 0.728584 0.203275
C61   C     C_R   0.789245 0.896480 0.728579 0.203246
C62   C     C_R   0.361896 0.253544 0.191385 0.209226
C63   C     C_R   0.746467 0.361885 0.808632 0.209884
C64   C     C_R   0.103528 0.789236 0.271478 0.202765
C65   C     C_R   0.210749 0.103519 0.728584 0.203230
C66   C     C_R   0.638102 0.746458 0.191387 0.209267
C67   C     C_R   0.253543 0.638103 0.808626 0.209925
C68   C     C_R   0.633699 0.011804 0.979643 0.224086
C69   C     C_R   0.896471 0.210769 0.271480 0.202782
C70   C     C_R   0.131811 0.814719 0.666648 0.384022
C71   C     C_R   0.636734 0.416897 0.227651 0.423393
C72   C     C_R   0.416918 0.363282 0.772318 0.423730
C73   C     C_R   0.814540 0.868010 0.333476 0.386088
C74   C     C_R   0.868172 0.185301 0.666635 0.384026
C75   C     C_R   0.363265 0.583104 0.227649 0.423381
C76   C     C_R   0.583085 0.636709 0.772315 0.423694
C77   C     C_R   0.185508 0.132030 0.333505 0.386281
C78   C     C_R   0.132025 0.185493 0.333499 0.386065
C79   C     C_R   0.248321 0.806491 0.720956 -0.101542
C80   C     C_R   0.636714 0.583083 0.772317 0.423710
C81   C     C_R   0.416892 0.636730 0.227649 0.423345
C82   C     C_R   0.814699 0.131828 0.666635 0.384067
C83   C     C_R   0.868008 0.814532 0.333479 0.386118
C84   C     C_R   0.363293 0.416912 0.772313 0.423679
C85   C     C_R   0.583107 0.363270 0.227653 0.423336
C86   C     C_R   0.185284 0.868191 0.666647 0.384041
C87   C     C_R   0.863272 0.083106 0.272401 0.423691
C88   C     C_R   0.368122 0.685356 0.833406 0.385467
C89   C     C_R   0.685365 0.631889 0.166599 0.384520
C90   C     C_R   0.676574 0.268778 0.239374 -0.125866
C91   C     C_R   0.083090 0.136724 0.727699 0.423609
C92   C     C_R   0.136742 0.916895 0.272421 0.423792
C93   C     C_R   0.631900 0.314619 0.833421 0.385528
C94   C     C_R   0.314642 0.368119 0.166603 0.384508
C95   C     C_R   0.916906 0.863285 0.727705 0.423587
C96   C     C_R   0.863277 0.916911 0.727702 0.423625
C97   C     C_R   0.368122 0.314654 0.166607 0.384458
C98   C     C_R   0.685363 0.368102 0.833416 0.385351
C99   C     C_R   0.083111 0.863271 0.272413 0.423639
C100  C     C_R   0.136714 0.083094 0.727704 0.423602
C101  C     C_R   0.268795 0.323443 0.760612 -0.125551
C102  C     C_R   0.631883 0.685353 0.166604 0.384438
C103  C     C_R   0.314658 0.631873 0.833401 0.385348
C104  C     C_R   0.916897 0.136736 0.272407 0.423689
C105  C     C_R   0.499997 1.000000 0.520359 -0.008448
C106  C     C_R   0.499997 0.999999 0.479633 -0.008278
C107  C     C_R   1.000000 0.500000 0.520359 -0.008519
C108  C     C_R   1.000000 0.499999 0.479632 -0.008334
C109  C     C_R   0.000025 0.499996 0.020361 -0.008183
C110  C     C_R   0.000027 0.499995 0.979638 -0.008151
C111  C     C_R   0.500002 0.000001 0.020359 -0.008346
C112  C     C_R   0.484067 0.133270 0.479641 0.224115
C113  C     C_R   0.806426 0.751614 0.279093 -0.101323
C114  C     C_R   0.500002 1.000000 0.979635 -0.008229
C115  C     C_R   0.751675 0.193514 0.720954 -0.101534
C116  C     C_R   0.323425 0.731222 0.239372 -0.125864
C117  C     C_R   0.731207 0.676557 0.760613 -0.125577
C118  C     C_R   0.193578 0.248390 0.279096 -0.101297
C119  C     C_R   0.248389 0.193579 0.279094 -0.101338
C120  C     C_R   0.676556 0.731207 0.760613 -0.125544
C121  C     C_R   0.268775 0.676573 0.239372 -0.125890
C122  C     C_R   0.806485 0.248325 0.720953 -0.101539
C123  C     C_R   0.751616 0.806427 0.279092 -0.101347
C124  C     C_R   0.866998 0.518104 0.520349 0.223952
C125  C     C_R   0.323443 0.268791 0.760614 -0.125578
C126  C     C_R   0.731224 0.323427 0.239373 -0.125898
C127  C     C_R   0.193511 0.751680 0.720956 -0.101543
C128  C     C_R   0.823434 0.231217 0.260640 -0.125823
C129  C     C_R   0.251654 0.693535 0.779069 -0.101456
C130  C     C_R   0.693536 0.748347 0.220943 -0.101408
C131  C     C_R   0.231215 0.176566 0.739390 -0.125566
C132  C     C_R   0.176566 0.768784 0.260641 -0.125786
C133  C     C_R   0.748351 0.306459 0.779072 -0.101443
C134  C     C_R   0.306463 0.251653 0.220941 -0.101414
C135  C     C_R   0.132982 0.481756 0.479640 0.224158
C136  C     C_R   0.768782 0.823433 0.739389 -0.125594
C137  C     C_R   0.823433 0.768785 0.739390 -0.125533
C138  C     C_R   0.251647 0.306460 0.220939 -0.101416
C139  C     C_R   0.693544 0.251644 0.779074 -0.101462
C140  C     C_R   0.231219 0.823432 0.260644 -0.125870
C141  C     C_R   0.176568 0.231218 0.739388 -0.125552
C142  C     C_R   0.748351 0.693540 0.220940 -0.101427
C143  C     C_R   0.306460 0.748352 0.779072 -0.101460
C144  C     C_R   0.768785 0.176565 0.260637 -0.125797
C145  C     C_R   0.303986 0.803995 0.750008 -0.029612
C146  C     C_R   0.484208 0.133287 0.520348 0.223956
C147  C     C_R   0.695981 0.195971 0.250002 -0.015050
C148  C     C_R   0.195981 0.304029 0.750000 -0.014758
C149  C     C_R   0.803987 0.696006 0.250009 -0.029431
C150  C     C_R   0.696013 0.196005 0.750008 -0.029618
C151  C     C_R   0.304021 0.804027 0.250003 -0.015055
C152  C     C_R   0.804020 0.695972 0.750001 -0.014757
C153  C     C_R   0.196012 0.303994 0.250009 -0.029443
C154  C     C_R   0.303995 0.196014 0.250008 -0.029456
C155  C     C_R   0.695970 0.804020 0.750000 -0.014784
C156  C     C_R   0.195970 0.695981 0.250003 -0.015067
C157  C     C_R   0.515924 0.866729 0.479642 0.224116
C158  C     C_R   0.803993 0.303987 0.750007 -0.029647
C159  C     C_R   0.696005 0.803986 0.250009 -0.029459
C160  C     C_R   0.304028 0.195978 0.750001 -0.014783
C161  C     C_R   0.804029 0.304021 0.250003 -0.015085
C162  C     C_R   0.196008 0.696012 0.750007 -0.029639
C163  C     C_R   0.492527 0.065648 0.581361 -0.155121
C164  C     C_R   0.507726 0.934380 0.418631 -0.155951
C165  C     C_R   0.065515 0.491410 0.581363 -0.155057
C166  C     C_R   0.934518 0.508841 0.418628 -0.156003
C167  C     C_R   0.507471 0.934352 0.581361 -0.155111
C168  C     C_R   0.133001 0.481894 0.520348 0.223953
C169  C     C_R   0.492269 0.065618 0.418631 -0.156021
C170  C     C_R   0.934486 0.508590 0.581363 -0.155065
C171  C     C_R   0.065481 0.491158 0.418628 -0.155999
C172  C     C_R   0.001605 0.566048 0.081355 -0.155408
C173  C     C_R   0.998158 0.433956 0.918642 -0.155644
C174  C     C_R   0.434160 0.994491 0.081358 -0.155222
C175  C     C_R   0.565821 0.005757 0.918636 -0.155812
C176  C     C_R   0.998422 0.433949 0.081356 -0.155402
C177  C     C_R   0.001879 0.566038 0.918643 -0.155636
C178  C     C_R   0.565842 0.005512 0.081358 -0.155215
C179  C     C_R   0.867017 0.518242 0.479641 0.224156
C180  C     C_R   0.434180 0.994240 0.918636 -0.155786
C181  C     C_R   0.500000 0.000000 0.601598 -0.088580
C182  C     C_R   0.499998 1.000000 0.398396 -0.088485
C183  C     C_R   0.000000 0.500000 0.601599 -0.088415
C184  C     C_R   0.999999 0.499999 0.398395 -0.088311
C185  C     C_R   0.000007 0.499999 0.101596 -0.089094
C186  C     C_R   0.000011 0.499998 0.898402 -0.089075
C187  C     C_R   0.500001 0.000001 0.101597 -0.088851
C188  C     C_R   0.500000 0.999999 0.898399 -0.088773
C189  C     C_R   0.507792 0.933162 0.540776 0.006204
C190  C     C_R   0.996513 0.365830 0.020351 0.223968
C191  C     C_R   0.492058 0.066821 0.459216 0.006224
C192  C     C_R   0.933301 0.508949 0.540777 0.006272
C193  C     C_R   0.066680 0.490909 0.459214 0.006266
C194  C     C_R   0.492203 0.066838 0.540776 0.006204
C195  C     C_R   0.507935 0.933178 0.459216 0.006201
C196  C     C_R   0.066699 0.491050 0.540776 0.006270
C197  C     C_R   0.933319 0.509090 0.459215 0.006265
C198  C     C_R   0.998316 0.432733 0.040775 0.006089
C199  C     C_R   0.001888 0.567253 0.959223 0.006100
C200  C     C_R   0.567044 0.005757 0.040775 0.006213
H1    H     H_    0.486656 0.115582 0.597757 0.206420
H2    H     H_    0.996672 0.383696 0.902258 0.207300
H3    H     H_    0.384065 0.990157 0.097749 0.206767
H4    H     H_    0.615895 0.010311 0.902244 0.207145
H5    H     H_    0.997176 0.383680 0.097739 0.207189
H6    H     H_    0.003356 0.616299 0.902258 0.207306
H7    H     H_    0.615936 0.009845 0.097748 0.206767
H8    H     H_    0.384106 0.989685 0.902245 0.207150
H9    H     H_    0.078408 0.690827 0.658679 0.346412
H10   H     H_    0.791386 0.423464 0.196294 0.327013
H11   H     H_    0.423492 0.208643 0.803689 0.326733
H12   H     H_    0.513826 0.884476 0.402233 0.206912
H13   H     H_    0.690622 0.921381 0.341403 0.346494
H14   H     H_    0.921571 0.309197 0.658674 0.346420
H15   H     H_    0.208613 0.576536 0.196294 0.327012
H16   H     H_    0.576490 0.791348 0.803682 0.326713
H17   H     H_    0.309522 0.078812 0.341409 0.346427
H18   H     H_    0.078628 0.309401 0.341406 0.346458
H19   H     H_    0.791352 0.576505 0.803688 0.326683
H20   H     H_    0.423463 0.791382 0.196294 0.326953
H21   H     H_    0.690803 0.078425 0.658678 0.346391
H22   H     H_    0.921346 0.690600 0.341413 0.346441
H23   H     H_    0.115336 0.484659 0.597764 0.206201
H24   H     H_    0.208656 0.423511 0.803680 0.326672
H25   H     H_    0.576533 0.208621 0.196297 0.326960
H26   H     H_    0.309171 0.921602 0.658679 0.346394
H27   H     H_    0.708603 0.076517 0.303711 0.326620
H28   H     H_    0.421470 0.809264 0.841385 0.346413
H29   H     H_    0.809266 0.578502 0.158644 0.346400
H30   H     H_    0.076532 0.291357 0.696308 0.327062
H31   H     H_    0.291416 0.923446 0.303730 0.326662
H32   H     H_    0.578589 0.190684 0.841386 0.346399
H33   H     H_    0.190743 0.421508 0.158642 0.346401
H34   H     H_    0.884730 0.515817 0.402225 0.206765
H35   H     H_    0.923490 0.708655 0.696317 0.327048
H36   H     H_    0.708647 0.923475 0.696310 0.327078
H37   H     H_    0.421529 0.190758 0.158659 0.346494
H38   H     H_    0.809258 0.421504 0.841364 0.346540
H39   H     H_    0.076515 0.708598 0.303713 0.326628
H40   H     H_    0.291345 0.076505 0.696318 0.327065
H41   H     H_    0.578441 0.809238 0.158667 0.346475
H42   H     H_    0.190773 0.578460 0.841361 0.346547
H43   H     H_    0.923458 0.291406 0.303722 0.326635
H44   H     H_    0.298314 0.530012 0.847163 0.363431
H45   H     H_    0.513343 0.884419 0.597758 0.206422
H46   H     H_    0.021433 0.156927 0.271299 0.365486
H47   H     H_    0.156899 0.978564 0.728892 0.365626
H48   H     H_    0.530025 0.701705 0.152832 0.363749
H49   H     H_    0.701719 0.469955 0.847190 0.363443
H50   H     H_    0.978573 0.843095 0.271288 0.365474
H51   H     H_    0.843082 0.021439 0.728877 0.365638
H52   H     H_    0.469981 0.298300 0.152840 0.363772
H53   H     H_    0.298272 0.469972 0.152829 0.363752
H54   H     H_    0.021435 0.843099 0.728891 0.365630
H55   H     H_    0.156936 0.021431 0.271323 0.365538
H56   H     H_    0.486169 0.115522 0.402232 0.206893
H57   H     H_    0.530065 0.298210 0.847215 0.363452
H58   H     H_    0.701737 0.530040 0.152819 0.363754
H59   H     H_    0.978562 0.156921 0.728871 0.365635
H60   H     H_    0.843091 0.978569 0.271275 0.365469
H61   H     H_    0.469971 0.701736 0.847181 0.363420
H62   H     H_    0.478576 0.343084 0.228819 0.365613
H63   H     H_    0.201637 0.970055 0.652890 0.363923
H64   H     H_    0.969834 0.798121 0.347295 0.363256
H65   H     H_    0.343109 0.521446 0.771148 0.365434
H66   H     H_    0.521423 0.656916 0.228811 0.365618
H67   H     H_    0.884665 0.515341 0.597764 0.206202
H68   H     H_    0.798336 0.029970 0.652868 0.363935
H69   H     H_    0.030193 0.201863 0.347313 0.363258
H70   H     H_    0.656907 0.478550 0.771164 0.365448
H71   H     H_    0.478551 0.656896 0.771157 0.365421
H72   H     H_    0.202027 0.030249 0.347386 0.363323
H73   H     H_    0.970029 0.201664 0.652867 0.363935
H74   H     H_    0.343076 0.478573 0.228810 0.365594
H75   H     H_    0.521451 0.343087 0.771172 0.365448
H76   H     H_    0.798154 0.969844 0.347282 0.363260
H77   H     H_    0.029950 0.798359 0.652888 0.363928
H78   H     H_    0.115268 0.484181 0.402224 0.206765
H79   H     H_    0.656924 0.521428 0.228808 0.365603
H80   H     H_    0.002844 0.616318 0.097738 0.207188
O1    O     O_3   1.000000 0.500000 0.750000 -0.519830
O2    O     O_R   0.060740 0.500000 0.337440 -0.638117
O3    O     O_3   0.427113 0.675546 0.857885 -0.646353
O4    O     O_3   0.511221 0.385051 0.223446 -0.623276
O5    O     O_3   0.175452 0.927199 0.642182 -0.646589
O6    O     O_3   0.926962 0.824306 0.357987 -0.646048
O7    O     O_3   0.385078 0.488797 0.776516 -0.623535
O8    O     O_3   0.488777 0.614949 0.223439 -0.623273
O9    O     O_3   0.824524 0.072828 0.642164 -0.646594
O10   O     O_3   0.073083 0.175725 0.358016 -0.646084
O11   O     O_3   0.614934 0.511198 0.776524 -0.623531
O12   O     O_3   0.511200 0.614926 0.776520 -0.623527
O13   O     O_R   0.500000 0.939260 0.662560 -0.638097
O14   O     O_3   0.175767 0.073104 0.358036 -0.646066
O15   O     O_3   0.927172 0.175476 0.642163 -0.646594
O16   O     O_3   0.385044 0.511219 0.223438 -0.623269
O17   O     O_3   0.488804 0.385061 0.776528 -0.623515
O18   O     O_3   0.824321 0.926968 0.357980 -0.646065
O19   O     O_3   0.072802 0.824553 0.642183 -0.646586
O20   O     O_3   0.614954 0.488782 0.223440 -0.623274
O21   O     O_R   0.500000 0.060740 0.337440 -0.638253
O22   O     O_R   0.560740 0.000000 0.162560 -0.638213
O23   O     O_R   0.439260 0.000000 0.837440 -0.638251
O24   O     O_R   1.000000 0.560740 0.162560 -0.638346
O25   O     O_R   1.000000 0.439260 0.837440 -0.638404
O26   O     O_R   0.439260 0.000000 0.162560 -0.638216
O27   O     O_R   0.560740 0.000000 0.837440 -0.638281
O28   O     O_R   0.000000 0.439260 0.162560 -0.638342
O29   O     O_3   0.000000 0.500000 0.250000 -0.519796
O30   O     O_R   1.000000 0.560740 0.837440 -0.638389
O31   O     O_R   0.853850 0.585450 0.727070 -0.608390
O32   O     O_R   0.146150 0.414550 0.272930 -0.595429
O33   O     O_R   0.414550 0.853850 0.727070 -0.595800
O34   O     O_R   0.585450 0.146150 0.272930 -0.608861
O35   O     O_R   0.146150 0.414550 0.727070 -0.608381
O36   O     O_R   0.853850 0.585450 0.272930 -0.595411
O37   O     O_R   0.585450 0.146150 0.727070 -0.595800
O38   O     O_R   0.414550 0.853850 0.272930 -0.608864
O39   O     O_R   0.853850 0.414550 0.272930 -0.608866
O40   O     O_3   0.500000 0.000000 0.750000 -0.519834
O41   O     O_R   0.146150 0.585450 0.727070 -0.595773
O42   O     O_R   0.414550 0.146150 0.272930 -0.595461
O43   O     O_R   0.585450 0.853850 0.727070 -0.608363
O44   O     O_R   0.146150 0.585450 0.272930 -0.608865
O45   O     O_R   0.853850 0.414550 0.727070 -0.595768
O46   O     O_R   0.585450 0.853850 0.272930 -0.595369
O47   O     O_R   0.414550 0.146150 0.727070 -0.608374
O48   O     O_R   0.353850 0.085450 0.227070 -0.595627
O49   O     O_R   0.646150 0.914550 0.772930 -0.608731
O50   O     O_R   0.914550 0.353850 0.227070 -0.608341
O51   O     O_3   0.500000 0.000000 0.250000 -0.519789
O52   O     O_R   0.085450 0.646150 0.772930 -0.595304
O53   O     O_R   0.646150 0.914550 0.227070 -0.595662
O54   O     O_R   0.353850 0.085450 0.772930 -0.608717
O55   O     O_R   0.085450 0.646150 0.227070 -0.608326
O56   O     O_R   0.914550 0.353850 0.772930 -0.595326
O57   O     O_R   0.353850 0.914550 0.772930 -0.595358
O58   O     O_R   0.646150 0.085450 0.227070 -0.608416
O59   O     O_R   0.914550 0.646150 0.772930 -0.608793
O60   O     O_R   0.085450 0.353850 0.227070 -0.595680
O61   O     O_R   0.646150 0.085450 0.772930 -0.595395
O62   O     O_R   0.060740 0.500000 0.662560 -0.638016
O63   O     O_R   0.353850 0.914550 0.227070 -0.608441
O64   O     O_R   0.085450 0.353850 0.772930 -0.608806
O65   O     O_R   0.914550 0.646150 0.227070 -0.595697
O66   O     O_3   0.090366 0.695829 0.686581 -0.761919
O67   O     O_3   0.760599 0.447708 0.216155 -0.744715
O68   O     O_3   0.447732 0.239420 0.783823 -0.744836
O69   O     O_3   0.695704 0.909515 0.313494 -0.762255
O70   O     O_3   0.909629 0.304179 0.686577 -0.761910
O71   O     O_3   0.239399 0.552292 0.216155 -0.744729
O72   O     O_3   0.552259 0.760570 0.783813 -0.744900
O73   O     O_R   0.939260 0.500000 0.337440 -0.638112
O74   O     O_3   0.304297 0.090473 0.313485 -0.762270
O75   O     O_3   0.090491 0.304306 0.313497 -0.762273
O76   O     O_3   0.760575 0.552267 0.783821 -0.744844
O77   O     O_3   0.447706 0.760596 0.216156 -0.744690
O78   O     O_3   0.695823 0.090366 0.686580 -0.761921
O79   O     O_3   0.909499 0.695689 0.313502 -0.762294
O80   O     O_3   0.239433 0.447740 0.783810 -0.744868
O81   O     O_3   0.552291 0.239406 0.216160 -0.744685
O82   O     O_3   0.304176 0.909634 0.686580 -0.761923
O83   O     O_3   0.739394 0.052282 0.283849 -0.744863
O84   O     O_R   0.500000 0.060740 0.662560 -0.638113
O85   O     O_3   0.409539 0.804259 0.813480 -0.762222
O86   O     O_3   0.804239 0.590429 0.186548 -0.762004
O87   O     O_3   0.052284 0.260581 0.716172 -0.744657
O88   O     O_3   0.260623 0.947697 0.283874 -0.744696
O89   O     O_3   0.590451 0.195743 0.813476 -0.762225
O90   O     O_3   0.195759 0.409568 0.186546 -0.762001
O91   O     O_3   0.947727 0.739431 0.716186 -0.744655
O92   O     O_3   0.739422 0.947720 0.716175 -0.744642
O93   O     O_3   0.409602 0.195791 0.186562 -0.761935
O94   O     O_3   0.804229 0.409577 0.813460 -0.762094
O95   O     O_R   0.500000 0.939260 0.337440 -0.638182
O96   O     O_3   0.052283 0.739392 0.283851 -0.744870
O97   O     O_3   0.260570 0.052271 0.716188 -0.744662
O98   O     O_3   0.590391 0.804207 0.186569 -0.761923
O99   O     O_3   0.195774 0.590419 0.813459 -0.762098
O100  O     O_3   0.947706 0.260615 0.283864 -0.744869
O101  O     O_3   0.324482 0.572875 0.857874 -0.646376
O102  O     O_3   0.988777 0.114960 0.276653 -0.623564
O103  O     O_3   0.114930 0.011207 0.723515 -0.623138
O104  O     O_3   0.572891 0.675531 0.142126 -0.646580
O105  O     O_3   0.675549 0.427089 0.857897 -0.646393
O106  O     O_R   0.939260 0.500000 0.662560 -0.638021
O107  O     O_3   0.011232 0.885054 0.276655 -0.623526
O108  O     O_3   0.885057 0.988799 0.723508 -0.623140
O109  O     O_3   0.427118 0.324476 0.142132 -0.646581
O110  O     O_3   0.324454 0.427111 0.142124 -0.646581
O111  O     O_3   0.988794 0.885069 0.723517 -0.623142
O112  O     O_3   0.114969 0.988773 0.276675 -0.623466
O113  O     O_3   0.572920 0.324414 0.857909 -0.646363
O114  O     O_3   0.675561 0.572905 0.142115 -0.646592
O115  O     O_3   0.011202 0.114946 0.723504 -0.623147
O116  O     O_3   0.885053 0.011227 0.276640 -0.623547
Zn1   Zn    Zn3+2 1.000000 0.586740 0.782740 1.075621
Zn2   Zn    Zn3+2 0.500000 0.913260 0.717260 1.075694
Zn3   Zn    Zn3+2 0.913260 0.500000 0.282740 1.075506
Zn4   Zn    Zn3+2 0.086740 0.500000 0.717260 1.075703
Zn5   Zn    Zn3+2 0.500000 0.913260 0.282740 1.075523
Zn6   Zn    Zn3+2 0.500000 0.086740 0.717260 1.075687
Zn7   Zn    Zn3+2 0.086740 0.500000 0.282740 1.075495
Zn8   Zn    Zn3+2 0.913260 0.500000 0.717260 1.075699
Zn9   Zn    Zn3+2 1.000000 0.413260 0.217260 1.075764
Zn10  Zn    Zn3+2 0.413260 0.000000 0.782740 1.075650
Zn11  Zn    Zn3+2 0.586740 0.000000 0.217260 1.075738
Zn12  Zn    Zn3+2 1.000000 0.413260 0.782740 1.075604
Zn13  Zn    Zn3+2 0.000000 0.586740 0.217260 1.075755
Zn14  Zn    Zn3+2 0.586740 0.000000 0.782740 1.075615
Zn15  Zn    Zn3+2 0.413260 0.000000 0.217260 1.075761
Zn16  Zn    Zn3+2 0.500000 0.086740 0.282740 1.075435

loop_
_geom_bond_atom_site_label_1
_geom_bond_atom_site_label_2
_ccdc_geom_bond_type
O35   Zn4   S    
O36   Zn3   S    
C171  C193  A    
C9    O73   A    
C169  C191  A    
H18   O75   S    
C174  H3    S    
O54   Zn10  S    
C135  C168  A    
Br7   C57   S    
C173  H2    S    
Br13  C157  S    
O13   Zn2   S    
C167  C181  A    
C20   O34   A    
O51   Zn16  S    
C73   C83   A    
H42   O99   S    
C87   O116  S    
C176  H5    S    
C47   C82   A    
C32   O46   A    
C126  C161  A    
C108  C193  A    
C60   C137  A    
C111  C200  A    
C127  C162  A    
C67   C103  A    
C63   O94   S    
C45   C116  A    
C67   C129  A    
H62   O4    S    
C115  C150  A    
C65   C131  A    
C118  C153  A    
C9    O2    A    
C122  C158  A    
C143  C145  A    
C180  C188  A    
C11   O21   A    
H65   O7    S    
O34   Zn16  S    
O58   Zn11  S    
H66   O8    S    
C63   C133  A    
C32   C159  S    
C190  C198  A    
C22   O65   A    
O22   Zn11  S    
C8    O106  A    
C11   C182  S    
Br10  C124  S    
C69   C128  A    
C1    C157  A    
C2    C35   A    
C90   C126  A    
C28   C154  S    
C8    O62   A    
H69   O10   S    
O27   Zn14  S    
C55   C141  A    
C62   O93   S    
Br9   C112  S    
C7    C68   A    
C144  C147  A    
C58   O89   S    
C34   O66   S    
C131  C160  A    
C146  C194  A    
C116  C121  A    
C167  H45   S    
O33   Zn2   S    
C7    C114  A    
O52   Zn1   S    
C61   C96   A    
O64   Zn12  S    
H29   O86   S    
C163  C194  A    
C120  C155  A    
C67   O99   S    
C90   C147  A    
C65   O97   S    
C5    C46   A    
C180  H8    S    
C171  H78   S    
C85   O4    S    
C31   O45   A    
C43   O75   S    
C177  H6    S    
H21   O78   S    
C102  O104  S    
C137  C152  A    
C170  C183  A    
C17   C152  S    
H27   O83   S    
C66   C102  A    
C99   O107  S    
H16   O72   S    
H60   O116  S    
C92   O112  S    
C54   C89   A    
O49   Zn14  S    
C31   O56   A    
C77   O14   S    
C40   O71   S    
C170  C192  A    
C171  C184  A    
H75   O17   S    
C133  C139  A    
C4    C109  A    
C80   O11   S    
C115  C122  A    
C28   O48   A    
C55   O87   S    
C6    C111  A    
C134  C154  A    
C84   O7    S    
H49   O105  S    
C72   O17   S    
C30   C156  S    
C15   O28   A    
C36   C126  A    
C31   C158  S    
C164  C182  A    
C170  H67   S    
C64   C132  A    
C104  O102  S    
C78   O10   S    
Br5   C35   S    
C5    C110  A    
C52   C144  A    
C46   C190  A    
C142  C149  A    
C61   O92   S    
C22   C149  S    
H70   O11   S    
C27   C162  S    
C56   C140  A    
C41   C76   A    
C164  C195  A    
C95   C96   A    
C52   C87   A    
O40   Zn14  S    
H71   O12   S    
C50   O81   S    
C70   O19   S    
H39   O96   S    
C72   C84   A    
C19   C145  S    
O65   Zn13  S    
C92   C99   A    
C39   C74   A    
H76   O18   S    
C79   C145  A    
C129  C143  A    
C128  C144  A    
C51   O82   S    
C76   C80   A    
H25   O81   S    
C119  C154  A    
O24   Zn13  S    
Br3   C13   S    
C19   O33   A    
C169  H56   S    
C71   C85   A    
O23   Zn10  S    
Br4   C24   S    
C95   O111  S    
H54   O111  S    
C20   C147  S    
H40   O97   S    
O56   Zn12  S    
C64   O96   S    
H50   O107  S    
C88   C103  A    
O28   Zn9   S    
C3    C180  A    
H61   O3    S    
C163  H1    S    
C82   O9    S    
C51   C79   A    
H11   O68   S    
C50   C85   A    
C61   C136  A    
O40   Zn10  S    
C177  C199  A    
C108  C197  A    
C98   O105  S    
C13   C68   A    
H15   O71   S    
C32   O53   A    
C117  C152  A    
H37   O93   S    
O2    Zn7   S    
O29   Zn13  S    
H35   O91   S    
C19   O57   A    
C33   O54   A    
C4    C172  A    
O55   Zn13  S    
C5    C173  A    
C38   C123  A    
C113  C123  A    
C107  C196  A    
H48   O104  S    
O21   Zn16  S    
C105  C194  A    
C18   C153  S    
C141  C148  A    
C172  H80   S    
C48   O79   S    
C93   C98   A    
C56   O88   S    
C21   C148  S    
C23   O37   A    
Br11  C135  S    
O50   Zn9   S    
C167  C189  A    
C60   O91   S    
C41   O72   S    
C6    C174  A    
C70   C86   A    
C47   O78   S    
C59   C94   A    
C12   C187  S    
C106  C191  A    
C30   O55   A    
O29   Zn7   S    
C175  H4    S    
C118  C119  A    
C130  C142  A    
C173  C186  A    
C43   C118  A    
Br1   C1    S    
O51   Zn15  S    
H33   O90   S    
C54   O86   S    
C1    C189  A    
C89   O114  S    
C166  H34   S    
C40   C121  A    
C112  C146  A    
C60   C95   A    
H9    O66   S    
C65   C100  A    
C53   C143  A    
O32   Zn7   S    
C107  C192  A    
C23   O61   A    
H28   O85   S    
C16   C186  S    
C124  C179  A    
C91   C100  A    
H14   O70   S    
H30   O87   S    
Br12  C146  S    
C97   O109  S    
C136  C137  A    
O53   Zn11  S    
O1    Zn8   S    
O48   Zn15  S    
C49   C101  A    
H43   O100  S    
C26   O50   A    
H20   O77   S    
H41   O98   S    
C25   O63   A    
C38   O69   S    
C178  H7    S    
O73   Zn3   S    
C165  C183  A    
H22   O79   S    
H73   O15   S    
C12   O26   A    
C79   C127  A    
C55   C91   A    
C100  O103  S    
H59   O115  S    
C87   C104  A    
C116  C151  A    
C105  C189  A    
H57   O113  S    
H47   O103  S    
C75   O16   S    
O25   Zn12  S    
C71   O20   S    
C165  C196  A    
O51   Zn11  S    
C42   C77   A    
C4    C35   A    
C39   O70   S    
C178  C200  A    
C103  O101  S    
H19   O76   S    
O57   Zn10  S    
C29   C155  S    
C24   C57   A    
C133  C158  A    
C121  C156  A    
C15   O24   A    
C40   C75   A    
C94   O110  S    
C129  C162  A    
C166  C197  A    
C176  C185  A    
C43   C78   A    
C47   C115  A    
Br15  C179  S    
C165  H23   S    
C3    C114  A    
O41   Zn4   S    
O95   Zn5   S    
C37   O68   S    
C157  C195  A    
C124  C192  A    
C66   C130  A    
C101  C148  A    
C17   O31   A    
H13   O69   S    
O26   Zn15  S    
C107  C108  A    
C166  C184  A    
O62   Zn4   S    
C125  C160  A    
C76   O12   S    
O106  Zn8   S    
C164  H12   S    
C177  C186  A    
C138  C153  A    
C54   C142  A    
C101  C125  A    
O1    Zn4   S    
C109  C198  A    
C33   O47   A    
O40   Zn2   S    
C64   C99   A    
C130  C159  A    
O61   Zn14  S    
C176  C198  A    
C81   O8    S    
C75   C81   A    
O40   Zn6   S    
C105  C106  A    
H77   O19   S    
C83   O6    S    
C44   C80   A    
O59   Zn1   S    
C109  C110  A    
C42   C119  A    
C175  C188  A    
H17   O74   S    
C93   O113  S    
C74   O15   S    
H38   O94   S    
O37   Zn6   S    
C18   O60   A    
Br8   C68   S    
C45   C81   A    
H10   O67   S    
C49   C84   A    
C113  C149  A    
O30   Zn1   S    
H64   O6    S    
Br6   C46   S    
C23   C150  S    
C21   O35   A    
C26   O39   A    
C9    C184  S    
C14   O23   A    
C86   O5    S    
C29   O43   A    
C52   O83   S    
C58   C139  A    
C37   C125  A    
C26   C161  S    
C174  C187  A    
C179  C197  A    
O47   Zn6   S    
C128  C161  A    
O45   Zn8   S    
C106  C195  A    
C132  C140  A    
C44   C117  A    
C33   C160  S    
C17   O59   A    
C10   O13   A    
C77   C78   A    
H63   O5    S    
Br2   C2    S    
C123  C159  A    
C2    C199  A    
C58   C93   A    
C7    C175  A    
C69   O100  S    
C39   C122  A    
C30   O44   A    
H74   O16   S    
C10   C181  S    
H53   O110  S    
Br16  C190  S    
O39   Zn3   S    
C27   O41   A    
H51   O108  S    
C44   O76   S    
H79   O20   S    
C139  C150  A    
H32   O89   S    
H26   O82   S    
O1    Zn12  S    
C18   O32   A    
C172  C185  A    
C132  C156  A    
C8    C183  S    
C21   O64   A    
C29   O49   A    
C16   O25   A    
C41   C120  A    
C112  C191  A    
C169  C182  A    
H46   O102  S    
C73   O18   S    
C27   O52   A    
H58   O114  S    
C11   O95   A    
C66   O98   S    
O63   Zn15  S    
C50   C90   A    
H72   O14   S    
H55   O112  S    
C49   O80   S    
C168  C196  A    
O84   Zn6   S    
C48   C83   A    
O42   Zn16  S    
O31   Zn8   S    
C56   C92   A    
C38   C73   A    
C3    C24   A    
H44   O101  S    
C42   O74   S    
C136  C155  A    
C13   C200  A    
C20   O58   A    
C163  C181  A    
C140  C151  A    
C91   O115  S    
O60   Zn9   S    
C12   O22   A    
C69   C104  A    
C117  C120  A    
H68   O9    S    
H31   O88   S    
O46   Zn5   S    
C22   O36   A    
C94   C97   A    
O44   Zn7   S    
O1    Zn1   S    
C28   O42   A    
C131  C141  A    
C34   C127  A    
C62   C134  A    
C53   C88   A    
H24   O80   S    
C135  C193  A    
H52   O109  S    
C36   C71   A    
C36   O67   S    
Br14  C168  S    
C14   C188  S    
C14   O27   A    
C59   O90   S    
C111  C114  A    
C53   O85   S    
C59   C138  A    
O43   Zn2   S    
C10   O84   A    
C88   O3    S    
C178  C187  A    
C25   C151  S    
O29   Zn3   S    
C37   C72   A    
C89   C102  A    
O29   Zn9   S    
C15   C185  S    
C110  C199  A    
C34   C70   A    
C45   O77   S    
C62   C97   A    
C96   O108  S    
C48   C113  A    
H36   O92   S    
O38   Zn5   S    
C134  C138  A    
C63   C98   A    
C25   O38   A    
O51   Zn5   S    
C16   O30   A    
C6    C57   A    
C74   C82   A    
C51   C86   A    
