data_mof_unit_20826.cif
_audit_creation_date              2013-03-05T15:48:36-0500
_audit_creation_method            fapswitch 2.2
_symmetry_space_group_name_H-M    P1
_symmetry_Int_Tables_number       1
_space_group_crystal_system       triclinic
_cell_length_a                    16.82773
_cell_length_b                    16.81607
_cell_length_c                    42.24874
_cell_angle_alpha                 90.079938
_cell_angle_beta                  90.020806
_cell_angle_gamma                 120.26627
_cell_volume                      10325.7630664

loop_
_atom_site_label
_atom_site_type_symbol
_atom_site_description
_atom_site_fract_x
_atom_site_fract_y
_atom_site_fract_z
_atom_type_partial_charge
O1    O     O_R   0.509640 0.171340 0.784000 -0.467690
O2    O     O_R   0.661700 0.490360 0.716000 -0.521862
O3    O     O_R   0.828660 0.338300 0.784000 -0.463513
O4    O     O_R   0.509640 0.171340 0.716000 -0.533235
O5    O     O_R   0.661700 0.490360 0.784000 -0.487868
O6    O     O_R   0.828660 0.338300 0.716000 -0.522111
O7    O     O_R   0.171340 0.509640 0.284000 -0.536285
O8    O     O_R   0.490360 0.661700 0.216000 -0.454763
O9    O     O_R   0.338300 0.828660 0.284000 -0.533429
O10   O     O_R   0.171340 0.509640 0.216000 -0.468923
O11   O     O_R   0.490360 0.661700 0.284000 -0.531320
O12   O     O_R   0.338300 0.828660 0.216000 -0.457094
O13   O     O_R   0.539230 0.345420 0.781810 -0.423086
O14   O     O_R   0.806190 0.460770 0.718190 -0.496643
O15   O     O_R   0.654580 0.193810 0.781810 -0.440528
O16   O     O_R   0.539230 0.345420 0.718190 -0.489151
O17   O     O_R   0.806190 0.460770 0.781810 -0.430595
O18   O     O_R   0.654580 0.193810 0.718190 -0.490758
O19   O     O_R   0.345420 0.539230 0.281810 -0.494653
O20   O     O_R   0.460770 0.806190 0.218190 -0.438571
O21   O     O_R   0.193810 0.654580 0.281810 -0.489400
O22   O     O_R   0.345420 0.539230 0.218190 -0.435714
O23   O     O_R   0.460770 0.806190 0.281810 -0.489233
O24   O     O_R   0.193810 0.654580 0.218190 -0.438190
C1    C     C_R   0.582208 0.426588 0.794469 0.574267
C2    C     C_R   0.842991 0.416308 0.705557 0.570784
C3    C     C_R   0.573715 0.156993 0.794607 0.605594
C4    C     C_R   0.583767 0.426260 0.705337 0.565198
C5    C     C_R   0.847381 0.419851 0.793452 0.616320
C6    C     C_R   0.573605 0.158203 0.705237 0.566850
C7    C     C_R   0.426224 0.584207 0.294692 0.567051
C8    C     C_R   0.417718 0.844192 0.205620 0.598570
C9    C     C_R   0.158552 0.573801 0.294944 0.562310
C10   C     C_R   0.426467 0.581805 0.205594 0.607010
C11   C     C_R   0.415410 0.841320 0.294974 0.562516
C12   C     C_R   0.155425 0.573094 0.205728 0.606985
Cr1   Cr    Cr6+3 0.530290 0.262330 0.750000 1.096604
Cr2   Cr    Cr6+3 0.732040 0.469710 0.750000 1.112660
Cr3   Cr    Cr6+3 0.737670 0.267960 0.750000 1.100341
Cr4   Cr    Cr6+3 0.262330 0.530290 0.250000 1.086534
Cr5   Cr    Cr6+3 0.469710 0.732040 0.250000 1.104150
Cr6   Cr    Cr6+3 0.267960 0.737670 0.250000 1.101010
O25   O     O_3   0.666667 0.333333 0.750000 -0.285102
O26   O     O_3   0.333333 0.666667 0.250000 -0.283335
H1    H     H_    0.948837 0.284222 0.975387 0.171755
H2    H     H_    0.341807 0.989605 0.527874 0.170948
H3    H     H_    0.693773 0.694716 0.970021 0.174239
H4    H     H_    0.998577 0.347671 0.529597 0.170184
H5    H     H_    0.293528 0.964711 0.968529 0.173453
H6    H     H_    0.632080 0.650957 0.528255 0.174813
H7    H     H_    0.362858 0.017750 0.471254 0.169232
H8    H     H_    0.956247 0.289046 0.033032 0.172385
H9    H     H_    0.646838 0.641491 0.471327 0.172297
H10   H     H_    0.292976 0.970235 0.026163 0.170039
H11   H     H_    0.974530 0.340902 0.472778 0.170120
H12   H     H_    0.693295 0.694660 0.027896 0.171646
C13   C     C_R   0.905533 0.463209 0.822190 0.008505
C14   C     C_R   0.556605 0.107788 0.674927 -0.040836
C15   C     C_R   0.540400 0.442936 0.823489 -0.033534
C16   C     C_R   0.892702 0.449760 0.675177 -0.035816
C17   C     C_R   0.559172 0.105257 0.824805 0.009464
C18   C     C_R   0.550560 0.439764 0.674363 -0.038330
C19   C     C_R   0.447517 0.886857 0.326327 -0.037822
C20   C     C_R   0.098062 0.556540 0.176649 0.004730
C21   C     C_R   0.440764 0.550680 0.325293 -0.037459
C22   C     C_R   0.456686 0.897986 0.175738 0.001913
C23   C     C_R   0.113299 0.559451 0.326350 -0.038811
C24   C     C_R   0.440584 0.541219 0.175760 0.005496
C25   C     C_R   0.949173 0.558927 0.036531 0.020887
C26   C     C_R   0.611490 0.973600 0.469532 0.053639
C27   C     C_R   0.425187 0.414633 0.031027 0.020386
C28   C     C_R   0.032562 0.639237 0.469586 0.053946
C29   C     C_R   0.586215 0.015710 0.032247 0.017617
C30   C     C_R   0.374226 0.365457 0.465160 0.050700
C31   C     C_R   0.606526 0.974298 0.536568 0.050836
C32   C     C_R   0.975415 0.569964 0.970348 0.020820
C33   C     C_R   0.378036 0.359654 0.532088 0.045232
C34   C     C_R   0.573519 0.977846 0.966750 0.019193
C35   C     C_R   0.030722 0.635759 0.536656 0.048127
C36   C     C_R   0.404442 0.438747 0.966028 0.020321
C37   C     C_R   0.943377 0.555114 0.069717 0.453449
C38   C     C_R   0.607643 0.967080 0.436198 0.456404
C39   C     C_R   0.435938 0.407317 0.063698 0.445697
C40   C     C_R   0.038393 0.640326 0.436251 0.458721
C41   C     C_R   0.589290 0.030953 0.065027 0.447031
C42   C     C_R   0.371124 0.374867 0.432081 0.454410
C43   C     C_R   0.606007 0.982645 0.569801 0.442822
C44   C     C_R   0.989027 0.573822 0.937455 0.443710
C45   C     C_R   0.386386 0.357058 0.565234 0.450629
C46   C     C_R   0.569547 0.967976 0.933663 0.454191
C47   C     C_R   0.021149 0.628164 0.569878 0.452300
C48   C     C_R   0.399332 0.449993 0.933262 0.449423
O27   O     O_2   0.922390 0.604862 0.084175 -0.454034
O28   O     O_2   0.654172 0.941183 0.422287 -0.526862
O29   O     O_2   0.392758 0.332837 0.076919 -0.464238
O30   O     O_2   0.065660 0.712620 0.421983 -0.522241
O31   O     O_2   0.662045 0.061879 0.079398 -0.466754
O32   O     O_2   0.300887 0.323416 0.417524 -0.524612
O33   O     O_2   0.671772 0.992887 0.585344 -0.522733
O34   O     O_2   0.017587 0.646900 0.923529 -0.471847
O35   O     O_2   0.340560 0.284636 0.579382 -0.527335
O36   O     O_2   0.624237 0.952634 0.919836 -0.458503
O37   O     O_2   0.013304 0.685974 0.584863 -0.526901
O38   O     O_2   0.325008 0.411657 0.919717 -0.457984
N1    N     N_R   0.967048 0.498907 0.086057 -0.355946
N2    N     N_R   0.547871 0.985560 0.419464 -0.374700
N3    N     N_R   0.491943 0.485856 0.081087 -0.354448
N4    N     N_R   0.017277 0.560526 0.419881 -0.375550
N5    N     N_R   0.508624 0.004466 0.081356 -0.352354
N6    N     N_R   0.446013 0.445263 0.416477 -0.374983
N7    N     N_R   0.532678 0.982963 0.584643 -0.377465
N8    N     N_R   0.968466 0.494711 0.920769 -0.361670
N9    N     N_R   0.449117 0.435695 0.581458 -0.369741
N10   N     N_R   0.507736 0.982153 0.916598 -0.353754
N11   N     N_R   0.015959 0.552891 0.585233 -0.367355
N12   N     N_R   0.479582 0.501042 0.916211 -0.353807
C49   C     C_R   0.968462 0.426969 0.070432 0.449715
C50   C     C_R   0.493222 0.012497 0.435335 0.449604
C51   C     C_R   0.559699 0.563440 0.065602 0.448756
C52   C     C_R   0.988380 0.478860 0.436055 0.448919
C53   C     C_R   0.430511 0.989325 0.065127 0.448135
C54   C     C_R   0.524659 0.505270 0.433196 0.446144
C55   C     C_R   0.457018 0.968933 0.567197 0.458773
C56   C     C_R   0.954200 0.416770 0.937014 0.444313
C57   C     C_R   0.502862 0.517229 0.565262 0.453096
C58   C     C_R   0.432422 0.977834 0.931695 0.446783
C59   C     C_R   0.024203 0.486889 0.568256 0.445785
C60   C     C_R   0.558496 0.566036 0.931937 0.445984
O39   O     O_2   0.982302 0.372655 0.085188 -0.477084
O40   O     O_2   0.447788 0.037940 0.420387 -0.529858
O41   O     O_2   0.613684 0.631483 0.080711 -0.467331
O42   O     O_2   0.961593 0.407031 0.421356 -0.531238
O43   O     O_2   0.361031 0.972544 0.079673 -0.468924
O44   O     O_2   0.594439 0.560046 0.419038 -0.530318
O45   O     O_2   0.387547 0.956843 0.580729 -0.517232
O46   O     O_2   0.935853 0.346578 0.922550 -0.477963
O47   O     O_2   0.550219 0.588838 0.579882 -0.516543
O48   O     O_2   0.373069 0.981789 0.916278 -0.474222
O49   O     O_2   0.029011 0.425773 0.582220 -0.540757
O50   O     O_2   0.628041 0.617149 0.917053 -0.470572
C61   C     C_R   0.958208 0.418727 0.037284 0.024667
C62   C     C_R   0.483881 0.003350 0.468266 0.066036
C63   C     C_R   0.564251 0.565438 0.032230 0.018859
C64   C     C_R   0.996220 0.479295 0.469050 0.065214
C65   C     C_R   0.429520 0.988601 0.031759 0.016283
C66   C     C_R   0.522033 0.508607 0.466200 0.065332
C67   C     C_R   0.462923 0.976709 0.534178 0.064278
C68   C     C_R   0.957630 0.416954 0.970340 0.024376
C69   C     C_R   0.508758 0.516502 0.532285 0.063532
C70   C     C_R   0.426984 0.974626 0.964991 0.020150
C71   C     C_R   0.018834 0.485131 0.535181 0.062968
C72   C     C_R   0.559945 0.570961 0.965302 0.020928
C73   C     C_R   0.956265 0.489648 0.020275 -0.035283
C74   C     C_R   0.544674 0.985414 0.485480 -0.019995
C75   C     C_R   0.491532 0.493867 0.015181 -0.035273
C76   C     C_R   0.017082 0.559721 0.485925 -0.020456
C77   C     C_R   0.505764 0.995289 0.015516 -0.034428
C78   C     C_R   0.446985 0.437007 0.482267 -0.020880
C79   C     C_R   0.537977 0.978579 0.518788 -0.018931
C80   C     C_R   0.962583 0.491932 0.986922 -0.031494
C81   C     C_R   0.444404 0.437707 0.515603 -0.023184
C82   C     C_R   0.501910 0.982231 0.982398 -0.034508
C83   C     C_R   0.022688 0.560470 0.519300 -0.020676
C84   C     C_R   0.485310 0.501242 0.982134 -0.036342
C85   C     C_R   0.954746 0.633275 0.019455 -0.136368
C86   C     C_R   0.676485 0.963473 0.487409 -0.112068
C87   C     C_R   0.347387 0.348448 0.014301 -0.140975
C88   C     C_R   0.046282 0.716511 0.487079 -0.109540
C89   C     C_R   0.658694 0.014135 0.016261 -0.146676
C90   C     C_R   0.304621 0.289897 0.481794 -0.114326
C91   C     C_R   0.676008 0.967148 0.520531 -0.114350
C92   C     C_R   0.971978 0.640812 0.986915 -0.140668
C93   C     C_R   0.308655 0.285314 0.514829 -0.116277
C94   C     C_R   0.650589 0.991240 0.984155 -0.144409
C95   C     C_R   0.042347 0.713663 0.520195 -0.112523
C96   C     C_R   0.334572 0.363266 0.982547 -0.138572
C97   C     C_R   0.955990 0.345176 0.020580 -0.121156
C98   C     C_R   0.411802 0.006074 0.484085 -0.085511
C99   C     C_R   0.635919 0.638902 0.015461 -0.124636
C100  C     C_R   0.988676 0.402946 0.485315 -0.085744
C101  C     C_R   0.352578 0.975606 0.014329 -0.130294
C102  C     C_R   0.589464 0.584533 0.483274 -0.084682
C103  C     C_R   0.399173 0.988987 0.516489 -0.086744
C104  C     C_R   0.952671 0.342874 0.987501 -0.127725
C105  C     C_R   0.580509 0.590355 0.515833 -0.083103
C106  C     C_R   0.352365 0.971177 0.981280 -0.124503
C107  C     C_R   0.003361 0.407174 0.517861 -0.088294
C108  C     C_R   0.635646 0.639549 0.982290 -0.121605
C109  C     C_R   0.964340 0.461067 0.142861 0.254903
C110  C     C_R   0.429822 0.876482 0.383721 0.217551
C111  C     C_R   0.537805 0.517655 0.137876 0.252727
C112  C     C_R   0.123017 0.548780 0.383659 0.218684
C113  C     C_R   0.477727 0.018051 0.138030 0.257430
C114  C     C_R   0.444681 0.561658 0.382746 0.216320
C115  C     C_R   0.542619 0.106870 0.617606 0.215282
C116  C     C_R   0.999913 0.461804 0.865920 0.259488
C117  C     C_R   0.568508 0.447828 0.617107 0.219748
C118  C     C_R   0.470561 0.972416 0.859502 0.256716
C119  C     C_R   0.886157 0.446997 0.617673 0.212905
C120  C     C_R   0.516573 0.544085 0.859499 0.249106
C121  C     C_R   0.011973 0.474619 0.172060 -0.073169
C122  C     C_R   0.390457 0.849571 0.353436 -0.099353
C123  C     C_R   0.523393 0.541409 0.168972 -0.063922
C124  C     C_R   0.150328 0.538438 0.353225 -0.099646
C125  C     C_R   0.456619 0.980840 0.169207 -0.062418
C126  C     C_R   0.456686 0.604063 0.353111 -0.101450
C127  C     C_R   0.537620 0.142684 0.647121 -0.095354
C128  C     C_R   0.972435 0.442620 0.833550 -0.040105
C129  C     C_R   0.607605 0.460881 0.647342 -0.111613
C130  C     C_R   0.481435 0.016457 0.829776 -0.075191
C131  C     C_R   0.849823 0.403092 0.646724 -0.100194
C132  C     C_R   0.541664 0.527012 0.829050 -0.069922
C133  C     C_R   0.131439 0.625517 0.152973 0.219165
C134  C     C_R   0.539785 0.958860 0.330046 0.167161
C135  C     C_R   0.368426 0.502858 0.153143 0.221319
C136  C     C_R   0.041084 0.578665 0.330396 0.165449
C137  C     C_R   0.491171 0.862150 0.152583 0.219415
C138  C     C_R   0.425785 0.460195 0.327512 0.166161
C139  C     C_R   0.567287 0.029603 0.673005 0.161586
C140  C     C_R   0.886566 0.521719 0.840656 0.179871
C141  C     C_R   0.457997 0.417963 0.670777 0.164893
C142  C     C_R   0.625929 0.147016 0.849080 0.227492
C143  C     C_R   0.979045 0.532147 0.674132 0.158515
C144  C     C_R   0.497030 0.371280 0.846067 0.185469
C145  C     C_R   0.088826 0.608810 0.123023 -0.009942
C146  C     C_R   0.575569 0.994048 0.360669 -0.025690
C147  C     C_R   0.382370 0.480518 0.122198 -0.007951
C148  C     C_R   0.005986 0.577701 0.361130 -0.024994
C149  C     C_R   0.510245 0.897328 0.121527 -0.005217
C150  C     C_R   0.429531 0.423553 0.357391 -0.020296
C151  C     C_R   0.552921 0.982426 0.643704 -0.012321
C152  C     C_R   0.890674 0.516193 0.873762 0.018038
C153  C     C_R   0.422476 0.418203 0.640213 -0.025611
C154  C     C_R   0.610661 0.107769 0.879588 -0.006716
C155  C     C_R   0.022759 0.568379 0.644542 -0.022819
C156  C     C_R   0.469448 0.386655 0.875981 -0.024486
C157  C     C_R   0.005578 0.524360 0.117731 0.181864
C158  C     C_R   0.519882 0.950953 0.387547 0.175862
C159  C     C_R   0.469732 0.492184 0.114038 0.180021
C160  C     C_R   0.049633 0.565095 0.387795 0.178234
C161  C     C_R   0.500913 0.974558 0.114013 0.183182
C162  C     C_R   0.436457 0.474300 0.385144 0.177157
C163  C     C_R   0.544149 0.023944 0.615735 0.167803
C164  C     C_R   0.953226 0.491158 0.886710 0.188076
C165  C     C_R   0.477834 0.430070 0.613287 0.175351
C166  C     C_R   0.531313 0.019806 0.884814 0.182416
C167  C     C_R   0.974313 0.525892 0.616264 0.177461
C168  C     C_R   0.485629 0.476234 0.883545 0.172512
H13   H     H_    0.979604 0.700705 0.974588 0.168069
H14   H     H_    0.729140 0.962785 0.533550 0.165213
H15   H     H_    0.272657 0.312764 0.970479 0.163428
H16   H     H_    0.049652 0.773009 0.532885 0.165894
H17   H     H_    0.707180 0.989539 0.972612 0.170526
H18   H     H_    0.256110 0.224679 0.526868 0.163041
H19   H     H_    0.729026 0.954765 0.475827 0.163541
H20   H     H_    0.951094 0.688293 0.031468 0.167947
H21   H     H_    0.248234 0.233351 0.469271 0.162874
H22   H     H_    0.720313 0.027203 0.028792 0.167270
H23   H     H_    0.058020 0.778550 0.475196 0.164212
H24   H     H_    0.294054 0.287969 0.026176 0.161942
N13   N     N_R   0.882598 0.597454 0.825808 0.096226
O51   O     O_R   0.922577 0.627959 0.798552 -0.280217
O52   O     O_R   0.863151 0.651133 0.842092 -0.308345
N14   N     N_R   0.591326 0.997561 0.700932 0.064770
O53   O     O_R   0.663338 0.987957 0.700984 -0.352028
O54   O     O_R   0.544493 0.982916 0.726922 -0.374422
N15   N     N_R   0.480936 0.281272 0.838709 0.084172
O55   O     O_R   0.526054 0.249627 0.854011 -0.365524
O56   O     O_R   0.405680 0.223882 0.823897 -0.330913
N16   N     N_R   0.022787 0.577037 0.703254 0.068469
O57   O     O_R   0.035777 0.658438 0.709686 -0.345816
O58   O     O_R   0.038214 0.531942 0.725080 -0.356799
N17   N     N_R   0.708780 0.232246 0.842992 0.070201
O59   O     O_R   0.786375 0.233414 0.840259 -0.325988
O60   O     O_R   0.708609 0.309379 0.844325 -0.364536
N18   N     N_R   0.401177 0.397361 0.698381 0.069869
O61   O     O_R   0.328156 0.316529 0.701559 -0.365035
O62   O     O_R   0.428603 0.454664 0.722074 -0.370894
N19   N     N_R   0.595770 0.997920 0.302415 0.070843
O63   O     O_R   0.568844 0.032185 0.280076 -0.369227
O64   O     O_R   0.665802 0.986745 0.297408 -0.367276
N20   N     N_R   0.212204 0.712541 0.158885 0.080356
O65   O     O_R   0.203148 0.780854 0.168765 -0.309770
O66   O     O_R   0.289909 0.729359 0.146643 -0.328016
N21   N     N_R   0.408508 0.406583 0.299189 0.068408
O67   O     O_R   0.329808 0.331285 0.295325 -0.361531
O68   O     O_R   0.466090 0.438795 0.275678 -0.375307
N22   N     N_R   0.501956 0.785276 0.160069 0.081339
O69   O     O_R   0.581492 0.800080 0.169988 -0.313091
O70   O     O_R   0.442410 0.704487 0.149231 -0.330299
N23   N     N_R   0.002479 0.597180 0.303032 0.070907
O71   O     O_R   0.012951 0.678597 0.298984 -0.362716
O72   O     O_R   0.968750 0.537368 0.280113 -0.356650
N24   N     N_R   0.280472 0.490639 0.161105 0.083843
O73   O     O_R   0.217463 0.411585 0.172181 -0.348741
O74   O     O_R   0.256672 0.547183 0.149614 -0.329298
C169  C     C_3   0.823407 0.529566 0.894230 -0.193458
C170  C     C_3   0.759863 0.443626 0.913627 -0.330495
C171  C     C_3   0.722792 0.467641 0.942831 -0.464402
H25   H     H_    0.780132 0.514610 0.958660 0.174448
H26   H     H_    0.683560 0.501317 0.935670 0.188960
H27   H     H_    0.676644 0.404097 0.956226 0.147709
H28   H     H_    0.701895 0.395793 0.898234 0.198363
H29   H     H_    0.794864 0.406622 0.921462 0.183354
H30   H     H_    0.860138 0.591365 0.909377 0.207928
H31   H     H_    0.775986 0.541626 0.879491 0.204698
C172  C     C_3   0.546018 0.888618 0.642515 -0.194439
C173  C     C_3   0.463693 0.815817 0.661589 -0.304290
C174  C     C_3   0.455400 0.721463 0.658722 -0.449699
H32   H     H_    0.444705 0.698684 0.633627 0.158047
H33   H     H_    0.518640 0.724113 0.667820 0.182772
H34   H     H_    0.395884 0.670550 0.672900 0.148894
H35   H     H_    0.470860 0.834312 0.687024 0.224520
H36   H     H_    0.399418 0.811381 0.652835 0.164891
H37   H     H_    0.537282 0.862673 0.617900 0.178047
H38   H     H_    0.610892 0.894586 0.651376 0.209191
C175  C     C_3   0.424700 0.306165 0.899456 -0.201526
C176  C     C_3   0.491265 0.314196 0.925561 -0.316265
C177  C     C_3   0.447805 0.231337 0.947722 -0.442836
H39   H     H_    0.385962 0.225647 0.959330 0.170623
H40   H     H_    0.427871 0.167031 0.934362 0.193591
H41   H     H_    0.498095 0.239740 0.966332 0.154694
H42   H     H_    0.552162 0.318557 0.914198 0.188058
H43   H     H_    0.514606 0.377422 0.939742 0.160314
H44   H     H_    0.360306 0.297013 0.909452 0.183256
H45   H     H_    0.399271 0.238882 0.887569 0.218060
C178  C     C_3   0.119474 0.651675 0.642884 -0.211198
C179  C     C_3   0.190752 0.627127 0.630626 -0.311589
C180  C     C_3   0.253669 0.695248 0.605538 -0.431298
H46   H     H_    0.214317 0.687025 0.583491 0.178407
H47   H     H_    0.283585 0.767148 0.614126 0.184500
H48   H     H_    0.310667 0.682373 0.599992 0.144046
H49   H     H_    0.233641 0.627842 0.650765 0.156597
H50   H     H_    0.156981 0.556719 0.620469 0.207079
H51   H     H_    0.118104 0.705222 0.628056 0.200859
H52   H     H_    0.143895 0.685196 0.666248 0.189432
C181  C     C_3   0.679561 0.161144 0.906248 -0.205837
C182  C     C_3   0.639800 0.196423 0.931667 -0.325689
C183  C     C_3   0.700782 0.231050 0.961055 -0.445014
H53   H     H_    0.706638 0.174647 0.972194 0.177108
H54   H     H_    0.770488 0.287151 0.954813 0.172847
H55   H     H_    0.670486 0.257575 0.978528 0.161763
H56   H     H_    0.633868 0.253320 0.921498 0.175470
H57   H     H_    0.570381 0.143429 0.939122 0.172241
H58   H     H_    0.706720 0.119583 0.916785 0.190179
H59   H     H_    0.742491 0.222489 0.897404 0.220808
C184  C     C_3   0.326054 0.403947 0.636177 -0.210799
C185  C     C_3   0.325873 0.488093 0.621754 -0.317685
C186  C     C_3   0.250774 0.459365 0.596682 -0.424452
H60   H     H_    0.260708 0.420662 0.577283 0.174400
H61   H     H_    0.181952 0.415529 0.607477 0.193498
H62   H     H_    0.253723 0.521247 0.586247 0.157513
H63   H     H_    0.313508 0.526141 0.640813 0.150481
H64   H     H_    0.393012 0.537241 0.610976 0.208410
H65   H     H_    0.284518 0.341213 0.621784 0.198214
H66   H     H_    0.288641 0.389067 0.658927 0.194188
C187  C     C_3   0.671763 0.076791 0.364669 -0.221042
C188  C     C_3   0.668476 0.163577 0.372964 -0.322864
C189  C     C_3   0.764494 0.244708 0.379555 -0.427974
H67   H     H_    0.797791 0.227898 0.399077 0.196391
H68   H     H_    0.807891 0.262761 0.357982 0.173707
H69   H     H_    0.758854 0.304993 0.386841 0.150897
H70   H     H_    0.637605 0.181136 0.352840 0.179992
H71   H     H_    0.625614 0.151745 0.394308 0.200704
H72   H     H_    0.709833 0.063022 0.383144 0.192637
H73   H     H_    0.713544 0.091206 0.342941 0.202010
C190  C     C_3   0.134626 0.681712 0.096989 -0.203918
C191  C     C_3   0.180732 0.653157 0.071760 -0.316535
C192  C     C_3   0.221599 0.724171 0.045262 -0.449075
H74   H     H_    0.166197 0.728533 0.032505 0.173960
H75   H     H_    0.271273 0.792896 0.055047 0.183425
H76   H     H_    0.258188 0.703677 0.028173 0.157515
H77   H     H_    0.236208 0.646367 0.083129 0.194363
H78   H     H_    0.131138 0.586029 0.061128 0.165148
H79   H     H_    0.086166 0.699633 0.086155 0.179831
H80   H     H_    0.188008 0.749050 0.106562 0.222447
C193  C     C_3   0.428512 0.332692 0.359509 -0.215682
C194  C     C_3   0.522025 0.347376 0.369965 -0.320727
C195  C     C_3   0.519168 0.256096 0.374199 -0.444442
H81   H     H_    0.465062 0.211900 0.391479 0.200408
H82   H     H_    0.505619 0.219358 0.351202 0.167839
H83   H     H_    0.586588 0.270248 0.383541 0.145944
H84   H     H_    0.574873 0.389300 0.351967 0.177522
H85   H     H_    0.542712 0.384262 0.392867 0.197136
H86   H     H_    0.374081 0.285289 0.375946 0.197833
H87   H     H_    0.411753 0.296092 0.336508 0.201933
C196  C     C_3   0.536234 0.848302 0.096405 -0.201876
C197  C     C_3   0.456756 0.791544 0.073486 -0.309460
C198  C     C_3   0.485166 0.747578 0.047595 -0.453262
H88   H     H_    0.540628 0.801654 0.032825 0.176656
H89   H     H_    0.510151 0.703962 0.058217 0.185005
H90   H     H_    0.425177 0.704032 0.032174 0.153379
H91   H     H_    0.398225 0.737422 0.087026 0.204661
H92   H     H_    0.432987 0.834557 0.061907 0.164930
H93   H     H_    0.599226 0.896576 0.083509 0.173108
H94   H     H_    0.556686 0.801143 0.107059 0.221685
C199  C     C_3   0.923405 0.590522 0.365596 -0.219670
C200  C     C_3   0.837827 0.501237 0.376071 -0.323089
C201  C     C_3   0.760444 0.518502 0.385592 -0.429365
H95   H     H_    0.784206 0.572463 0.404214 0.191919
H96   H     H_    0.735734 0.540149 0.364753 0.173178
H97   H     H_    0.702892 0.454180 0.395433 0.153898
H98   H     H_    0.813966 0.450473 0.356357 0.176124
H99   H     H_    0.853487 0.470919 0.396679 0.202172
H100  H     H_    0.940260 0.645843 0.383109 0.191427
H101  H     H_    0.905279 0.613583 0.343623 0.202389
C202  C     C_3   0.303275 0.447554 0.098159 -0.203041
C203  C     C_3   0.320046 0.521708 0.073836 -0.312805
C204  C     C_3   0.241068 0.487232 0.050078 -0.450809
H102  H     H_    0.235071 0.427873 0.036500 0.174272
H103  H     H_    0.175110 0.465628 0.062476 0.183974
H104  H     H_    0.254362 0.543152 0.033206 0.155234
H105  H     H_    0.326686 0.582168 0.086584 0.200132
H106  H     H_    0.384486 0.543826 0.060626 0.162359
H107  H     H_    0.287841 0.382772 0.086505 0.180272
H108  H     H_    0.236552 0.426692 0.109688 0.216047
C205  C     C_3   0.965760 0.407867 0.199340 -0.227859
C206  C     C_3   0.984393 0.327237 0.198657 -0.258403
C207  C     C_3   0.929178 0.256652 0.224192 -0.421223
H109  H     H_    0.947944 0.289239 0.247990 0.164154
H110  H     H_    0.854269 0.227465 0.220204 0.188972
H111  H     H_    0.944475 0.199700 0.223407 0.173862
H112  H     H_    0.966732 0.292541 0.175281 0.236558
H113  H     H_    0.058218 0.352236 0.202730 0.229404
H114  H     H_    0.989139 0.444292 0.222403 0.169103
H115  H     H_    0.890433 0.381119 0.198807 0.188927
C208  C     C_3   0.289297 0.776470 0.351214 -0.237989
C209  C     C_3   0.225652 0.817081 0.355231 -0.246304
C210  C     C_3   0.219839 0.866080 0.325762 -0.379079
H116  H     H_    0.288676 0.924977 0.319704 0.177269
H117  H     H_    0.191702 0.817339 0.305568 0.220937
H118  H     H_    0.172862 0.893154 0.330376 0.155444
H119  H     H_    0.155345 0.760504 0.360969 0.189458
H120  H     H_    0.248887 0.866769 0.375163 0.233817
H121  H     H_    0.273090 0.735849 0.329408 0.152935
H122  H     H_    0.272710 0.724235 0.369889 0.177974
C211  C     C_3   0.592448 0.558470 0.195243 -0.227503
C212  C     C_3   0.591240 0.469365 0.204305 -0.292351
C213  C     C_3   0.661393 0.486866 0.230259 -0.399665
H123  H     H_    0.732029 0.536055 0.221827 0.188201
H124  H     H_    0.646680 0.515367 0.251745 0.192004
H125  H     H_    0.657904 0.421140 0.236622 0.157840
H126  H     H_    0.521489 0.417867 0.212909 0.203217
H127  H     H_    0.607241 0.439411 0.183559 0.222056
H128  H     H_    0.662430 0.612586 0.188041 0.215365
H129  H     H_    0.577512 0.584750 0.217101 0.174013
C214  C     C_3   0.225257 0.513568 0.350753 -0.237908
C215  C     C_3   0.187807 0.409329 0.354330 -0.246995
C216  C     C_3   0.142253 0.354409 0.324396 -0.382918
H130  H     H_    0.081930 0.361088 0.317920 0.174858
H131  H     H_    0.192357 0.377979 0.304618 0.217966
H132  H     H_    0.117828 0.280481 0.328683 0.155121
H133  H     H_    0.245645 0.398388 0.360584 0.185301
H134  H     H_    0.136868 0.380250 0.373775 0.231122
H135  H     H_    0.266108 0.540285 0.329120 0.153105
H136  H     H_    0.276767 0.550144 0.369616 0.176913
C217  C     C_3   0.442308 0.034073 0.195707 -0.230681
C218  C     C_3   0.532591 0.122338 0.204104 -0.289832
C219  C     C_3   0.517872 0.176760 0.230098 -0.409045
H137  H     H_    0.469038 0.198640 0.221948 0.178470
H138  H     H_    0.490326 0.134307 0.251801 0.191794
H139  H     H_    0.584494 0.239146 0.235987 0.158645
H140  H     H_    0.583861 0.103790 0.212426 0.201786
H141  H     H_    0.561571 0.167467 0.183096 0.223205
H142  H     H_    0.388392 0.050296 0.188947 0.214582
H143  H     H_    0.417314 0.993419 0.217735 0.172241
C220  C     C_3   0.480161 0.703941 0.352171 -0.239984
C221  C     C_3   0.583871 0.771024 0.357268 -0.247040
C222  C     C_3   0.641692 0.782891 0.327987 -0.382151
H144  H     H_    0.635644 0.716260 0.321179 0.177305
H145  H     H_    0.619920 0.810426 0.308055 0.221575
H146  H     H_    0.715091 0.832715 0.333237 0.156715
H147  H     H_    0.594366 0.839365 0.363977 0.187152
H148  H     H_    0.610818 0.747684 0.376920 0.236233
H149  H     H_    0.456239 0.720911 0.330369 0.146962
H150  H     H_    0.441141 0.715780 0.370893 0.182159
C223  C     C_3   0.517153 0.221108 0.647809 -0.240242
C224  C     C_3   0.413641 0.185938 0.643417 -0.246330
C225  C     C_3   0.356800 0.140482 0.672961 -0.380138
H151  H     H_    0.361859 0.079302 0.679572 0.173512
H152  H     H_    0.380226 0.190256 0.692882 0.221452
H153  H     H_    0.283447 0.117462 0.668144 0.160551
H154  H     H_    0.404572 0.244745 0.637053 0.186356
H155  H     H_    0.384741 0.135479 0.623743 0.236660
H156  H     H_    0.543188 0.263569 0.669320 0.145824
H157  H     H_    0.555736 0.270653 0.628626 0.181010
C226  C     C_3   0.022846 0.413467 0.810552 -0.220219
C227  C     C_3   0.121382 0.492502 0.804318 -0.288545
C228  C     C_3   0.171439 0.463654 0.780949 -0.406844
H158  H     H_    0.176205 0.404721 0.790541 0.184759
H159  H     H_    0.134576 0.443661 0.757907 0.193452
H160  H     H_    0.242198 0.522126 0.776944 0.159136
H161  H     H_    0.118825 0.552390 0.794390 0.207846
H162  H     H_    0.161927 0.515015 0.826552 0.227623
H163  H     H_    0.022884 0.351541 0.819499 0.216250
H164  H     H_    0.988261 0.393648 0.787245 0.179229
C229  C     C_3   0.710654 0.500220 0.650199 -0.234532
C230  C     C_3   0.758507 0.605093 0.654654 -0.268021
C231  C     C_3   0.861851 0.648064 0.659044 -0.403466
H165  H     H_    0.876171 0.621351 0.680970 0.201333
H166  H     H_    0.892255 0.632498 0.638342 0.196365
H167  H     H_    0.894153 0.723935 0.661235 0.172760
H168  H     H_    0.745763 0.636556 0.633566 0.219108
H169  H     H_    0.730023 0.622232 0.675587 0.191310
H170  H     H_    0.726956 0.466812 0.669501 0.150268
H171  H     H_    0.739282 0.484861 0.629032 0.205149
C232  C     C_3   0.415812 0.965111 0.802633 -0.231395
C233  C     C_3   0.332279 0.979075 0.802456 -0.264343
C234  C     C_3   0.266217 0.924805 0.775609 -0.409277
H172  H     H_    0.301504 0.947899 0.752391 0.164504
H173  H     H_    0.240139 0.849990 0.778501 0.196721
H174  H     H_    0.206781 0.936308 0.775927 0.182150
H175  H     H_    0.294675 0.956997 0.825220 0.237565
H176  H     H_    0.354633 0.052803 0.799443 0.229411
H177  H     H_    0.452090 0.987891 0.779597 0.177825
H178  H     H_    0.392352 0.890497 0.803947 0.193161
C235  C     C_3   0.765045 0.307428 0.646582 -0.239508
C236  C     C_3   0.789781 0.232503 0.639174 -0.246677
C237  C     C_3   0.832926 0.210551 0.667074 -0.380375
H179  H     H_    0.898167 0.272630 0.674316 0.182216
H180  H     H_    0.784467 0.184035 0.687285 0.215430
H181  H     H_    0.848694 0.156378 0.659986 0.166084
H182  H     H_    0.726602 0.168323 0.632105 0.179532
H183  H     H_    0.838430 0.253181 0.619055 0.237080
H184  H     H_    0.725920 0.291487 0.668880 0.136383
H185  H     H_    0.715937 0.304453 0.628452 0.183878
C238  C     C_3   0.560241 0.594283 0.802002 -0.222248
C239  C     C_3   0.472049 0.593777 0.792100 -0.294649
C240  C     C_3   0.490221 0.660000 0.764724 -0.406761
H186  H     H_    0.541055 0.731584 0.771917 0.189605
H187  H     H_    0.516897 0.640618 0.743831 0.189230
H188  H     H_    0.425138 0.657266 0.757915 0.158137
H189  H     H_    0.419242 0.523097 0.784610 0.201127
H190  H     H_    0.443562 0.614101 0.812173 0.216569
H191  H     H_    0.614912 0.664608 0.808744 0.215352
H192  H     H_    0.586087 0.576926 0.780582 0.178581
N25   N     N_R   0.871894 0.385542 0.138666 0.100511
O75   O     O_R   0.852471 0.300960 0.142601 -0.299104
O76   O     O_R   0.808884 0.400838 0.127360 -0.229480
N26   N     N_R   0.380104 0.825462 0.411323 0.083640
O77   O     O_R   0.308990 0.829050 0.421429 -0.300731
O78   O     O_R   0.414278 0.786792 0.429028 -0.246220
N27   N     N_R   0.621354 0.518178 0.130184 0.100840
O79   O     O_R   0.701004 0.591829 0.134672 -0.265559
O80   O     O_R   0.617616 0.448574 0.115291 -0.237415
N28   N     N_R   0.173269 0.548003 0.411131 0.085666
O81   O     O_R   0.164581 0.471189 0.421441 -0.299182
O82   O     O_R   0.215791 0.621409 0.428660 -0.241515
N29   N     N_R   0.475763 0.100332 0.130370 0.097635
O83   O     O_R   0.401263 0.104172 0.134759 -0.274477
O84   O     O_R   0.544500 0.167176 0.115398 -0.241675
N30   N     N_R   0.437359 0.605406 0.411074 0.086860
O85   O     O_R   0.507838 0.680474 0.421712 -0.294889
O86   O     O_R   0.365264 0.561840 0.429041 -0.248835
N31   N     N_R   0.552915 0.157765 0.589003 0.083296
O87   O     O_R   0.486071 0.168103 0.578451 -0.297136
O88   O     O_R   0.624881 0.183136 0.571257 -0.271310
N32   N     N_R   0.073898 0.451104 0.878032 0.099574
O89   O     O_R   0.073534 0.374141 0.874240 -0.277564
O90   O     O_R   0.137601 0.515504 0.895499 -0.255878
N33   N     N_R   0.621332 0.453969 0.589527 0.085348
O91   O     O_R   0.689399 0.533245 0.580605 -0.291216
O92   O     O_R   0.593127 0.383090 0.570901 -0.250694
N34   N     N_R   0.400276 0.877857 0.864152 0.101982
O93   O     O_R   0.313999 0.851319 0.859628 -0.294009
O94   O     O_R   0.421724 0.820213 0.876438 -0.226217
N35   N     N_R   0.833024 0.413616 0.588973 0.082649
O95   O     O_R   0.815242 0.335438 0.576668 -0.289876
O96   O     O_R   0.817269 0.468945 0.572163 -0.261378
N36   N     N_R   0.520984 0.630113 0.866257 0.101768
O97   O     O_R   0.596908 0.707776 0.861807 -0.263390
O98   O     O_R   0.452445 0.630635 0.880312 -0.240299

loop_
_geom_bond_atom_site_label_1
_geom_bond_atom_site_label_2
_geom_bond_distance
_ccdc_geom_bond_type
C175  H45   1.107118 S    
C88   C95   1.400444 A    
C155  C178  1.522505 S    
C208  C209  1.542513 S    
C187  C188  1.528297 S    
C38   O28   1.221253 D    
C19   C122  1.422276 A    
C237  H181  1.110382 S    
C51   C63   1.411551 A    
C217  C218  1.536912 S    
N4    C52   1.385320 Am   
N23   O71   1.300881 A    
C52   C64   1.399797 A    
N35   O95   1.299823 A    
C109  C157  1.414462 A    
C120  C168  1.417684 A    
C144  N15   1.430509 S    
C181  C182  1.533544 S    
C222  H144  1.110253 S    
C33   C45   1.410267 A    
N20   O65   1.300863 A    
C119  C131  1.404787 A    
C176  H42   1.100299 S    
C42   N6    1.386759 Am   
N8    C56   1.389958 Am   
C55   C67   1.400193 A    
O21   C9    1.301942 A    
C197  H92   1.102259 S    
C145  C157  1.422200 A    
O10   Cr4   1.997365 S    
H11   C100  1.083409 S    
C18   C141  1.416892 A    
O12   Cr6   1.996835 S    
C211  H128  1.108282 S    
H5    C106  1.083162 S    
C239  C240  1.527045 S    
N33   O92   1.300767 A    
C185  H63   1.110826 S    
C239  H190  1.109250 S    
C89   C94   1.397200 A    
H7    C98   1.083401 S    
C27   C39   1.405625 A    
O1    Cr1   1.998968 S    
C192  H76   1.110248 S    
O3    Cr3   1.993727 S    
C218  H141  1.109341 S    
N2    C50   1.385642 Am   
O7    C9    1.287201 A    
C122  C208  1.519169 S    
C111  C123  1.428557 A    
O22   C10   1.293503 A    
C149  C196  1.535821 S    
C178  H52   1.107070 S    
C110  N26   1.440816 S    
C233  H175  1.108103 S    
C133  N20   1.430004 S    
C173  C174  1.525750 S    
C45   N9    1.386588 Am   
C229  H171  1.106182 S    
C128  C226  1.523985 S    
C200  H99   1.106310 S    
C207  H111  1.110416 S    
C10   C24   1.507367 S    
C236  H182  1.107464 S    
C234  H173  1.110948 S    
C54   C66   1.397042 A    
C99   C108  1.401480 A    
C211  C212  1.537233 S    
C102  C105  1.392534 A    
C191  H77   1.105670 S    
C36   C48   1.405895 A    
C179  H49   1.111637 S    
C100  C107  1.392312 A    
C232  H178  1.110924 S    
O14   Cr2   1.890887 S    
C150  C193  1.522120 S    
C65   C77   1.408955 A    
N6    C162  1.448236 S    
C94   H17   1.083163 S    
O15   C3    1.295968 A    
C111  N27   1.438830 S    
C230  C231  1.521012 S    
C112  C124  1.405374 A    
O14   C2    1.301243 A    
C48   N12   1.383233 Am   
O15   Cr3   1.887992 S    
C235  H185  1.109007 S    
C28   C40   1.411323 A    
C57   C69   1.397288 A    
O5    C1    1.300276 A    
C205  H115  1.111223 S    
C198  H88   1.110798 S    
N16   O58   1.301139 A    
C208  H122  1.107685 S    
C170  C171  1.525679 S    
C196  C197  1.532008 S    
C217  H143  1.105695 S    
C222  H146  1.110344 S    
C7    C21   1.479887 S    
N32   O89   1.300826 A    
C142  C154  1.412304 A    
N7    C163  1.449452 S    
C207  H109  1.111171 S    
C45   O35   1.220981 D    
C126  C220  1.519845 S    
C139  N14   1.437810 S    
C47   O37   1.221064 D    
O13   C1    1.294110 A    
C236  C237  1.524329 S    
C97   C104  1.398352 A    
O23   Cr5   1.888950 S    
C114  N30   1.441477 S    
C85   H20   1.083217 S    
C202  H108  1.106718 S    
Cr2   O25   1.981508 S    
N21   O68   1.300800 A    
O17   C5    1.295130 A    
C215  C216  1.523930 S    
C191  H78   1.105064 S    
C118  N34   1.439144 S    
N24   O73   1.300635 A    
C221  H148  1.108639 S    
N9    C165  1.448040 S    
C117  C165  1.408463 A    
C185  C186  1.527965 S    
C17   C130  1.420266 A    
C46   N10   1.381452 Am   
C144  C156  1.414209 A    
C26   C38   1.411347 A    
C41   O31   1.222615 D    
C15   C144  1.418346 A    
C48   O38   1.221893 D    
C206  H112  1.107918 S    
N8    C164  1.457402 S    
N29   O84   1.301317 A    
C189  H67   1.110909 S    
N1    C157  1.453409 S    
C11   C19   1.487429 S    
C115  N31   1.440959 S    
C194  C195  1.522112 S    
C12   C20   1.498631 S    
N36   O98   1.301387 A    
C77   C82   1.412371 A    
N6    C54   1.385577 Am   
H1    C104  1.083178 S    
C177  H40   1.110388 S    
C64   C76   1.406845 A    
C186  H60   1.109744 S    
C28   C76   1.408540 A    
C156  C168  1.424963 A    
C140  N13   1.451840 S    
C153  C165  1.419745 A    
C199  H100  1.106911 S    
C210  H116  1.110262 S    
C220  H150  1.108217 S    
C219  H138  1.110785 S    
O24   C12   1.295228 A    
N23   O72   1.301077 A    
C88   H23   1.083165 S    
C214  H135  1.095444 S    
C148  C160  1.417924 A    
C22   C137  1.417113 A    
C213  H124  1.110665 S    
C68   C80   1.406775 A    
N13   O51   1.302372 A    
N10   C58   1.387878 Am   
C112  C160  1.404379 A    
C201  H95   1.110972 S    
C29   C77   1.407268 A    
C92   H13   1.083195 S    
C67   C103  1.405385 A    
C226  H163  1.108636 S    
O3    C5    1.304700 A    
C24   C135  1.418252 A    
H8    C97   1.083166 S    
C54   O44   1.223462 D    
C59   C71   1.399550 A    
C60   C72   1.411425 A    
C36   C84   1.405361 A    
C64   C100  1.405329 A    
C197  C198  1.525140 S    
C153  C184  1.525398 S    
C198  H90   1.110320 S    
C51   O41   1.221360 D    
C188  H71   1.108730 S    
C215  H134  1.108084 S    
C184  H66   1.106871 S    
C49   O39   1.221894 D    
C35   C47   1.411456 A    
C68   C104  1.407937 A    
C117  N33   1.437767 S    
C138  N21   1.435861 S    
N30   O86   1.300385 A    
O22   Cr4   1.890451 S    
C27   C87   1.407272 A    
C134  N19   1.435568 S    
C227  H162  1.108764 S    
C28   C88   1.408139 A    
C23   C136  1.416392 A    
C120  C132  1.427271 A    
C169  H30   1.105403 S    
N34   O94   1.301261 A    
C240  H186  1.110827 S    
O4    Cr1   1.995716 S    
C151  C172  1.523007 S    
C174  H33   1.110878 S    
C145  C190  1.535793 S    
C37   N1    1.381920 Am   
C113  C125  1.425220 A    
C218  C219  1.526687 S    
C123  C211  1.525361 S    
C20   C133  1.417181 A    
O8    Cr5   1.998306 S    
C112  N28   1.439753 S    
C173  H35   1.107792 S    
C22   C125  1.421268 A    
C110  C122  1.405783 A    
C195  H83   1.107621 S    
C170  H29   1.101607 S    
C216  H131  1.109411 S    
C30   C42   1.410580 A    
O21   Cr6   1.887956 S    
C55   O45   1.223123 D    
C190  H80   1.107174 S    
N22   O70   1.298109 A    
C116  C128  1.426945 A    
C219  H137  1.110916 S    
C150  C162  1.418982 A    
N31   O88   1.300572 A    
O2    Cr2   1.999885 S    
C63   C75   1.406106 A    
N27   O79   1.300821 A    
C86   H19   1.083155 S    
O6    C2    1.287025 A    
H10   C101  1.083168 S    
C124  C214  1.518930 S    
O8    C10   1.302384 A    
C62   C74   1.406262 A    
C204  H104  1.110109 S    
C228  H159  1.110849 S    
C29   C41   1.404248 A    
C181  H59   1.106957 S    
C31   C43   1.411357 A    
C238  H192  1.104894 S    
C186  H62   1.108561 S    
C89   H22   1.083197 S    
C172  H37   1.107898 S    
C16   C143  1.415448 A    
C209  C210  1.524022 S    
C198  H89   1.108024 S    
O20   C8    1.297159 A    
C210  H118  1.110345 S    
C175  H44   1.099377 S    
C237  H180  1.108140 S    
C115  C163  1.409766 A    
C203  H105  1.104583 S    
C141  C153  1.423598 A    
N16   O57   1.301015 A    
C113  C161  1.415138 A    
C139  C151  1.422665 A    
C179  C180  1.529148 S    
C109  N25   1.439444 S    
C70   C106  1.407475 A    
O10   C12   1.299207 A    
N15   O55   1.298238 A    
C34   C82   1.408760 A    
N34   O93   1.299995 A    
C66   C78   1.405508 A    
C13   C140  1.411827 A    
N25   O76   1.301341 A    
O16   Cr1   1.890657 S    
N20   O66   1.298239 A    
C230  H168  1.111423 S    
C176  H43   1.104877 S    
C73   C80   1.412293 A    
C60   O50   1.221425 D    
C74   C79   1.411993 A    
H9    C102  1.083431 S    
C58   C70   1.409059 A    
C61   C73   1.407640 A    
C62   C98   1.405868 A    
N17   O60   1.299665 A    
C189  H69   1.107974 S    
C135  C147  1.411833 A    
C170  H28   1.108428 S    
C38   N2    1.386838 Am   
C19   C134  1.416229 A    
C224  C225  1.524333 S    
C118  C130  1.423177 A    
C171  H27   1.109375 S    
C25   C85   1.405975 A    
C133  C145  1.410478 A    
O19   Cr4   1.889428 S    
C119  N35   1.440887 S    
Cr4   O26   1.981106 S    
C183  H55   1.110152 S    
C221  C222  1.524042 S    
N33   O91   1.301420 A    
C226  C227  1.537845 S    
C1    C15   1.506145 S    
C2    C16   1.480567 S    
C233  C234  1.525989 S    
C192  H75   1.108994 S    
C4    C18   1.484761 S    
C209  H119  1.108991 S    
C20   C121  1.421741 A    
C69   C105  1.405270 A    
O24   Cr6   1.884536 S    
C225  H151  1.110314 S    
C110  C158  1.406156 A    
C193  H87   1.107184 S    
C72   C108  1.408593 A    
O19   C7    1.295680 A    
C178  H51   1.107398 S    
C225  H153  1.110334 S    
C233  H176  1.106897 S    
C195  H81   1.110932 S    
C34   C46   1.405061 A    
C71   C107  1.405323 A    
C56   C68   1.409049 A    
C13   C128  1.417973 A    
C120  N36   1.438898 S    
Cr6   O26   1.989943 S    
C61   C97   1.407213 A    
N26   O77   1.300404 A    
C207  H110  1.110953 S    
C206  C207  1.525978 S    
C41   N5    1.381669 Am   
C236  H183  1.108148 S    
C234  H172  1.111185 S    
C43   N7    1.386745 Am   
C209  H120  1.108405 S    
C113  N29   1.437938 S    
C130  C232  1.521563 S    
C240  H188  1.110550 S    
N28   O81   1.300332 A    
C180  H46   1.110026 S    
N3    C51   1.390537 Am   
C194  H84   1.111786 S    
C212  C213  1.526590 S    
C138  C150  1.420739 A    
C179  H50   1.108634 S    
C196  H94   1.107223 S    
C78   C81   1.409304 A    
C232  H177  1.110141 S    
C147  C202  1.537531 S    
C58   O48   1.221815 D    
N12   C168  1.459573 S    
C76   C83   1.412759 A    
C223  H157  1.108816 S    
N19   O63   1.300938 A    
C235  H184  1.102734 S    
C98   C103  1.393467 A    
C235  C236  1.544781 S    
C205  H114  1.111084 S    
C26   C74   1.408173 A    
O5    Cr2   1.999807 S    
N1    C49   1.388007 Am   
C217  H142  1.108453 S    
O20   Cr5   1.891349 S    
N11   C167  1.448346 S    
C222  H145  1.108906 S    
C33   C81   1.407337 A    
C70   C82   1.408360 A    
N32   O90   1.301320 A    
C66   C102  1.405151 A    
C185  H64   1.107715 S    
C172  C173  1.536653 S    
C237  H179  1.110072 S    
C229  H170  1.101046 S    
H4    C107  1.083414 S    
C35   C83   1.408442 A    
C184  C185  1.542812 S    
C56   O46   1.221673 D    
C57   O47   1.223461 D    
N36   O97   1.300833 A    
C154  C181  1.538083 S    
N7    C55   1.384206 Am   
C25   C73   1.407516 A    
C214  C215  1.542677 S    
C202  H107  1.099912 S    
Cr1   O25   1.982447 S    
C49   C61   1.409027 A    
N31   O87   1.300455 A    
N29   O83   1.300764 A    
C50   O40   1.223343 D    
C149  C161  1.420847 A    
C211  H129  1.105539 S    
C183  H53   1.107346 S    
N5    C161  1.452459 S    
C93   H18   1.083130 S    
C101  C106  1.398067 A    
C216  H132  1.110346 S    
C27   C75   1.404806 A    
C136  C148  1.423397 A    
C44   O34   1.222368 D    
C173  H36   1.109284 S    
C206  H113  1.105836 S    
C5    C13   1.496914 S    
O23   C11   1.301880 A    
C218  H140  1.112035 S    
N35   O96   1.300259 A    
Cr5   O26   1.982924 S    
C69   C81   1.405551 A    
C87   H24   1.083127 S    
C29   C89   1.406269 A    
C8    C22   1.499331 S    
C33   C93   1.408239 A    
C208  H121  1.095432 S    
C152  C164  1.425257 A    
C200  H98   1.111712 S    
C234  H174  1.110398 S    
C220  H149  1.099193 S    
C191  C192  1.526019 S    
C142  N17   1.432174 S    
C187  H73   1.106803 S    
C178  C179  1.541511 S    
C154  C166  1.424715 A    
N19   O64   1.300849 A    
N15   O56   1.300944 A    
N10   C166  1.452956 S    
N3    C159  1.459120 S    
C224  H154  1.107399 S    
C118  C166  1.413995 A    
C182  H57   1.099845 S    
C40   N4    1.386325 Am   
C47   N11   1.386224 Am   
C90   H21   1.083125 S    
C42   O32   1.221049 D    
C16   C131  1.416860 A    
C25   C37   1.404812 A    
C177  H39   1.110326 S    
C44   N8    1.385537 Am   
C115  C127  1.404890 A    
C203  C204  1.526651 S    
N14   O54   1.301190 A    
N2    C158  1.449107 S    
C129  C229  1.517394 S    
O9    C11   1.290286 A    
C116  N32   1.438694 S    
O6    Cr3   1.996904 S    
C121  C205  1.522315 S    
N5    C53   1.387187 Am   
C132  C238  1.526665 S    
C184  H65   1.107166 S    
C199  C200  1.531908 S    
C182  H56   1.098806 S    
C90   C93   1.401434 A    
O16   C4    1.296116 A    
C201  H97   1.107402 S    
C239  H189  1.111988 S    
C146  C158  1.418219 A    
C65   C101  1.407156 A    
C146  C187  1.521053 S    
C169  C170  1.532879 S    
C190  C191  1.530836 S    
C223  C224  1.542507 S    
C213  H123  1.110858 S    
C67   C79   1.406949 A    
C96   H15   1.083144 S    
C205  C206  1.538164 S    
N11   C59   1.385143 Am   
C232  C233  1.537472 S    
C201  H96   1.110763 S    
C174  H32   1.110165 S    
C91   H14   1.083140 S    
O9    Cr6   1.993141 S    
N21   O67   1.301039 A    
C116  C164  1.422163 A    
C127  C223  1.521994 S    
C187  H72   1.105892 S    
C26   C86   1.408257 A    
C21   C138  1.414694 A    
C156  C175  1.536105 S    
C195  H82   1.110754 S    
C135  N24   1.428270 S    
N9    C57   1.385307 Am   
C221  H147  1.107572 S    
C231  H165  1.108195 S    
C30   C78   1.407503 A    
C141  N18   1.436096 S    
C190  H79   1.101415 S    
C229  C230  1.536689 S    
C40   O30   1.221377 D    
O18   Cr3   1.884793 S    
C23   C124  1.423003 A    
C3    C17   1.494385 S    
C137  C149  1.409102 A    
C17   C142  1.417372 A    
C204  H102  1.110147 S    
C46   O36   1.222330 D    
N4    C160  1.448684 S    
O7    Cr4   1.998861 S    
N27   O80   1.301386 A    
O18   C6    1.300314 A    
C224  H155  1.108692 S    
C204  H103  1.110303 S    
C228  H158  1.110840 S    
C32   C44   1.404790 A    
O13   Cr1   1.887803 S    
C119  C167  1.407368 A    
C212  H126  1.111888 S    
C181  H58   1.103727 S    
C231  H167  1.110124 S    
C85   C92   1.397801 A    
C238  H191  1.108235 S    
C177  H41   1.110390 S    
C147  C159  1.424205 A    
C86   C91   1.400849 A    
C186  H61   1.110583 S    
O12   C8    1.302090 A    
C24   C123  1.421222 A    
C32   C92   1.407051 A    
C188  C189  1.525142 S    
C59   O49   1.223245 D    
C155  C167  1.418500 A    
C199  H101  1.106925 S    
C43   O33   1.221718 D    
C210  H117  1.109263 S    
C111  C159  1.418931 A    
C114  C126  1.405107 A    
C219  H139  1.110334 S    
C203  H106  1.104632 S    
C30   C90   1.408246 A    
C140  C152  1.405888 A    
C35   C95   1.407990 A    
C196  H93   1.101688 S    
C214  H136  1.106996 S    
C36   C96   1.406871 A    
C143  N16   1.435998 S    
C213  H125  1.110297 S    
N13   O52   1.300545 A    
C171  H25   1.109935 S    
N14   O53   1.300698 A    
Cr3   O25   1.990017 S    
C21   C126  1.418917 A    
C109  C121  1.425016 A    
N25   O75   1.299837 A    
C230  H169  1.110770 S    
C226  H164  1.105683 S    
C197  H91   1.106295 S    
C125  C217  1.525617 S    
H2    C103  1.083412 S    
C151  C163  1.418291 A    
C176  C177  1.526382 S    
C37   O27   1.222392 D    
C14   C139  1.416136 A    
C220  C221  1.542438 S    
C202  C203  1.529568 S    
C39   O29   1.222102 D    
C231  H166  1.109054 S    
N17   O59   1.301128 A    
C180  H47   1.109962 S    
C188  H70   1.111273 S    
C189  H68   1.110828 S    
C212  H127  1.109133 S    
C215  H133  1.109675 S    
N18   O61   1.300963 A    
C171  H26   1.106914 S    
C193  C194  1.529645 S    
C72   C84   1.405792 A    
C143  C155  1.423445 A    
N30   O85   1.300357 A    
C183  H54   1.104939 S    
N18   O62   1.300880 A    
C216  H130  1.110263 S    
C71   C83   1.406792 A    
C31   C91   1.408072 A    
C227  H161  1.112139 S    
C180  H48   1.109541 S    
C53   C65   1.409803 A    
C169  H31   1.108499 S    
C15   C132  1.422434 A    
C9    C23   1.488322 S    
C137  N22   1.428881 S    
C34   C94   1.406357 A    
C192  H74   1.110713 S    
C174  H34   1.110104 S    
C31   C79   1.408290 A    
C32   C80   1.405647 A    
C114  C162  1.408169 A    
C52   O42   1.223394 D    
O17   Cr2   1.890538 S    
C193  H86   1.105707 S    
C50   C62   1.400136 A    
C225  H152  1.108833 S    
C75   C84   1.410365 A    
C136  N23   1.435235 S    
C238  C239  1.537651 S    
C227  C228  1.526718 S    
N22   O69   1.300919 A    
N26   O78   1.300419 A    
N24   O74   1.298161 A    
C95   H16   1.083162 S    
C14   C127  1.420256 A    
C6    C14   1.480778 S    
C240  H187  1.110799 S    
C18   C129  1.417450 A    
C39   N3    1.383595 Am   
O11   Cr5   2.000496 S    
N28   O82   1.300353 A    
C148  C199  1.521615 S    
C194  H85   1.105703 S    
C175  C176  1.528236 S    
C134  C146  1.422921 A    
C228  H160  1.110694 S    
C131  C235  1.519766 S    
C117  C129  1.402033 A    
O11   C7    1.285012 A    
C182  C183  1.525937 S    
N12   C60   1.390574 Am   
C223  H156  1.100123 S    
C63   C99   1.408472 A    
O1    C3    1.297615 A    
C200  C201  1.524119 S    
C87   C96   1.401162 A    
O2    C4    1.287611 A    
C172  H38   1.109576 S    
C53   O43   1.221764 D    
H3    C108  1.083081 S    
H6    C105  1.083413 S    
O4    C6    1.286058 A    
C152  C169  1.528528 S    
H12   C99   1.083084 S    
