data_mof_unit_27965.cif
_audit_creation_date              2013-03-05T15:46:35-0500
_audit_creation_method            fapswitch 2.2
_symmetry_space_group_name_H-M    P1
_symmetry_Int_Tables_number       1
_space_group_crystal_system       triclinic
_cell_length_a                    17.280479
_cell_length_b                    24.316111
_cell_length_c                    15.008752
_cell_angle_alpha                 89.993785
_cell_angle_beta                  125.423318
_cell_angle_gamma                 89.922272
_cell_volume                      5139.18030208

loop_
_atom_site_label
_atom_site_type_symbol
_atom_site_description
_atom_site_fract_x
_atom_site_fract_y
_atom_site_fract_z
_atom_type_partial_charge
C1    C     C_R   0.316159 0.368105 0.910492 -0.121155
C2    C     C_R   0.688491 0.372757 0.092877 -0.107766
C3    C     C_R   0.811631 0.872780 0.907090 -0.120091
C4    C     C_R   0.184188 0.868268 0.089644 -0.108379
H1    H     H_    0.264870 0.353903 0.828621 0.088492
H2    H     H_    0.746801 0.368528 0.177863 0.099216
H3    H     H_    0.753367 0.868674 0.822051 0.096400
H4    H     H_    0.235736 0.854196 0.171567 0.085604
N1    N     N_R   0.394180 0.396910 0.943210 -0.040365
N2    N     N_R   0.605820 0.396910 0.056790 -0.041601
N3    N     N_R   0.894180 0.896910 0.943210 -0.041480
N4    N     N_R   0.105820 0.896910 0.056790 -0.040016
C5    C     C_R   0.445605 0.652886 0.090020 -0.141463
C6    C     C_R   0.549034 0.654372 0.911342 -0.021024
C7    C     C_R   0.951088 0.154404 0.088536 -0.012287
C8    C     C_R   0.055038 0.152787 0.910180 -0.126670
H5    H     H_    0.494370 0.667320 0.172648 0.143001
H6    H     H_    0.499086 0.668670 0.828486 0.120553
H7    H     H_    0.001112 0.168620 0.171353 0.114925
H8    H     H_    0.006301 0.167516 0.827702 0.144812
N5    N     N_R   0.450950 0.603070 0.056740 -0.044055
N6    N     N_R   0.549050 0.603070 0.943260 -0.053177
N7    N     N_R   0.950950 0.103070 0.056740 -0.052671
N8    N     N_R   0.049050 0.103070 0.943260 -0.040643
C9    C     C_R   0.551644 0.453404 0.303283 -0.240265
C10   C     C_R   0.502250 0.453552 0.732777 -0.214028
C11   C     C_R   0.997626 0.953590 0.267120 -0.218373
C12   C     C_R   0.948264 0.953468 0.696673 -0.233185
H9    H     H_    0.572980 0.411401 0.329851 0.132432
H10   H     H_    0.492256 0.412387 0.701845 0.125554
H11   H     H_    0.007488 0.912382 0.297901 0.127485
H12   H     H_    0.926990 0.911495 0.670183 0.130330
N9    N     N_R   0.525650 0.471570 0.206150 -0.063885
N10   N     N_R   0.474350 0.471570 0.793850 -0.063733
N11   N     N_R   0.025650 0.971570 0.206150 -0.064207
N12   N     N_R   0.974350 0.971570 0.793850 -0.062700
C13   C     C_R   0.232894 0.547234 0.751874 -0.138615
C14   C     C_R   0.753521 0.546447 0.301655 -0.017215
C15   C     C_R   0.746106 0.046166 0.697039 -0.101292
C16   C     C_R   0.268903 0.046685 0.255021 -0.091236
H13   H     H_    0.215700 0.589702 0.751701 0.139911
H14   H     H_    0.759549 0.588339 0.328817 0.094209
H15   H     H_    0.736369 0.088436 0.670395 0.158308
H16   H     H_    0.289472 0.089344 0.264189 0.104547
N13   N     N_R   0.319480 0.528420 0.793810 -0.046566
N14   N     N_R   0.680520 0.528420 0.206190 -0.054777
N15   N     N_R   0.819480 0.028420 0.793810 -0.053693
N16   N     N_R   0.180520 0.028420 0.206190 -0.051290
C17   C     C_R   0.544790 0.544467 0.301993 0.510557
C18   C     C_R   0.525240 0.543725 0.755703 0.529709
C19   C     C_R   0.974800 0.043822 0.244388 0.524435
C20   C     C_R   0.954801 0.044530 0.697781 0.524924
N17   N     N_R   0.525640 0.528390 0.206120 -0.089477
N18   N     N_R   0.474360 0.528390 0.793880 -0.093528
N19   N     N_R   0.025640 0.028390 0.206120 -0.095992
N20   N     N_R   0.974360 0.028390 0.793880 -0.086375
C21   C     C_R   0.228310 0.455854 0.737542 -0.102716
C22   C     C_R   0.756267 0.454983 0.303425 -0.135867
C23   C     C_R   0.746582 0.954681 0.695608 -0.137052
C24   C     C_R   0.270863 0.954918 0.264758 -0.129555
H17   H     H_    0.202052 0.414927 0.709257 0.087348
H18   H     H_    0.767673 0.413120 0.332734 0.094046
H19   H     H_    0.737717 0.912720 0.667633 0.092751
H20   H     H_    0.295232 0.913725 0.293267 0.086360
N21   N     N_R   0.319490 0.471590 0.793840 -0.040788
N22   N     N_R   0.680510 0.471590 0.206160 -0.046577
N23   N     N_R   0.819490 0.971590 0.793840 -0.044459
N24   N     N_R   0.180510 0.971590 0.206160 -0.039006
C25   C     C_R   0.354096 0.652557 0.908647 -0.115317
C26   C     C_R   0.645861 0.652548 0.092052 -0.056539
C27   C     C_R   0.854300 0.152677 0.907858 -0.124515
C28   C     C_R   0.147363 0.151992 0.091777 -0.099127
H21   H     H_    0.317865 0.666204 0.825029 0.121688
H22   H     H_    0.686487 0.665013 0.176766 0.108338
H23   H     H_    0.813795 0.165206 0.823128 0.128799
H24   H     H_    0.184547 0.165289 0.175672 0.077694
N25   N     N_R   0.394130 0.603080 0.943110 -0.049853
N26   N     N_R   0.605870 0.603080 0.056890 -0.056508
N27   N     N_R   0.894130 0.103080 0.943110 -0.055818
N28   N     N_R   0.105870 0.103080 0.056890 -0.043705
C29   C     C_R   0.404753 0.373284 0.093014 -0.105766
C30   C     C_R   0.594076 0.368186 0.910322 -0.112414
C31   C     C_R   0.906038 0.868153 0.089706 -0.108146
C32   C     C_R   0.095531 0.873297 0.907150 -0.100953
H25   H     H_    0.431984 0.369459 0.178021 0.100518
H26   H     H_    0.563345 0.354775 0.828145 0.090569
H27   H     H_    0.936811 0.854719 0.171923 0.093019
H28   H     H_    0.068403 0.869405 0.822184 0.102942
N29   N     N_R   0.450990 0.396900 0.056840 -0.039015
N30   N     N_R   0.549010 0.396900 0.943160 -0.039654
N31   N     N_R   0.950990 0.896900 0.056840 -0.040106
N32   N     N_R   0.049010 0.896900 0.943160 -0.040340
C33   C     C_R   0.317743 0.356411 0.002157 0.039639
C34   C     C_R   0.684297 0.355881 0.001799 0.033274
C35   C     C_R   0.815915 0.855805 0.998184 0.035259
C36   C     C_R   0.182769 0.856536 0.998121 0.043417
C37   C     C_R   0.386056 0.685035 0.998981 0.042139
C38   C     C_R   0.609907 0.686127 0.001956 -0.036481
C39   C     C_R   0.890400 0.186271 0.997875 -0.022132
C40   C     C_R   0.115610 0.184516 0.001487 0.040213
C41   C     C_R   0.567436 0.498091 0.367720 -0.103298
C42   C     C_R   0.540162 0.497615 0.712411 -0.125552
C43   C     C_R   0.959789 0.997732 0.287633 -0.125480
C44   C     C_R   0.932076 0.998184 0.632041 -0.107432
C45   C     C_R   0.173475 0.502578 0.716102 0.055510
C46   C     C_R   0.803172 0.501445 0.364759 0.075092
C47   C     C_R   0.700453 0.000720 0.632506 0.058125
C48   C     C_R   0.326967 0.000960 0.289241 0.055223
Ni1   Ni    Ni4+2 0.434860 0.434850 0.869700 0.215810
Ni2   Ni    Ni4+2 0.565140 0.434850 0.130300 0.210960
Ni3   Ni    Ni4+2 0.934860 0.934850 0.869700 0.211116
Ni4   Ni    Ni4+2 0.065140 0.934850 0.130300 0.216256
Ni5   Ni    Ni4+2 0.565130 0.565140 0.130240 0.229671
Ni6   Ni    Ni4+2 0.434870 0.565140 0.869760 0.218945
Ni7   Ni    Ni4+2 0.065130 0.065140 0.130240 0.212954
Ni8   Ni    Ni4+2 0.934870 0.065140 0.869760 0.242062
C49   C     C_R   0.022558 0.555103 0.615477 0.051252
C50   C     C_R   0.930593 0.554059 0.523103 -0.035603
C51   C     C_R   0.573032 0.051729 0.475482 0.017725
C52   C     C_R   0.476946 0.051533 0.390251 -0.069049
C53   C     C_R   0.071300 0.505392 0.660353 0.060234
C54   C     C_R   0.883248 0.504156 0.478727 0.092275
C55   C     C_R   0.621526 0.001973 0.517805 0.037258
C56   C     C_R   0.429200 0.001703 0.347904 0.137404
C57   C     C_R   0.017829 0.456870 0.633605 -0.157403
C58   C     C_R   0.923157 0.456285 0.542436 -0.168460
C59   C     C_R   0.577144 0.952618 0.463477 -0.154557
C60   C     C_R   0.481035 0.952446 0.379016 -0.130036
H29   H     H_    0.051353 0.418259 0.673473 0.113665
H30   H     H_    0.886409 0.417302 0.515477 0.119178
H31   H     H_    0.613380 0.913503 0.492336 0.114775
H32   H     H_    0.446707 0.913372 0.344201 0.103372
C61   C     C_3   0.944926 0.603691 0.474201 0.048203
C62   C     C_3   0.045452 0.605723 0.576888 0.047752
C63   C     C_3   0.488602 0.096087 0.329666 0.070786
C64   C     C_3   0.593721 0.095561 0.421578 0.067185
H33   H     H_    0.899837 0.639449 0.463239 0.117677
H34   H     H_    0.101015 0.599820 0.562045 0.123784
H35   H     H_    0.450404 0.134523 0.322821 0.118724
H36   H     H_    0.641267 0.081384 0.398560 0.130354
C65   C     C_R   0.292256 0.767704 0.898849 -0.124104
C66   C     C_R   0.704905 0.768932 0.099179 -0.124885
C67   C     C_R   0.795665 0.269331 0.900629 -0.141505
C68   C     C_R   0.210846 0.266405 0.102235 -0.146327
H37   H     H_    0.271054 0.751096 0.821055 0.157584
H38   H     H_    0.725298 0.753259 0.177442 0.117306
H39   H     H_    0.775244 0.253698 0.822359 0.132864
H40   H     H_    0.233521 0.249134 0.180188 0.111722
C69   C     C_R   0.742227 0.311383 0.901901 -0.159985
C70   C     C_R   0.263299 0.309223 0.102432 -0.150338
C71   C     C_R   0.238907 0.810193 0.898472 -0.130781
C72   C     C_R   0.758230 0.810972 0.097965 -0.151296
H41   H     H_    0.683570 0.327597 0.824385 0.112535
H42   H     H_    0.323817 0.323448 0.180498 0.113816
H43   H     H_    0.178773 0.824788 0.820348 0.125949
H44   H     H_    0.816776 0.827113 0.175501 0.109609
C73   C     C_R   0.758303 0.327124 0.001349 0.136029
C74   C     C_R   0.244486 0.327576 0.003173 0.138710
C75   C     C_R   0.256612 0.827892 0.997550 0.127278
C76   C     C_R   0.742124 0.826858 0.998558 0.135351
C77   C     C_R   0.840897 0.309480 0.099853 -0.149432
C78   C     C_R   0.160279 0.311701 0.904507 -0.158007
C79   C     C_R   0.340563 0.811715 0.096424 -0.143131
C80   C     C_R   0.659724 0.809226 0.900009 -0.157889
H45   H     H_    0.859211 0.323471 0.178204 0.116579
H46   H     H_    0.139423 0.328494 0.826788 0.104495
H47   H     H_    0.360822 0.828066 0.174169 0.106019
H48   H     H_    0.641428 0.823276 0.821675 0.112963
C81   C     C_R   0.393505 0.768923 0.096703 -0.160053
C82   C     C_R   0.605644 0.767776 0.901214 -0.176017
C83   C     C_R   0.895113 0.268038 0.098587 -0.177341
C84   C     C_R   0.107878 0.268720 0.904329 -0.157346
H49   H     H_    0.452089 0.753241 0.174646 0.106468
H50   H     H_    0.548299 0.751174 0.823498 0.120667
H51   H     H_    0.952595 0.251385 0.176293 0.119382
H52   H     H_    0.048904 0.253360 0.826428 0.109035
C85   C     C_R   0.362245 0.742662 0.998131 0.111443
C86   C     C_R   0.635082 0.743272 0.000914 0.127099
C87   C     C_R   0.865539 0.243542 0.998878 0.126599
C88   C     C_R   0.140042 0.241951 0.002797 0.132841
C89   C     C_R   0.604527 0.544294 0.620181 -0.209937
C90   C     C_R   0.622627 0.542827 0.542306 -0.186493
C91   C     C_R   0.876285 0.042912 0.457057 -0.178901
C92   C     C_R   0.894894 0.044429 0.379571 -0.206036
H53   H     H_    0.601161 0.584435 0.647463 0.184436
H54   H     H_    0.639620 0.580888 0.520595 0.185649
H55   H     H_    0.858819 0.080934 0.478461 0.193131
H56   H     H_    0.898239 0.084583 0.352348 0.183992
C93   C     C_R   0.602826 0.494796 0.482384 0.166948
C94   C     C_R   0.581961 0.495684 0.651062 0.167041
C95   C     C_R   0.917887 0.995834 0.348956 0.165287
C96   C     C_R   0.896378 0.994893 0.517222 0.164451
C97   C     C_R   0.597520 0.444747 0.525180 -0.158213
C98   C     C_R   0.589636 0.445198 0.611703 -0.154579
C99   C     C_R   0.910302 0.945342 0.388362 -0.150335
C100  C     C_R   0.902097 0.944864 0.474663 -0.151844
H57   H     H_    0.589315 0.405776 0.486059 0.120662
H58   H     H_    0.579584 0.406372 0.638710 0.111873
H59   H     H_    0.920666 0.906519 0.361598 0.110694
H60   H     H_    0.910462 0.905882 0.513885 0.117554
N33   N     N_R   0.942761 0.591518 0.377042 0.244611
O1    O     O_R   0.899041 0.624908 0.293896 -0.405945
O2    O     O_R   0.986767 0.548808 0.373997 -0.394089
N34   N     N_R   0.061770 0.654117 0.643762 0.240631
O3    O     O_R   0.123700 0.690697 0.660498 -0.439586
O4    O     O_R   0.011932 0.662518 0.682350 -0.394070
N35   N     N_R   0.467498 0.077895 0.224592 0.249495
O5    O     O_R   0.406648 0.105333 0.136211 -0.385429
O6    O     O_R   0.508057 0.034462 0.217872 -0.391608
N36   N     N_R   0.625947 0.146776 0.484381 0.234846
O7    O     O_R   0.700467 0.171689 0.502672 -0.393323
O8    O     O_R   0.583064 0.166896 0.525475 -0.422457
O9    O     O_3   0.554896 0.598746 0.333023 -0.664246
C101  C     C_3   0.472213 0.614557 0.324991 0.208197
H61   H     H_    0.454576 0.585353 0.368044 0.110069
H62   H     H_    0.410221 0.616817 0.237812 0.115679
C102  C     C_3   0.487580 0.670925 0.376811 -0.893514
H63   H     H_    0.507892 0.701199 0.338530 0.247743
H64   H     H_    0.421180 0.684991 0.365329 0.221192
H65   H     H_    0.544932 0.668767 0.465746 0.251795
O10   O     O_3   0.572942 0.593159 0.779512 -0.669433
C103  C     C_3   0.672060 0.584607 0.859391 0.219439
H66   H     H_    0.701640 0.550509 0.838390 0.102597
H67   H     H_    0.687252 0.574509 0.940255 0.132558
C104  C     C_3   0.726504 0.636456 0.870783 -0.836389
H68   H     H_    0.702246 0.671821 0.895123 0.260744
H69   H     H_    0.803535 0.630072 0.934261 0.230554
H70   H     H_    0.715675 0.646262 0.792043 0.240150
O11   O     O_3   0.927416 0.093444 0.220972 -0.667890
C105  C     C_3   0.828224 0.085317 0.141113 0.217237
H71   H     H_    0.798466 0.051276 0.161883 0.108375
H72   H     H_    0.812877 0.075366 0.060142 0.120135
C106  C     C_3   0.774135 0.137365 0.130153 -0.844551
H73   H     H_    0.798586 0.172671 0.106002 0.257959
H74   H     H_    0.697050 0.131315 0.066706 0.225994
H75   H     H_    0.785085 0.147057 0.208987 0.248436
O12   O     O_3   0.943203 0.098804 0.666161 -0.644969
C107  C     C_3   0.025053 0.115225 0.673063 0.195582
H76   H     H_    0.042690 0.086363 0.629510 0.105599
H77   H     H_    0.087529 0.117541 0.759950 0.119555
C108  C     C_3   0.008072 0.171722 0.621035 -0.852000
H78   H     H_    0.987775 0.201653 0.659914 0.251727
H79   H     H_    0.073790 0.186256 0.631540 0.210897
H80   H     H_    0.950150 0.169545 0.532309 0.254228

loop_
_geom_bond_atom_site_label_1
_geom_bond_atom_site_label_2
_geom_bond_distance
_ccdc_geom_bond_type
C22   H18   1.080478 S    
C31   H27   1.072815 S    
C42   C94   1.463776 S    
C72   C76   1.403889 A    
C18   O10   1.383266 S    
C61   H33   1.113421 S    
C30   C34   1.386533 A    
C2    C34   1.388387 A    
C73   C77   1.399652 A    
C26   N26   1.335131 A    
N33   O1    1.300949 A    
C66   H38   1.081139 S    
C25   N25   1.332810 A    
C47   C55   1.450111 S    
C68   H40   1.080167 S    
C91   C96   1.390885 A    
C27   N27   1.335501 A    
C61   C62   1.513963 S    
C63   C64   1.515896 S    
C66   C86   1.399886 A    
C89   C90   1.374403 A    
C102  H65   1.110398 S    
C67   H39   1.081184 S    
C97   C98   1.382074 A    
C84   H52   1.079330 S    
C107  C108  1.521907 S    
C18   N18   1.351025 A    
C82   C86   1.403403 A    
C13   H13   1.073740 S    
C1    H1    1.073839 S    
C96   C100  1.403806 A    
C15   N15   1.329272 A    
N14   N22   1.381882 A    
C41   C93   1.456689 S    
C62   N34   1.464498 S    
N24   Ni4   1.855484 S    
C101  H62   1.112476 S    
C19   O11   1.383310 S    
C58   H30   1.081385 S    
C19   C43   1.392988 A    
C44   C96   1.457562 S    
C17   O9    1.376911 S    
C104  H70   1.109939 S    
C9    H9    1.080087 S    
C6    N6    1.336188 A    
C108  H78   1.108990 S    
C90   H54   1.077278 S    
C66   C72   1.384369 A    
C4    H4    1.073232 S    
C69   H41   1.080831 S    
C51   C55   1.396256 A    
C49   C53   1.401305 A    
C23   N23   1.333538 A    
C53   C57   1.407162 A    
C78   H46   1.081401 S    
C20   N20   1.335279 A    
C80   C82   1.382638 A    
N13   Ni6   1.855483 S    
N8    N28   1.389770 A    
C83   H51   1.080146 S    
C72   H44   1.080835 S    
N17   Ni5   1.861073 S    
C26   H22   1.080396 S    
C68   C70   1.380254 A    
C25   H21   1.079632 S    
C90   C93   1.390899 A    
C67   C87   1.399757 A    
C4    N4    1.336198 A    
C106  H73   1.106994 S    
C16   H16   1.079611 S    
C24   C48   1.385073 A    
C64   H36   1.114253 S    
C16   C48   1.380655 A    
C29   N29   1.329274 A    
C54   C58   1.406415 A    
C84   C88   1.401185 A    
C7    N7    1.335920 A    
C62   H34   1.113412 S    
C8    N8    1.333600 A    
C4    C36   1.389228 A    
N27   Ni8   1.858922 S    
N9    N17   1.381641 A    
N33   O2    1.302737 A    
C83   C87   1.403550 A    
C2    H2    1.078264 S    
C26   C38   1.380474 A    
C48   C56   1.446901 S    
C49   C62   1.507920 S    
C60   H32   1.081670 S    
C81   C85   1.401072 A    
C22   N22   1.338283 A    
C29   H25   1.077854 S    
C6    C38   1.377095 A    
C18   C42   1.392631 A    
C99   H59   1.080591 S    
N1    Ni1   1.860952 S    
N15   Ni8   1.855483 S    
C107  H77   1.112410 S    
C21   C45   1.391334 A    
N11   N19   1.381641 A    
C35   C76   1.460199 S    
C68   C88   1.401192 A    
C12   H12   1.080085 S    
C1    N1    1.335896 A    
N6    N26   1.389770 A    
N5    Ni5   1.852653 S    
N1    N29   1.389769 A    
C100  H60   1.080188 S    
C13   N13   1.323103 A    
C89   H53   1.072994 S    
C101  H61   1.115134 S    
C8    C40   1.381463 A    
C15   H15   1.079878 S    
C99   C100  1.382333 A    
C103  C104  1.523380 S    
C11   N11   1.333131 A    
C13   C45   1.373219 A    
O9    C101  1.415140 S    
C27   C39   1.380718 A    
N29   Ni2   1.855316 S    
C23   C47   1.381240 A    
N35   O5    1.300544 A    
C92   H56   1.072884 S    
C22   C46   1.385107 A    
C71   C75   1.401144 A    
N31   Ni4   1.855316 S    
C14   C46   1.373251 A    
C7    H7    1.080312 S    
C91   C92   1.375069 A    
C50   C54   1.398785 A    
C39   C87   1.459464 S    
O11   C105  1.425866 S    
N12   N20   1.381642 A    
N3    N31   1.389769 A    
O10   C103  1.425786 S    
C29   C33   1.383333 A    
C89   C94   1.405219 A    
C12   C44   1.373270 A    
C32   N32   1.330508 A    
C37   C85   1.457876 S    
N28   Ni7   1.859750 S    
C80   H48   1.080580 S    
C79   H47   1.081262 S    
C8    H8    1.077264 S    
C57   H29   1.082451 S    
C31   C35   1.387052 A    
C46   C54   1.449641 S    
N12   Ni3   1.860350 S    
C104  H68   1.106920 S    
N20   Ni8   1.860300 S    
C92   C95   1.405617 A    
C5    N5    1.333656 A    
C28   H24   1.079645 S    
N15   N23   1.381882 A    
N22   Ni2   1.855484 S    
C105  H72   1.110126 S    
C106  H74   1.110383 S    
N21   Ni1   1.852756 S    
C50   C61   1.505961 S    
C20   O12   1.376928 S    
N11   Ni4   1.859581 S    
N16   Ni7   1.852760 S    
C64   N36   1.463943 S    
N23   Ni3   1.852756 S    
C105  C106  1.523478 S    
C25   C37   1.378507 A    
N34   O4    1.302536 A    
N8    Ni8   1.855435 S    
C34   C73   1.460159 S    
N36   O8    1.302990 A    
C11   H11   1.074571 S    
N13   N21   1.381882 A    
C57   C58   1.397864 A    
C75   C79   1.401502 A    
N26   Ni5   1.859750 S    
C43   C95   1.464982 S    
N5    N25   1.389767 A    
N25   Ni6   1.858922 S    
C40   C88   1.456406 S    
C76   C80   1.399788 A    
C55   C59   1.403973 A    
N4    Ni4   1.860126 S    
C65   C71   1.381561 A    
C61   N33   1.467082 S    
C63   N35   1.466144 S    
C38   C86   1.459391 S    
C82   H50   1.080172 S    
C16   N16   1.330938 A    
C107  H76   1.114984 S    
C103  H67   1.110230 S    
C70   C74   1.400797 A    
N14   Ni5   1.852760 S    
C10   N10   1.332826 A    
C23   H19   1.080169 S    
C6    H6    1.080339 S    
N4    N32   1.389770 A    
C32   H28   1.077994 S    
C7    C39   1.376639 A    
N16   N24   1.381882 A    
C101  C102  1.521825 S    
C15   C47   1.377855 A    
C51   C52   1.389671 A    
N32   Ni3   1.852533 S    
C21   H17   1.074482 S    
C59   C60   1.387340 A    
C65   H37   1.079451 S    
C102  H64   1.110396 S    
C31   N31   1.334515 A    
C63   H35   1.113315 S    
N6    Ni6   1.855435 S    
C3    H3    1.078577 S    
C71   H43   1.080329 S    
C30   N30   1.334322 A    
C56   C60   1.402510 A    
C32   C36   1.383868 A    
C24   H20   1.074082 S    
C108  H80   1.110407 S    
N7    N27   1.389767 A    
C52   C63   1.501270 S    
C59   H31   1.080842 S    
C102  H63   1.108875 S    
C105  H71   1.110719 S    
C28   N28   1.330444 A    
C30   H26   1.072780 S    
C49   C50   1.376361 A    
C10   C42   1.380066 A    
C51   C64   1.501487 S    
C27   H23   1.080479 S    
N10   N18   1.381642 A    
C9    C41   1.373162 A    
C36   C75   1.457304 S    
C98   H58   1.080635 S    
N19   Ni7   1.861073 S    
C97   H57   1.080199 S    
N18   Ni6   1.860300 S    
C11   C43   1.380540 A    
C94   C98   1.401495 A    
C104  H69   1.110394 S    
C20   C44   1.396462 A    
N2    Ni2   1.860126 S    
C19   N19   1.351523 A    
C5    C37   1.380102 A    
C33   C74   1.455739 S    
C79   C81   1.383000 A    
C106  H75   1.109928 S    
C95   C99   1.401612 A    
C14   N14   1.320156 A    
C17   N17   1.334675 A    
C3    N3    1.333758 A    
C24   N24   1.334923 A    
C74   C78   1.401084 A    
N7    Ni7   1.852653 S    
C5    H5    1.077363 S    
C77   C83   1.382636 A    
C14   H14   1.079753 S    
C93   C97   1.403727 A    
N10   Ni1   1.860350 S    
C67   C69   1.384411 A    
N2    N30   1.389770 A    
C78   C84   1.382774 A    
N34   O3    1.300228 A    
C12   N12   1.327672 A    
C1    C33   1.389475 A    
N36   O7    1.301150 A    
C70   H42   1.080171 S    
C45   C53   1.452352 S    
C65   C85   1.400923 A    
N35   O6    1.302595 A    
N3    Ni3   1.860952 S    
C81   H49   1.079244 S    
C3    C35   1.388372 A    
N9    Ni2   1.859581 S    
C28   C40   1.378234 A    
N30   Ni1   1.852533 S    
C108  H79   1.110383 S    
O12   C107  1.415078 S    
C69   C73   1.404008 A    
C103  H66   1.110744 S    
C77   H45   1.080600 S    
C91   H55   1.077397 S    
C52   C56   1.395656 A    
C17   C41   1.396059 A    
C9    N9    1.327548 A    
C21   N21   1.342146 A    
C10   H10   1.074668 S    
C2    N2    1.334112 A    
