data_mof_unit_44826.cif
_audit_creation_date              2012-12-10T19:44:34-0500
_audit_creation_method            fapswitch 2.2
_symmetry_space_group_name_H-M    P1
_symmetry_Int_Tables_number       1
_space_group_crystal_system       triclinic
_cell_length_a                    8.622062
_cell_length_b                    14.986271
_cell_length_c                    14.198992
_cell_angle_alpha                 89.504233
_cell_angle_beta                  98.364375
_cell_angle_gamma                 91.142609
_cell_volume                      1814.78083265

loop_
_atom_site_label
_atom_site_type_symbol
_atom_type_description
_atom_site_fract_x
_atom_site_fract_y
_atom_site_fract_z
_atom_type_partial_charge
C1    C     C_R   0.505681 0.327543 0.501006 0.930988
C2    C     C_R   0.500065 0.671708 0.499589 0.968489
C3    C     C_R   0.381870 0.455000 0.095375 -0.395057
C4    C     C_R   0.572702 0.569188 0.900583 -0.404091
C5    C     C_R   0.387333 0.452143 0.195598 0.589858
C6    C     C_R   0.579105 0.566520 0.801121 0.587190
C7    C     C_R   0.612206 0.547917 0.214250 0.614562
C8    C     C_R   0.422027 0.432788 0.788092 0.583841
C9    C     C_R   0.617356 0.545460 0.115266 -0.379515
C10   C     C_R   0.427141 0.430691 0.888983 -0.436848
C11   C     C_R   0.499685 0.500167 0.053378 0.079398
C12   C     C_R   0.499930 0.499988 0.946414 0.100652
C13   C     C_R   0.201636 0.499522 0.475615 0.867303
C14   C     C_R   0.798474 0.501258 0.524628 0.861050
C15   C     C_2   0.038233 0.486121 0.465029 0.244006
C16   C     C_2   0.962768 0.512016 0.536720 0.158851
C17   C     C_R   0.522414 0.090188 0.586282 0.421195
C18   C     C_R   0.407390 0.907708 0.435570 0.455987
C19   C     C_R   0.527313 0.182833 0.589176 0.389370
C20   C     C_R   0.397166 0.814887 0.435328 0.393106
C21   C     C_R   0.523832 0.231452 0.503479 -0.320533
C22   C     C_R   0.504548 0.766840 0.499223 -0.311544
C23   C     C_R   0.541486 0.187650 0.419061 -0.407936
C24   C     C_R   0.620689 0.809307 0.562343 -0.364732
C25   C     C_R   0.555546 0.095938 0.417980 0.547703
C26   C     C_R   0.637007 0.901045 0.560256 0.561565
C27   C     C_R   0.539084 0.046902 0.500955 -0.131561
C28   C     C_R   0.528657 0.950502 0.497944 -0.145029
H1    H     H_    0.545103 0.224307 0.353335 0.214069
H2    H     H_    0.702108 0.770987 0.611411 0.221999
H3    H     H_    0.284274 0.423013 0.051209 0.162164
H4    H     H_    0.622181 0.625684 0.941882 0.161635
H5    H     H_    0.714461 0.578370 0.088008 0.168800
H6    H     H_    0.376015 0.375414 0.923441 0.158500
N1    N     N_R   0.500000 0.499980 0.252470 -0.173223
N2    N     N_R   0.500000 0.500020 0.747530 -0.169983
O1    O     O_R   0.500010 0.369070 0.579480 -0.537088
O2    O     O_R   0.499990 0.630930 0.420520 -0.592296
O3    O     O_R   0.500010 0.369060 0.420520 -0.621229
O4    O     O_R   0.499990 0.630940 0.579480 -0.567149
O5    O     O_R   0.271750 0.500000 0.560890 -0.588559
O6    O     O_R   0.728250 0.500000 0.439110 -0.544495
O7    O     O_R   0.271750 0.499990 0.401930 -0.552308
O8    O     O_R   0.728250 0.500010 0.598070 -0.629311
Zn1   Zn    Zn3+2 0.500000 0.500010 0.606140 1.032449
Zn2   Zn    Zn3+2 0.500000 0.499990 0.393860 1.050110
O9    O     O_3   0.965625 0.440221 0.385399 -0.548182
C29   C     C_3   0.977257 0.347755 0.404055 -0.270725
H7    H     H_    0.916416 0.327970 0.465245 0.108866
H8    H     H_    0.101785 0.326895 0.417236 0.150718
H9    H     H_    0.918825 0.311226 0.340608 0.192323
O10   O     O_3   0.035594 0.564818 0.611316 -0.621336
C30   C     C_3   0.042405 0.517717 0.698417 -0.210457
H10   H     H_    0.056271 0.444576 0.690702 0.153589
H11   H     H_    0.936791 0.530187 0.731966 0.184885
H12   H     H_    0.144941 0.543178 0.747799 0.176405
O11   O     O_3   0.508931 0.042277 0.668619 -0.536750
C31   C     C_3   0.348670 0.031083 0.676660 -0.282414
H13   H     H_    0.289993 0.985152 0.621078 0.127299
H14   H     H_    0.287023 0.095880 0.673471 0.154534
H15   H     H_    0.338773 0.000043 0.746775 0.196992
O12   O     O_3   0.305369 0.954964 0.369846 -0.515787
C32   C     C_3   0.186166 0.991668 0.415117 -0.315418
H16   H     H_    0.084771 0.006356 0.360085 0.184489
H17   H     H_    0.226233 0.055727 0.449934 0.149270
H18   H     H_    0.143388 0.945414 0.467759 0.109517
O13   O     O_3   0.523733 0.224624 0.675130 -0.546706
C33   C     C_3   0.679068 0.234880 0.721643 -0.210776
H19   H     H_    0.733492 0.169038 0.739678 0.177844
H20   H     H_    0.676823 0.270997 0.789290 0.169195
H21   H     H_    0.752349 0.275399 0.678152 0.118082
O14   O     O_3   0.290006 0.771566 0.367959 -0.563576
C34   C     C_3   0.157535 0.744410 0.409644 -0.256492
H22   H     H_    0.188390 0.711386 0.480248 0.139801
H23   H     H_    0.088708 0.695047 0.362051 0.205241
H24   H     H_    0.080732 0.801837 0.416120 0.149216
O15   O     O_3   0.567265 0.054808 0.332526 -0.545075
C35   C     C_3   0.724981 0.032925 0.330609 -0.328403
H25   H     H_    0.756010 0.972299 0.374200 0.150656
H26   H     H_    0.807687 0.089292 0.353921 0.130414
H27   H     H_    0.739286 0.016999 0.256259 0.202525
O16   O     O_3   0.750712 0.942367 0.625079 -0.540383
C36   C     C_3   0.892327 0.947059 0.586633 -0.385336
H28   H     H_    0.885534 0.997920 0.528953 0.147666
H29   H     H_    0.925521 0.881122 0.560724 0.152639
H30   H     H_    0.987315 0.968819 0.643465 0.192760
O17   O     O_3   0.273514 0.406783 0.237657 -0.551542
C37   C     C_3   0.263420 0.316472 0.209510 -0.273704
H31   H     H_    0.206590 0.277400 0.262199 0.185024
H32   H     H_    0.380747 0.287138 0.207745 0.146379
H33   H     H_    0.188589 0.308908 0.139371 0.151658
O18   O     O_3   0.654397 0.632211 0.753394 -0.568428
C38   C     C_3   0.782712 0.673776 0.810724 -0.333934
H34   H     H_    0.855518 0.625219 0.856693 0.139388
H35   H     H_    0.741417 0.727494 0.853871 0.182690
H36   H     H_    0.859517 0.705730 0.763404 0.208240
O19   O     O_3   0.726607 0.593630 0.274388 -0.554900
C39   C     C_3   0.711542 0.686125 0.257093 -0.285131
H37   H     H_    0.588562 0.708188 0.255910 0.185921
H38   H     H_    0.755079 0.705464 0.189742 0.152527
H39   H     H_    0.784839 0.722319 0.315869 0.174186
O20   O     O_3   0.341470 0.369983 0.726231 -0.542151
C40   C     C_3   0.255455 0.304710 0.770138 -0.307018
H40   H     H_    0.335253 0.260357 0.817038 0.194664
H41   H     H_    0.189694 0.262255 0.713703 0.181013
H42   H     H_    0.167511 0.335484 0.809243 0.115654

loop_
_geom_bond_atom_site_label_1
_geom_bond_atom_site_label_2
_ccdc_geom_bond_type
O17   C37   S    
C32   H17   S    
C1    C21   S    
C38   H34   S    
C34   H22   S    
C15   O9    S    
C13   O5    A    
O19   C39   S    
C30   H10   S    
O10   C30   S    
C25   O15   S    
C23   H1    S    
C22   C24   A    
C19   C21   A    
C24   C26   A    
C8    N2    A    
C35   H26   S    
C31   H14   S    
C15   C16   D    
O6    Zn2   S    
C29   H9    S    
O9    C29   S    
C33   H19   S    
C2    C22   S    
C19   O13   S    
C4    C12   A    
C1    O1    A    
C14   O6    A    
C31   H15   S    
C29   H8    S    
C32   H18   S    
C26   O16   S    
C9    H5    S    
C34   H23   S    
C30   H11   S    
O4    Zn1   S    
O13   C33   S    
C17   C27   A    
C18   C28   A    
C10   H6    S    
C35   H25   S    
C18   O12   S    
C31   H13   S    
O15   C35   S    
O12   C32   S    
C2    O2    A    
C36   H28   S    
C37   H33   S    
N2    Zn1   S    
C40   H41   S    
C3    H3    S    
C9    C11   A    
C4    H4    S    
C10   C12   A    
O3    Zn2   S    
C4    C6    A    
C29   H7    S    
C36   H29   S    
C37   H32   S    
O16   C36   S    
C38   H36   S    
C39   H38   S    
C13   C15   S    
C34   H24   S    
C14   C16   S    
O1    Zn1   S    
C13   O7    A    
O8    Zn1   S    
C14   O8    A    
C30   H12   S    
C7    C9    A    
C7    O19   S    
C7    N1    A    
C8    C10   A    
C16   O10   S    
C20   C22   A    
O14   C34   S    
C3    C5    A    
C11   C12   S    
C25   C27   A    
C39   H39   S    
C26   C28   A    
C21   C23   A    
C35   H27   S    
O11   C31   S    
C33   H21   S    
C6    O18   S    
C5    N1    A    
O18   C38   S    
C17   C19   A    
C6    N2    A    
C40   H42   S    
C18   C20   A    
C23   C25   A    
O20   C40   S    
O7    Zn2   S    
C24   H2    S    
O2    Zn2   S    
C3    C11   A    
C1    O3    A    
C32   H16   S    
C5    O17   S    
C2    O4    A    
C36   H30   S    
C37   H31   S    
C38   H35   S    
C39   H37   S    
C40   H40   S    
C33   H20   S    
O5    Zn1   S    
C20   O14   S    
N1    Zn2   S    
C8    O20   S    
C17   O11   S    
C27   C28   S    
