data_mof_unit_12918.cif
_audit_creation_date              2013-03-05T16:33:23-0500
_audit_creation_method            fapswitch 2.2
_symmetry_space_group_name_H-M    P1
_symmetry_Int_Tables_number       1
_space_group_crystal_system       triclinic
_cell_length_a                    15.929643
_cell_length_b                    15.931039
_cell_length_c                    59.737748
_cell_angle_alpha                 90.019202
_cell_angle_beta                  90.16434
_cell_angle_gamma                 89.965364
_cell_volume                      15159.9266586

loop_
_atom_site_label
_atom_site_type_symbol
_atom_site_description
_atom_site_fract_x
_atom_site_fract_y
_atom_site_fract_z
_atom_type_partial_charge
Zn1   Zn    Zn3+2 0.599000 1.000000 0.730930 1.062245
Zn2   Zn    Zn3+2 0.401000 0.000000 0.269070 1.063147
Zn3   Zn    Zn3+2 0.000000 0.599000 0.730930 1.064790
Zn4   Zn    Zn3+2 0.000000 0.401000 0.269070 1.057672
Zn5   Zn    Zn3+2 0.401000 1.000000 0.730930 1.087137
Zn6   Zn    Zn3+2 0.599000 0.000000 0.269070 1.077710
Zn7   Zn    Zn3+2 0.000000 0.401000 0.730930 1.079489
Zn8   Zn    Zn3+2 0.000000 0.599000 0.269070 1.101230
Zn9   Zn    Zn3+2 0.099000 0.500000 0.230930 1.066562
Zn10  Zn    Zn3+2 0.901000 0.500000 0.769070 1.066829
Zn11  Zn    Zn3+2 0.500000 0.099000 0.230930 1.081856
Zn12  Zn    Zn3+2 0.500000 0.901000 0.769070 1.084818
Zn13  Zn    Zn3+2 0.901000 0.500000 0.230930 1.082823
Zn14  Zn    Zn3+2 0.099000 0.500000 0.769070 1.084458
Zn15  Zn    Zn3+2 0.500000 0.901000 0.230930 1.078995
Zn16  Zn    Zn3+2 0.500000 0.099000 0.769070 1.085231
O1    O     O_3   0.500000 0.000000 0.750000 -0.537218
O2    O     O_3   0.500000 1.000000 0.250000 -0.535307
O3    O     O_3   0.000000 0.500000 0.750000 -0.531852
O4    O     O_3   1.000000 0.500000 0.250000 -0.536035
O5    O     O_R   0.500000 0.069020 0.799580 -0.591625
O6    O     O_R   0.500000 0.930980 0.200420 -0.594075
O7    O     O_R   0.930980 0.500000 0.799580 -0.620569
O8    O     O_R   0.069020 0.500000 0.200420 -0.619655
O9    O     O_R   0.500000 0.930980 0.799580 -0.600950
O10   O     O_R   0.500000 0.069020 0.200420 -0.597055
O11   O     O_R   0.069020 0.500000 0.799580 -0.557032
O12   O     O_R   0.930980 0.500000 0.200420 -0.557430
O13   O     O_R   1.000000 0.569020 0.299580 -0.560062
O14   O     O_R   0.000000 0.430980 0.700420 -0.562997
O15   O     O_R   0.430980 1.000000 0.299580 -0.618894
O16   O     O_R   0.569020 0.000000 0.700420 -0.625187
O17   O     O_R   1.000000 0.430980 0.299580 -0.621674
O18   O     O_R   0.000000 0.569020 0.700420 -0.617449
O19   O     O_R   0.569020 1.000000 0.299580 -0.560188
O20   O     O_R   0.430980 0.000000 0.700420 -0.563031
O21   O     O_R   0.597490 0.833170 0.762730 -0.617326
O22   O     O_R   0.402510 0.166830 0.237270 -0.621746
O23   O     O_R   0.166830 0.597490 0.762730 -0.613113
O24   O     O_R   0.833170 0.402510 0.237270 -0.609859
O25   O     O_R   0.402510 0.166830 0.762730 -0.603699
O26   O     O_R   0.597490 0.833170 0.237270 -0.628588
O27   O     O_R   0.833170 0.402510 0.762730 -0.635760
O28   O     O_R   0.166830 0.597490 0.237270 -0.632791
O29   O     O_R   0.597490 0.166830 0.237270 -0.611978
O30   O     O_R   0.402510 0.833170 0.762730 -0.621799
O31   O     O_R   0.166830 0.402510 0.237270 -0.613728
O32   O     O_R   0.833170 0.597490 0.762730 -0.614937
O33   O     O_R   0.402510 0.833170 0.237270 -0.620645
O34   O     O_R   0.597490 0.166830 0.762730 -0.634592
O35   O     O_R   0.833170 0.597490 0.237270 -0.642583
O36   O     O_R   0.166830 0.402510 0.762730 -0.635910
O37   O     O_R   0.097490 0.333170 0.262730 -0.617671
O38   O     O_R   0.902510 0.666830 0.737270 -0.614486
O39   O     O_R   0.666830 0.097490 0.262730 -0.636895
O40   O     O_R   0.333170 0.902510 0.737270 -0.636585
O41   O     O_R   0.902510 0.666830 0.262730 -0.603274
O42   O     O_R   0.097490 0.333170 0.737270 -0.629820
O43   O     O_R   0.333170 0.902510 0.262730 -0.610956
O44   O     O_R   0.666830 0.097490 0.737270 -0.614406
O45   O     O_R   0.097490 0.666830 0.737270 -0.636283
O46   O     O_R   0.902510 0.333170 0.262730 -0.638194
O47   O     O_R   0.666830 0.902510 0.737270 -0.630708
O48   O     O_R   0.333170 0.097490 0.262730 -0.632344
O49   O     O_R   0.902510 0.333170 0.737270 -0.615927
O50   O     O_R   0.097490 0.666830 0.262730 -0.616548
O51   O     O_R   0.333170 0.097490 0.737270 -0.622397
O52   O     O_R   0.666830 0.902510 0.262730 -0.616249
C1    C     C_R   0.499445 0.000050 0.810367 1.051757
C2    C     C_R   0.500254 0.000097 0.189622 1.076884
C3    C     C_R   0.000419 0.498283 0.810381 1.041677
C4    C     C_R   0.999577 0.501446 0.189602 1.033376
C5    C     C_R   0.999220 0.500190 0.310410 1.016832
C6    C     C_R   0.000514 0.499675 0.689545 1.020365
C7    C     C_R   0.500416 0.000815 0.310455 1.017183
C8    C     C_R   0.499762 0.998693 0.689607 1.030376
C9    C     C_R   0.660343 0.839679 0.750018 0.854441
C10   C     C_R   0.339678 0.160344 0.249992 0.862590
C11   C     C_R   0.160370 0.660359 0.750014 0.873443
C12   C     C_R   0.839640 0.339628 0.249980 0.872299
C13   C     C_R   0.339599 0.160316 0.750005 0.900957
C14   C     C_R   0.660375 0.839656 0.250008 0.879471
C15   C     C_R   0.839658 0.339660 0.749983 0.873746
C16   C     C_R   0.160337 0.660350 0.250013 0.864934
C17   C     C_R   0.660414 0.160308 0.249996 0.858667
C18   C     C_R   0.339625 0.839649 0.749985 0.882159
C19   C     C_R   0.160301 0.339651 0.250003 0.854719
C20   C     C_R   0.839704 0.660356 0.749999 0.853883
C21   C     C_R   0.339696 0.839630 0.249997 0.846830
C22   C     C_R   0.660279 0.160399 0.749991 0.862356
C23   C     C_R   0.839623 0.660340 0.249993 0.874188
C24   C     C_R   0.160363 0.339644 0.750014 0.873333
C25   C     C_1   0.723343 0.223498 0.749985 -0.097930
C26   C     C_1   0.276632 0.776538 0.249998 -0.099191
C27   C     C_1   0.776640 0.723460 0.750005 -0.094892
C28   C     C_1   0.223376 0.276560 0.250004 -0.096129
C29   C     C_1   0.276544 0.776604 0.749982 -0.100403
C30   C     C_1   0.723502 0.223343 0.249991 -0.096778
C31   C     C_1   0.223417 0.276569 0.750027 -0.098107
C32   C     C_1   0.776553 0.723395 0.249991 -0.088119
C33   C     C_1   0.723447 0.776595 0.250009 -0.096099
C34   C     C_1   0.276519 0.223365 0.750012 -0.089511
C35   C     C_1   0.776585 0.276547 0.249969 -0.098970
C36   C     C_1   0.223451 0.723410 0.750010 -0.100914
C37   C     C_1   0.276585 0.223437 0.249988 -0.092752
C38   C     C_1   0.723435 0.776589 0.750025 -0.091491
C39   C     C_1   0.223424 0.723438 0.250019 -0.092302
C40   C     C_1   0.776558 0.276591 0.749968 -0.097717
C41   C     C_R   0.458680 0.016494 0.584953 0.670480
C42   C     C_R   0.544605 0.968818 0.415774 0.656611
C43   C     C_R   0.960533 0.458081 0.584140 0.656274
C44   C     C_R   0.023921 0.537852 0.415208 0.654468
C45   C     C_R   0.591314 0.948796 0.581648 0.695231
C46   C     C_R   0.411275 0.036078 0.418582 0.728246
C47   C     C_R   0.034332 0.587786 0.581441 0.745618
C48   C     C_R   0.945255 0.411303 0.418262 0.728119
C49   C     C_R   0.094208 0.519314 0.082089 0.741498
C50   C     C_R   0.909503 0.484778 0.918142 0.696485
C51   C     C_R   0.432316 0.049976 0.083353 0.695181
C52   C     C_R   0.555342 0.032223 0.915504 0.632779
C53   C     C_R   0.953345 0.469629 0.084092 0.657982
C54   C     C_R   0.053981 0.522917 0.915908 0.679264
C55   C     C_R   0.568574 0.988531 0.081536 0.698620
C56   C     C_R   0.409596 0.052880 0.916903 0.660347
O53   O     O_2   0.394897 0.041382 0.598207 -0.440715
O54   O     O_2   0.603209 0.932967 0.402586 -0.429417
O55   O     O_2   0.921101 0.401644 0.597272 -0.432203
O56   O     O_2   0.056379 0.598266 0.401967 -0.446961
O57   O     O_2   0.664608 0.926760 0.591351 -0.438984
O58   O     O_2   0.342793 0.066787 0.408043 -0.439784
O59   O     O_2   0.070951 0.652922 0.592085 -0.402585
O60   O     O_2   0.916429 0.340968 0.408335 -0.426459
O61   O     O_2   0.166782 0.535900 0.092897 -0.401136
O62   O     O_2   0.837507 0.466548 0.907271 -0.443567
O63   O     O_2   0.370689 0.082367 0.096154 -0.419025
O64   O     O_2   0.625030 0.038255 0.902914 -0.431424
O65   O     O_2   0.885689 0.452416 0.096833 -0.433048
O66   O     O_2   0.118883 0.547514 0.903031 -0.441731
O67   O     O_2   0.632063 0.949820 0.092370 -0.415915
O68   O     O_2   0.344056 0.087329 0.906089 -0.443517
N1    N     N_R   0.528676 0.981816 0.594571 -0.313187
N2    N     N_R   0.474907 0.003245 0.405989 -0.315614
N3    N     N_R   0.998328 0.525777 0.593984 -0.316520
N4    N     N_R   0.983543 0.471293 0.405485 -0.317813
N5    N     N_R   0.025734 0.495573 0.094288 -0.320115
N6    N     N_R   0.979087 0.504349 0.905865 -0.309752
N7    N     N_R   0.501196 0.016028 0.093612 -0.314213
N8    N     N_R   0.478442 0.025743 0.905139 -0.316740
C57   C     C_R   0.503158 0.914625 0.631027 0.310016
C58   C     C_R   0.515648 0.069974 0.370618 0.228755
C59   C     C_R   0.065324 0.481271 0.629101 0.309139
C60   C     C_R   0.919239 0.507563 0.369364 0.223425
C61   C     C_R   0.554494 0.060102 0.629867 0.252004
C62   C     C_R   0.440058 0.935232 0.369617 0.321216
C63   C     C_R   0.933592 0.562121 0.630536 0.303178
C64   C     C_R   0.056475 0.437117 0.369961 0.326533
C65   C     C_R   0.048080 0.424119 0.130772 0.313173
C66   C     C_R   0.958452 0.577283 0.869473 0.271177
C67   C     C_R   0.554949 0.064300 0.130361 0.322537
C68   C     C_R   0.403101 0.014658 0.867847 0.344125
C69   C     C_R   0.994322 0.569132 0.129399 0.316708
C70   C     C_R   0.005274 0.429685 0.870600 0.315454
C71   C     C_R   0.451595 0.950050 0.128704 0.325795
C72   C     C_R   0.536240 0.947130 0.871745 0.354851
C73   C     C_R   0.473505 0.927955 0.652981 0.239543
C74   C     C_R   0.541068 0.057718 0.348213 0.261611
C75   C     C_R   0.053758 0.456712 0.651626 0.243146
C76   C     C_R   0.934983 0.535765 0.347390 0.173882
C77   C     C_R   0.537581 0.068109 0.653257 0.270657
C78   C     C_R   0.455165 0.929999 0.346074 0.268273
C79   C     C_R   0.929130 0.546962 0.654107 0.261628
C80   C     C_R   0.065452 0.453748 0.346583 0.276223
C81   C     C_R   0.034443 0.422977 0.154396 0.266538
C82   C     C_R   0.969794 0.577596 0.845733 0.262063
C83   C     C_R   0.562715 0.051475 0.153745 0.255020
C84   C     C_R   0.417971 0.031534 0.845092 0.159317
C85   C     C_R   0.968118 0.562084 0.151888 0.236671
C86   C     C_R   0.029480 0.435148 0.847895 0.235939
C87   C     C_R   0.443247 0.953848 0.152318 0.257162
C88   C     C_R   0.550018 0.953161 0.848308 0.251622
C89   C     C_R   0.535224 0.983421 0.618768 -0.047236
C90   C     C_R   0.471212 0.005554 0.381773 -0.054429
C91   C     C_R   0.001982 0.528465 0.618180 -0.046159
C92   C     C_R   0.983567 0.465851 0.381294 -0.054663
C93   C     C_R   0.027977 0.497918 0.118469 -0.051847
C94   C     C_R   0.975952 0.502600 0.881687 -0.050726
C95   C     C_R   0.502920 0.009807 0.117759 -0.063750
C96   C     C_R   0.473389 0.998362 0.881566 -0.070700
C97   C     C_R   0.513540 0.985797 0.547878 -0.099929
C98   C     C_R   0.488546 0.000932 0.452721 -0.104705
C99   C     C_R   0.995743 0.512688 0.547276 -0.110088
C100  C     C_R   0.986380 0.486025 0.452160 -0.106106
C101  C     C_R   0.016102 0.493923 0.047598 -0.105566
C102  C     C_R   0.991331 0.499684 0.952511 -0.100121
C103  C     C_R   0.497616 0.028536 0.046969 -0.099091
C104  C     C_R   0.487001 0.041104 0.951818 -0.106031
C105  C     C_R   0.452844 0.025816 0.561458 -0.126011
C106  C     C_R   0.554644 0.969245 0.439295 -0.139416
C107  C     C_R   0.961478 0.447792 0.560655 -0.141414
C108  C     C_R   0.031121 0.543829 0.438741 -0.134489
C109  C     C_R   0.581432 0.942855 0.558156 -0.146576
C110  C     C_R   0.416166 0.035489 0.442283 -0.138107
C111  C     C_R   0.032180 0.584058 0.557720 -0.158683
C112  C     C_R   0.940211 0.420714 0.441764 -0.143596
C113  C     C_R   0.089411 0.524204 0.058454 -0.157456
C114  C     C_R   0.913190 0.483787 0.941833 -0.136861
C115  C     C_R   0.426624 0.052620 0.059735 -0.146056
C116  C     C_R   0.561670 0.035140 0.939178 -0.131117
C117  C     C_R   0.948632 0.462718 0.060561 -0.134949
C118  C     C_R   0.063103 0.517676 0.939389 -0.138483
C119  C     C_R   0.570732 0.998849 0.058024 -0.146541
C120  C     C_R   0.409742 0.051813 0.940552 -0.136293
C121  C     C_R   0.388356 0.073312 0.551154 0.342806
C122  C     C_R   0.628162 0.938311 0.449826 0.340736
C123  C     C_R   0.928732 0.375156 0.550123 0.341351
C124  C     C_R   0.080761 0.606023 0.449252 0.341047
C125  C     C_R   0.638450 0.897826 0.544601 0.340360
C126  C     C_R   0.351361 0.068116 0.455883 0.341856
C127  C     C_R   0.065818 0.648504 0.544135 0.337988
C128  C     C_R   0.892331 0.365845 0.455192 0.340565
C129  C     C_R   0.155538 0.557025 0.045343 0.337275
C130  C     C_R   0.842012 0.466423 0.955170 0.339557
C131  C     C_R   0.353630 0.080997 0.048494 0.338652
C132  C     C_R   0.639451 0.030192 0.950618 0.339724
C133  C     C_R   0.878315 0.427030 0.049584 0.345924
C134  C     C_R   0.141353 0.530282 0.950173 0.335780
C135  C     C_R   0.642262 0.978007 0.045163 0.335686
C136  C     C_R   0.335495 0.062269 0.953180 0.340190
C137  C     C_R   0.500386 0.999906 0.664817 -0.338461
C138  C     C_R   0.500574 0.995092 0.335297 -0.350581
C139  C     C_R   0.993527 0.499702 0.664702 -0.351908
C140  C     C_R   0.001740 0.499377 0.335234 -0.364271
C141  C     C_R   0.999037 0.494629 0.164898 -0.353460
C142  C     C_R   0.001209 0.504358 0.835070 -0.358504
C143  C     C_R   0.502404 0.001080 0.164862 -0.377368
C144  C     C_R   0.491885 0.999298 0.835029 -0.362994
C145  C     C_R   0.074816 0.517930 0.986990 0.028141
C146  C     C_R   0.935526 0.467466 0.013066 0.028386
C147  C     C_R   0.416198 0.055523 0.988211 0.028909
C148  C     C_R   0.568141 0.014957 0.010490 0.029229
C149  C     C_R   0.927283 0.474808 0.989386 0.029375
C150  C     C_R   0.079241 0.522067 0.010787 0.030436
C151  C     C_R   0.567074 0.025458 0.986807 0.031062
C152  C     C_R   0.420550 0.058454 0.012048 0.030020
C153  C     C_R   0.430268 0.032609 0.490017 0.032624
C154  C     C_R   0.569132 0.950976 0.510611 0.029550
C155  C     C_R   0.946177 0.432979 0.489326 0.031793
C156  C     C_R   0.031510 0.568907 0.510064 0.029318
C157  C     C_R   0.565574 0.959490 0.486865 0.028535
C158  C     C_R   0.438575 0.032244 0.513851 0.029780
C159  C     C_R   0.033386 0.559535 0.486311 0.028949
C160  C     C_R   0.953396 0.436597 0.513091 0.026800
C161  C     C_R   0.997791 0.497538 0.976338 0.097651
C162  C     C_R   0.010291 0.494524 0.023772 0.101955
C163  C     C_R   0.490039 0.040543 0.975669 0.099442
C164  C     C_R   0.495434 0.033984 0.023127 0.101166
C165  C     C_R   0.494785 0.997713 0.476588 0.099523
C166  C     C_R   0.506936 0.989522 0.524056 0.097427
C167  C     C_R   0.988501 0.492980 0.475980 0.100329
C168  C     C_R   0.993531 0.506096 0.523428 0.099944
C169  C     C_R   0.145898 0.531497 0.973469 -0.232831
C170  C     C_R   0.872061 0.431229 0.026312 -0.233868
C171  C     C_R   0.339732 0.064978 0.976503 -0.236110
C172  C     C_R   0.639687 0.985110 0.021906 -0.229932
C173  C     C_R   0.849917 0.461669 0.978401 -0.229644
C174  C     C_R   0.150022 0.554862 0.022027 -0.230623
C175  C     C_R   0.641073 0.023456 0.973908 -0.234160
C176  C     C_R   0.352026 0.084730 0.025186 -0.232981
C177  C     C_R   0.358928 0.066332 0.479140 -0.227370
C178  C     C_R   0.632003 0.902824 0.521330 -0.231603
C179  C     C_R   0.896193 0.372052 0.478456 -0.229234
C180  C     C_R   0.065473 0.640076 0.520889 -0.224942
C181  C     C_R   0.632257 0.933061 0.473087 -0.227559
C182  C     C_R   0.381663 0.075211 0.527852 -0.226450
C183  C     C_R   0.080732 0.613510 0.472523 -0.231057
C184  C     C_R   0.923978 0.371121 0.526847 -0.231349
H1    H     H_    0.207813 0.538529 0.980581 0.188466
H2    H     H_    0.818513 0.400475 0.018884 0.187991
H3    H     H_    0.280508 0.069214 0.985096 0.186849
H4    H     H_    0.695250 0.965407 0.013075 0.188072
H5    H     H_    0.792539 0.451412 0.987551 0.186328
H6    H     H_    0.200930 0.584086 0.013090 0.186651
H7    H     H_    0.702361 0.020983 0.981599 0.184631
H8    H     H_    0.295370 0.109330 0.017784 0.185334
H9    H     H_    0.305447 0.089734 0.488227 0.181621
H10   H     H_    0.674887 0.864060 0.511955 0.187776
H11   H     H_    0.855459 0.330455 0.487639 0.183846
H12   H     H_    0.089269 0.693130 0.511671 0.185671
H13   H     H_    0.691223 0.911762 0.479975 0.187899
H14   H     H_    0.333255 0.115375 0.521187 0.185241
H15   H     H_    0.122785 0.659876 0.479408 0.184778
H16   H     H_    0.901077 0.312910 0.519919 0.188611
S1    S     S_3+6 0.554928 0.164783 0.668070 0.130069
O69   O     O_2   0.646322 0.170086 0.674283 -0.238458
O70   O     O_2   0.531739 0.239104 0.653845 -0.139619
O71   O     O_3   0.497252 0.170883 0.691594 -0.582204
H17   H     H_    0.521634 0.218233 0.700188 0.367448
S2    S     S_3+6 0.426812 0.838660 0.330055 0.132316
O72   O     O_2   0.438829 0.759647 0.343406 -0.151215
O73   O     O_2   0.336137 0.846200 0.323268 -0.240695
O74   O     O_3   0.485764 0.829030 0.306836 -0.573887
H18   H     H_    0.456024 0.787332 0.297400 0.364133
S3    S     S_3+6 0.839154 0.577241 0.670327 0.131852
O75   O     O_2   0.849046 0.667552 0.677159 -0.241507
O76   O     O_2   0.759309 0.567359 0.657149 -0.143550
O77   O     O_3   0.829174 0.518087 0.693527 -0.576787
H19   H     H_    0.788878 0.548822 0.703117 0.363080
S4    S     S_3+6 0.159095 0.426226 0.331614 0.121257
O78   O     O_2   0.235923 0.437586 0.345943 -0.157580
O79   O     O_2   0.152680 0.335892 0.324500 -0.248127
O80   O     O_3   0.171937 0.486304 0.308672 -0.579733
H20   H     H_    0.213269 0.455809 0.299327 0.364983
S5    S     S_3+6 0.392285 0.863670 0.664386 0.124556
O81   O     O_2   0.349532 0.812204 0.646554 -0.144482
O82   O     O_2   0.429504 0.806551 0.681862 -0.308230
O83   O     O_3   0.318090 0.924497 0.676173 -0.486277
H21   H     H_    0.285094 0.885970 0.685766 0.383816
S6    S     S_3+6 0.632693 0.108836 0.337451 0.130388
O84   O     O_2   0.606330 0.175227 0.320969 -0.307471
O85   O     O_2   0.684832 0.148036 0.355676 -0.148544
O86   O     O_3   0.694703 0.038225 0.324603 -0.474430
H22   H     H_    0.735820 0.072098 0.316078 0.385926
S7    S     S_3+6 0.102663 0.363708 0.662447 0.142876
O87   O     O_2   0.140790 0.310354 0.644383 -0.132435
O88   O     O_2   0.169517 0.388293 0.679036 -0.295045
O89   O     O_3   0.030271 0.303739 0.675242 -0.477818
H23   H     H_    0.062953 0.261371 0.683735 0.388541
S8    S     S_3+6 0.883672 0.627427 0.336824 0.145001
O90   O     O_2   0.821175 0.602070 0.319152 -0.250172
O91   O     O_2   0.839417 0.675582 0.354987 -0.142955
O92   O     O_3   0.954607 0.692912 0.325422 -0.469052
H24   H     H_    0.994747 0.705638 0.337687 0.379418
S9    S     S_3+6 0.887989 0.629231 0.163001 0.128551
O93   O     O_2   0.927767 0.692653 0.178380 -0.299712
O94   O     O_2   0.840247 0.673898 0.144820 -0.138307
O95   O     O_3   0.817028 0.572721 0.177337 -0.485345
H25   H     H_    0.783721 0.614605 0.185772 0.385629
S10   S     S_3+6 0.102106 0.361576 0.835873 0.132110
O96   O     O_2   0.147770 0.311174 0.853347 -0.127203
O97   O     O_2   0.055008 0.303228 0.820525 -0.294691
O98   O     O_3   0.176314 0.412339 0.821180 -0.496196
H26   H     H_    0.206322 0.367804 0.812812 0.388458
S11   S     S_3+6 0.356474 0.905339 0.166228 0.128463
O99   O     O_2   0.281769 0.897869 0.150955 -0.148497
O100  O     O_2   0.382549 0.819337 0.173931 -0.230495
O101  O     O_3   0.327025 0.962385 0.188595 -0.584615
H27   H     H_    0.290621 0.924603 0.197462 0.370686
S12   S     S_3+6 0.640860 0.907608 0.835713 0.139288
O102  O     O_2   0.711406 0.899358 0.852290 -0.123005
O103  O     O_2   0.618345 0.822155 0.826868 -0.220735
O104  O     O_3   0.674594 0.967700 0.814393 -0.586530
H28   H     H_    0.713893 0.931586 0.805899 0.376758
S13   S     S_3+6 0.054715 0.330811 0.170999 0.127862
O105  O     O_2   0.029976 0.252380 0.158701 -0.151848
O106  O     O_2   0.147032 0.327606 0.176244 -0.239844
O107  O     O_3   0.000968 0.331066 0.195224 -0.581452
H29   H     H_    0.027430 0.286755 0.204506 0.361663
S14   S     S_3+6 0.950530 0.670245 0.829181 0.126247
O108  O     O_2   0.857464 0.678022 0.825443 -0.227433
O109  O     O_2   0.981917 0.747599 0.840886 -0.146444
O110  O     O_3   0.998320 0.667298 0.804093 -0.588292
H30   H     H_    0.972619 0.713510 0.795329 0.363180
S15   S     S_3+6 0.650031 0.093038 0.169086 0.129222
O111  O     O_2   0.725707 0.102478 0.154351 -0.143752
O112  O     O_2   0.626347 0.177327 0.178480 -0.228213
O113  O     O_3   0.676140 0.028560 0.190316 -0.587409
H31   H     H_    0.713125 0.062346 0.200169 0.367560
S16   S     S_3+6 0.339942 0.085167 0.829110 0.121239
O114  O     O_2   0.307291 0.027805 0.811106 -0.264591
O115  O     O_2   0.267994 0.113325 0.843468 -0.147679
O116  O     O_3   0.381988 0.170625 0.817037 -0.504084
H32   H     H_    0.405639 0.203728 0.829598 0.366529
S17   S     S_3+6 0.599390 0.144763 0.614130 0.165629
O117  O     O_2   0.530689 0.205558 0.608128 -0.132621
O118  O     O_2   0.664922 0.190101 0.627652 -0.161001
O119  O     O_3   0.645212 0.113162 0.590254 -0.521433
H33   H     H_    0.701640 0.092696 0.594769 0.403427
S18   S     S_3+6 0.384072 0.853998 0.384099 0.158319
O120  O     O_2   0.347811 0.883123 0.405926 -0.255935
O121  O     O_2   0.312711 0.821916 0.369980 -0.156674
O122  O     O_3   0.451361 0.774960 0.389460 -0.453588
H34   H     H_    0.416400 0.729971 0.396092 0.412380
S19   S     S_3+6 0.853486 0.620928 0.616278 0.165496
O123  O     O_2   0.781195 0.563001 0.611414 -0.186139
O124  O     O_2   0.823523 0.692363 0.630612 -0.145553
O125  O     O_3   0.885567 0.662691 0.591955 -0.527589
H35   H     H_    0.834334 0.686791 0.585033 0.425676
S20   S     S_3+6 0.134854 0.380277 0.385324 0.147618
O126  O     O_2   0.100797 0.343041 0.406526 -0.259047
O127  O     O_2   0.169530 0.309676 0.371449 -0.172891
O128  O     O_3   0.212780 0.446956 0.392094 -0.450884
H36   H     H_    0.254308 0.412344 0.400340 0.406640
S21   S     S_3+6 0.513588 0.810654 0.619812 0.152856
O129  O     O_2   0.603413 0.796824 0.612863 -0.188195
O130  O     O_2   0.493363 0.743982 0.636775 -0.148760
O131  O     O_3   0.450578 0.799313 0.597190 -0.500138
H37   H     H_    0.474118 0.750193 0.589010 0.403254
S22   S     S_3+6 0.534545 0.167063 0.384849 0.148903
O132  O     O_2   0.606724 0.155716 0.400996 -0.159145
O133  O     O_2   0.554968 0.236834 0.368720 -0.171049
O134  O     O_3   0.449081 0.197447 0.399387 -0.485656
H38   H     H_    0.404606 0.206311 0.387689 0.388586
S23   S     S_3+6 0.160059 0.456684 0.614460 0.137946
O135  O     O_2   0.186651 0.528778 0.599823 -0.250460
O136  O     O_2   0.230773 0.439224 0.630609 -0.159991
O137  O     O_3   0.143206 0.371713 0.598230 -0.473189
H39   H     H_    0.197274 0.361853 0.590491 0.412496
S24   S     S_3+6 0.815514 0.511106 0.381134 0.157581
O138  O     O_2   0.815564 0.565593 0.401769 -0.199547
O139  O     O_2   0.751151 0.543533 0.364788 -0.151090
O140  O     O_3   0.784978 0.412971 0.388108 -0.415978
H40   H     H_    0.799571 0.377483 0.374936 0.376317
S25   S     S_3+6 0.989235 0.666944 0.114723 0.139423
O141  O     O_2   0.915250 0.665336 0.098957 -0.220118
O142  O     O_2   0.980773 0.739856 0.130640 -0.158784
O143  O     O_3   0.077524 0.682825 0.099874 -0.498423
H41   H     H_    0.068814 0.737093 0.092047 0.407757
S26   S     S_3+6 0.008977 0.331900 0.885377 0.144507
O144  O     O_2   0.937315 0.324371 0.901591 -0.249722
O145  O     O_2   0.003025 0.258975 0.869398 -0.149957
O146  O     O_3   0.100069 0.326632 0.899728 -0.470578
H42   H     H_    0.096608 0.273786 0.908441 0.414726
S27   S     S_3+6 0.400766 0.870324 0.112550 0.152620
O147  O     O_2   0.451592 0.848902 0.092179 -0.275453
O148  O     O_2   0.389941 0.791701 0.126129 -0.154794
O149  O     O_3   0.306081 0.905405 0.104264 -0.439258
H43   H     H_    0.282809 0.859912 0.094802 0.410699
S28   S     S_3+6 0.576133 0.860397 0.887466 0.158221
O150  O     O_2   0.521720 0.845390 0.907598 -0.255667
O151  O     O_2   0.575183 0.782774 0.873164 -0.179761
O152  O     O_3   0.675056 0.878345 0.896148 -0.413026
H44   H     H_    0.690677 0.828018 0.904961 0.403699
S29   S     S_3+6 0.087951 0.333527 0.116385 0.163071
O153  O     O_2   0.121869 0.353545 0.093586 -0.269445
O154  O     O_2   0.157549 0.293448 0.129651 -0.149054
O155  O     O_3   0.008838 0.264557 0.113245 -0.442364
H45   H     H_    0.033974 0.215937 0.105354 0.415349
S30   S     S_3+6 0.926199 0.670473 0.884118 0.162614
O156  O     O_2   0.000491 0.728302 0.885817 -0.141034
O157  O     O_2   0.857267 0.714556 0.871499 -0.163768
O158  O     O_3   0.891265 0.653655 0.910263 -0.540012
H46   H     H_    0.829825 0.645259 0.908750 0.397515
S31   S     S_3+6 0.606842 0.149563 0.116698 0.155762
O159  O     O_2   0.556574 0.179877 0.096968 -0.277927
O160  O     O_2   0.618549 0.222098 0.132482 -0.155056
O161  O     O_3   0.701207 0.116898 0.107644 -0.427371
H47   H     H_    0.724959 0.165542 0.099515 0.419976
S32   S     S_3+6 0.311416 0.954318 0.873634 0.175687
O162  O     O_2   0.237195 0.010118 0.878056 -0.106968
O163  O     O_2   0.291917 0.899269 0.853839 -0.225531
O164  O     O_3   0.328311 0.892972 0.896127 -0.486101
H48   H     H_    0.275926 0.860206 0.897903 0.419708
N9    N     N_R   0.332693 0.125850 0.563830 0.252147
O165  O     O_R   0.252658 0.125913 0.559364 -0.291448
O166  O     O_R   0.363534 0.185487 0.576280 -0.253750
N10   N     N_R   0.701568 0.915094 0.437402 0.256951
O167  O     O_R   0.742937 0.972406 0.426483 -0.225764
O168  O     O_R   0.736223 0.842000 0.440714 -0.289201
N11   N     N_R   0.904111 0.302199 0.562561 0.255808
O169  O     O_R   0.831801 0.267039 0.558578 -0.293774
O170  O     O_R   0.960079 0.261406 0.574190 -0.236780
N12   N     N_R   0.136090 0.659463 0.436841 0.252109
O171  O     O_R   0.134319 0.741407 0.440342 -0.278763
O172  O     O_R   0.198539 0.625669 0.425741 -0.264761
N13   N     N_R   0.699396 0.841238 0.554006 0.246924
O173  O     O_R   0.775122 0.838467 0.545871 -0.314537
O174  O     O_R   0.674942 0.781649 0.567395 -0.290060
N14   N     N_R   0.276402 0.103853 0.446559 0.250353
O175  O     O_R   0.215209 0.054129 0.440117 -0.237449
O176  O     O_R   0.262947 0.185029 0.448574 -0.294092
N15   N     N_R   0.099516 0.724742 0.553362 0.252422
O177  O     O_R   0.048131 0.779869 0.562235 -0.234476
O178  O     O_R   0.176946 0.747189 0.548418 -0.302370
N16   N     N_R   0.835087 0.306323 0.445633 0.252138
O179  O     O_R   0.840965 0.227249 0.451143 -0.281052
O180  O     O_R   0.769117 0.332878 0.434714 -0.231396
N17   N     N_R   0.227251 0.597367 0.055170 0.255626
O181  O     O_R   0.302365 0.576721 0.048645 -0.286900
O182  O     O_R   0.217201 0.665917 0.066722 -0.282979
N18   N     N_R   0.759979 0.454809 0.945718 0.255224
O183  O     O_R   0.719921 0.519072 0.937397 -0.285868
O184  O     O_R   0.719051 0.385459 0.949642 -0.293819
N19   N     N_R   0.278227 0.102597 0.060224 0.254608
O185  O     O_R   0.236091 0.044178 0.070444 -0.263401
O186  O     O_R   0.242584 0.174830 0.056573 -0.294506
N20   N     N_R   0.718178 0.031372 0.939082 0.259938
O187  O     O_R   0.744702 0.101257 0.930340 -0.240180
O188  O     O_R   0.770783 0.969686 0.941800 -0.290352
N21   N     N_R   0.815241 0.380622 0.061468 0.253977
O189  O     O_R   0.736301 0.390442 0.056406 -0.295686
O190  O     O_R   0.837279 0.316808 0.073764 -0.276315
N22   N     N_R   0.218380 0.537678 0.937933 0.254048
O191  O     O_R   0.245153 0.474335 0.926163 -0.250345
O192  O     O_R   0.269483 0.599418 0.942242 -0.294406
N23   N     N_R   0.720181 0.953312 0.055290 0.255688
O193  O     O_R   0.761482 0.006946 0.067505 -0.254722
O194  O     O_R   0.758043 0.885640 0.048459 -0.293517
N24   N     N_R   0.253990 0.063978 0.942870 0.256929
O195  O     O_R   0.229460 0.000849 0.930682 -0.256392
O196  O     O_R   0.198970 0.119538 0.949153 -0.315394

loop_
_geom_bond_atom_site_label_1
_geom_bond_atom_site_label_2
_geom_bond_distance
_ccdc_geom_bond_type
C153  C158  1.429590 A    
N4    C92   1.447662 S    
C132  N20   1.432815 S    
C68   C84   1.406574 A    
C41   C105  1.414183 A    
N23   O193  1.301131 A    
S22   O134  1.687515 S    
C100  C167  1.427547 A    
Zn5   O51   1.929515 S    
C49   O61   1.348750 S    
N18   O183  1.303882 A    
C132  C175  1.395625 A    
C80   C140  1.418995 A    
C173  H5    1.078894 S    
S3    O76   1.502223 D    
C155  C160  1.425120 A    
C145  C150  1.424647 A    
C146  C162  1.417522 A    
S23   O136  1.506829 D    
C1    C144  1.478564 S    
C69   S25   1.789869 S    
Zn3   O38   1.929756 S    
N12   O172  1.312246 A    
Zn5   O20   1.885453 S    
C151  C163  1.414688 A    
Zn6   O19   1.885453 S    
C62   C78   1.429898 A    
S14   O110  1.683507 S    
C3    C142  1.478006 S    
C21   C26   1.421507 S    
Zn13  O35   1.929515 S    
O34   C22   1.262628 A    
C73   S5    1.787184 S    
S4    O79   1.503856 D    
C74   S6    1.792739 S    
C47   C111  1.418580 A    
Zn3   O3    1.945881 S    
O89   H23   0.991099 S    
C108  C124  1.413856 A    
C45   C109  1.414860 A    
C23   C32   1.420311 S    
Zn13  O4    1.942809 S    
S4    O80   1.684890 S    
C133  N21   1.437165 S    
C58   S22   1.789960 S    
C87   C143  1.418511 A    
C20   C27   1.420780 S    
S25   O142  1.507083 D    
C103  C164  1.427243 A    
C128  N16   1.433347 S    
C46   O58   1.349584 S    
C99   C111  1.420269 A    
C178  H10   1.078465 S    
Zn6   O2    1.942805 S    
C82   C142  1.420621 A    
C121  N9    1.436212 S    
S16   O114  1.503013 D    
C48   C112  1.414427 A    
N6    C94   1.445319 S    
C135  C172  1.394450 A    
S27   O149  1.681421 S    
C79   C139  1.419643 A    
C126  C177  1.394488 A    
C123  C184  1.393727 A    
C12   C35   1.421286 S    
S7    O87   1.502772 D    
C52   C116  1.418250 A    
C58   C90   1.415075 A    
S17   O119  1.680952 S    
Zn2   O43   1.929352 S    
O95   H25   0.990714 S    
O22   C10   1.262767 A    
Zn3   O18   1.883985 S    
C154  C178  1.413227 A    
S9    O93   1.504394 D    
C124  N12   1.434013 S    
O83   H21   0.991848 S    
Zn8   O41   1.928149 S    
C76   C140  1.413375 A    
O40   C18   1.261100 A    
S3    O75   1.503627 D    
S29   O155  1.682506 S    
C87   S11   1.790706 S    
C80   S4    1.795473 S    
N24   O195  1.301001 A    
C100  C112  1.416687 A    
C99   C168  1.428786 A    
O17   C5    1.278277 A    
O71   H17   0.991144 S    
N2    C90   1.448140 S    
S24   O139  1.505159 D    
C52   N8    1.374929 A    
Zn7   O3    1.945262 S    
C147  C163  1.416504 A    
O122  H34   0.991313 S    
C149  C173  1.410295 A    
O9    C1    1.275028 A    
S2    O72   1.502234 D    
C69   C85   1.412476 A    
S19   O123  1.503782 D    
C106  C122  1.416127 A    
O11   C3    1.270961 A    
O155  H45   0.991430 S    
C160  C168  1.419174 A    
C22   C25   1.421591 S    
S9    O95   1.681946 S    
C97   C105  1.415230 A    
S6    O86   1.683059 S    
C50   C114  1.416402 A    
Zn14  O3    1.942805 S    
Zn15  O26   1.928149 S    
C151  C175  1.410463 A    
C6    C139  1.487932 S    
C72   C96   1.419412 A    
O44   C22   1.261986 A    
N8    C96   1.476070 S    
S21   O129  1.507056 D    
C102  C161  1.427187 A    
C57   S21   1.794320 S    
O143  H41   0.992484 S    
N17   O182  1.301696 A    
S32   O162  1.502748 D    
O38   C20   1.262702 A    
N16   O179  1.305361 A    
C59   C75   1.414064 A    
S12   O102  1.501436 D    
N1    C89   1.449146 S    
C2    C143  1.479714 S    
Zn15  O33   1.930950 S    
N20   O187  1.301155 A    
Zn16  O34   1.930948 S    
S31   O160  1.502549 D    
C104  C120  1.411276 A    
C88   C144  1.422098 A    
O86   H22   0.990987 S    
C152  C164  1.417054 A    
O5    C1    1.274021 A    
C70   S26   1.791669 S    
S18   O120  1.500883 D    
C44   C108  1.413294 A    
S16   O116  1.681294 S    
C30   C35   1.197629 T    
Zn15  O2    1.945262 S    
C71   S27   1.787706 S    
Zn11  O2    1.945881 S    
C115  C131  1.415077 A    
Zn16  O5    1.884294 S    
O27   C15   1.262097 A    
C153  C177  1.413326 A    
O104  H28   0.990734 S    
C135  N23   1.434101 S    
O134  H38   1.003679 S    
C65   S29   1.796141 S    
C15   C40   1.421651 S    
N11   O170  1.302245 A    
C104  C163  1.425543 A    
C107  C123  1.416113 A    
Zn8   O13   1.884294 S    
O46   C12   1.260649 A    
C9    C38   1.420945 S    
C65   C93   1.422580 A    
N15   O178  1.318771 A    
O14   C6    1.272913 A    
C63   C91   1.422255 A    
S5    O82   1.505269 D    
C58   C74   1.412913 A    
C55   O67   1.348246 S    
C16   C39   1.421722 S    
O43   C21   1.262013 A    
C53   O65   1.349542 S    
C18   C29   1.421178 S    
S6    O85   1.503365 D    
C78   S2    1.798486 S    
S30   O156  1.503385 D    
C59   S23   1.789526 S    
O152  H44   0.990539 S    
S20   O126  1.501728 D    
C69   C93   1.414775 A    
C54   C118  1.412303 A    
C50   O62   1.348123 S    
C136  C171  1.395377 A    
C43   N3    1.367352 A    
C159  C167  1.419235 A    
C174  H6    1.078210 S    
C54   N6    1.366371 A    
C118  C134  1.415861 A    
C147  C171  1.410869 A    
C148  C172  1.408959 A    
C66   C82   1.430134 A    
S26   O145  1.506234 D    
S21   O131  1.690738 S    
Zn14  O36   1.929516 S    
C26   C39   1.197868 T    
C148  C164  1.416905 A    
C101  C113  1.418853 A    
C145  C169  1.409586 A    
S32   O164  1.682752 S    
C57   C73   1.411221 A    
Zn12  O30   1.929060 S    
C86   C142  1.415446 A    
C98   C110  1.420070 A    
C100  C108  1.415335 A    
C63   S19   1.795664 S    
C64   C80   1.429116 A    
S12   O104  1.683061 S    
N5    C93   1.445353 S    
S7    O88   1.504606 D    
O31   C19   1.262268 A    
C104  C116  1.413850 A    
C126  N14   1.433795 S    
N11   O169  1.302422 A    
S1    O69   1.503819 D    
C27   C38   1.197432 T    
C102  C118  1.417542 A    
S26   O146  1.685349 S    
C160  C184  1.409366 A    
N19   O185  1.301141 A    
C48   O60   1.347833 S    
C46   C110  1.417779 A    
O37   C19   1.262673 A    
S14   O109  1.501897 D    
C182  H14   1.077208 S    
C134  C169  1.393449 A    
C68   S32   1.783660 S    
C131  C176  1.393787 A    
C42   O54   1.349684 S    
S20   O127  1.502822 D    
O51   C13   1.261025 A    
S10   O97   1.504611 D    
S11   O100  1.503358 D    
C71   C87   1.418584 A    
S15   O113  1.683373 S    
S22   O133  1.507553 D    
C149  C161  1.416321 A    
C159  C183  1.411196 A    
S28   O150  1.503732 D    
O8    C4    1.279743 A    
Zn4   O17   1.883984 S    
C129  N17   1.435083 S    
O48   C10   1.262348 A    
C122  N10   1.434989 S    
S8    O90   1.504293 D    
N18   O184  1.304819 A    
O16   C8    1.277011 A    
C59   C91   1.415843 A    
C116  C132  1.415464 A    
S10   O98   1.682097 S    
Zn1   O1    1.948106 S    
O52   C14   1.260953 A    
C110  C126  1.414154 A    
S19   O125  1.679388 S    
C114  C130  1.415114 A    
S20   O128  1.682650 S    
C78   C138  1.420249 A    
C32   C33   1.197115 T    
N13   O174  1.302054 A    
C45   N1    1.368138 A    
C157  C181  1.409704 A    
C150  C174  1.411119 A    
C88   S12   1.786449 S    
O164  H48   0.990531 S    
C67   C83   1.416841 A    
C169  H1    1.078675 S    
N14   O175  1.313157 A    
C65   C81   1.428583 A    
C41   N1    1.369070 A    
C76   S8    1.787482 S    
O42   C24   1.260548 A    
Zn16  O25   1.928149 S    
O6    C2    1.276320 A    
C24   C31   1.420345 S    
C154  C157  1.425985 A    
C62   S18   1.795883 S    
C73   C137  1.412601 A    
C28   C37   1.197427 T    
S25   O141  1.506803 D    
Zn4   O37   1.929756 S    
C42   C106  1.413703 A    
Zn5   O40   1.930772 S    
Zn6   O39   1.930770 S    
O80   H20   0.991308 S    
S16   O115  1.501760 D    
S13   O105  1.501516 D    
C64   C92   1.421420 A    
S27   O148  1.502792 D    
S4    O78   1.502467 D    
C56   N8    1.373751 A    
C146  C149  1.425117 A    
O146  H42   0.991583 S    
C181  H13   1.078993 S    
C97   C166  1.427894 A    
C112  C128  1.412126 A    
C145  C161  1.418373 A    
C85   S9    1.793606 S    
S1    O71   1.683897 S    
C49   C113  1.415941 A    
S17   O118  1.503202 D    
C25   C40   1.197866 T    
Zn5   O1    1.942809 S    
O149  H43   0.990468 S    
C51   N7    1.366597 A    
C125  C178  1.395989 A    
Zn4   O46   1.929060 S    
C4    C141  1.479699 S    
C49   N5    1.367132 A    
Zn12  O21   1.929756 S    
N9    O166  1.301958 A    
O113  H31   0.990682 S    
Zn13  O24   1.930772 S    
C125  N13   1.437720 S    
S13   O106  1.503545 D    
Zn14  O23   1.930770 S    
C156  C168  1.417284 A    
Zn15  O6    1.884294 S    
Zn16  O1    1.945258 S    
S29   O154  1.503085 D    
Zn12  O1    1.945877 S    
N24   O196  1.301245 A    
S15   O111  1.502357 D    
O32   C20   1.262265 A    
Zn13  O12   1.885453 S    
Zn14  O11   1.885453 S    
C153  C165  1.418649 A    
C72   C88   1.421120 A    
S28   O152  1.682151 S    
C74   C138  1.415714 A    
Zn7   O14   1.884294 S    
C57   C89   1.414843 A    
C82   S14   1.802554 S    
N22   O191  1.302020 A    
O12   C4    1.271348 A    
S2    O73   1.503864 D    
S8    O92   1.683872 S    
C66   C94   1.422906 A    
C60   C76   1.410791 A    
C81   C141  1.419666 A    
S3    O77   1.684175 S    
S9    O94   1.503159 D    
O7    C3    1.279267 A    
S23   O137  1.685995 S    
C136  N24   1.435674 S    
O131  H37   0.996102 S    
C54   O66   1.348859 S    
N12   O171  1.322329 A    
C81   S13   1.800700 S    
C56   C120  1.412835 A    
N7    C95   1.446090 S    
O21   C9    1.262704 A    
C148  C151  1.424768 A    
C51   O63   1.348415 S    
C52   O64   1.346176 S    
S2    O74   1.684156 S    
O23   C11   1.261216 A    
O39   C17   1.261172 A    
C7    C138  1.486793 S    
N15   O177  1.312846 A    
N17   O181  1.301518 A    
Zn7   O49   1.930950 S    
C66   S30   1.798370 S    
Zn9   O4    1.948106 S    
N16   O180  1.305573 A    
C156  C180  1.412307 A    
C175  H7    1.078512 S    
Zn10  O3    1.948103 S    
C99   C107  1.417535 A    
O25   C13   1.260408 A    
S12   O103  1.503377 D    
N20   O188  1.301020 A    
O18   C6    1.281432 A    
N19   O186  1.301084 A    
C61   C89   1.422998 A    
Zn9   O31   1.928503 S    
S25   O143  1.684240 S    
Zn10  O32   1.928503 S    
O10   C2    1.273278 A    
C131  N19   1.433988 S    
O36   C24   1.260906 A    
S18   O121  1.503259 D    
S13   O107  1.683535 S    
C105  C121  1.415076 A    
C98   C106  1.417967 A    
C177  H9    1.077753 S    
O41   C23   1.260502 A    
C56   O68   1.343210 S    
O74   H18   0.990994 S    
C157  C165  1.419435 A    
O28   C16   1.262101 A    
C77   S1    1.797119 S    
O116  H32   0.990643 S    
C179  H11   1.078863 S    
S28   O151  1.502880 D    
C101  C162  1.426041 A    
S18   O122  1.683347 S    
O125  H35   0.991063 S    
C55   N7    1.366731 A    
C117  C133  1.415721 A    
C183  H15   1.078125 S    
S5    O81   1.505584 D    
Zn11  O29   1.929058 S    
C171  H3    1.077387 S    
C124  C183  1.395201 A    
Zn1   O44   1.929349 S    
C44   O56   1.350095 S    
C29   C36   1.197625 T    
O49   C15   1.262559 A    
C120  C136  1.414368 A    
C31   C34   1.197116 T    
C103  C115  1.418394 A    
S24   O138  1.507389 D    
C86   S10   1.797360 S    
N10   O168  1.303320 A    
C61   C77   1.429393 A    
C8    C137  1.481123 S    
O137  H39   0.991106 S    
C158  C182  1.411825 A    
C127  N15   1.437267 S    
S30   O158  1.681178 S    
N3    C91   1.447076 S    
S11   O99   1.502203 D    
Zn8   O50   1.930948 S    
O161  H47   0.990549 S    
Zn2   O2    1.948103 S    
S23   O135  1.505505 D    
O26   C14   1.260497 A    
O92   H24   0.992033 S    
O158  H46   0.991760 S    
O128  H36   0.991049 S    
N21   O190  1.301868 A    
C47   O59   1.348915 S    
O98   H26   0.991183 S    
C130  N18   1.434096 S    
S21   O130  1.503931 D    
O19   C7    1.273029 A    
Zn8   O4    1.945258 S    
C45   O57   1.348391 S    
C176  H8    1.077527 S    
C10   C37   1.420983 S    
C46   N2    1.367653 A    
C123  N11   1.435140 S    
O45   C11   1.260595 A    
C72   S28   1.786463 S    
O13   C5    1.273439 A    
C67   C95   1.415703 A    
C170  H2    1.078289 S    
C122  C181  1.393494 A    
C155  C179  1.412568 A    
C71   C95   1.416558 A    
C127  C180  1.395103 A    
C42   N2    1.367818 A    
C128  C179  1.394380 A    
S31   O161  1.681217 S    
C129  C174  1.395771 A    
O140  H40   0.996696 S    
C84   S16   1.782963 S    
O15   C7    1.281235 A    
N22   O192  1.302286 A    
C64   S20   1.792697 S    
C55   C119  1.414702 A    
O24   C12   1.261195 A    
C147  C152  1.426207 A    
C17   C30   1.421129 S    
C53   C117  1.411697 A    
C60   C92   1.412396 A    
O20   C8    1.273640 A    
N21   O189  1.301853 A    
Zn7   O42   1.928149 S    
C156  C159  1.427132 A    
C43   C107  1.412552 A    
Zn6   O52   1.929516 S    
C48   N4    1.368118 A    
O35   C23   1.260923 A    
S15   O112  1.503495 D    
C98   C165  1.429876 A    
S14   O108  1.503641 D    
C79   S3    1.797964 S    
C133  C170  1.395144 A    
Zn1   O47   1.928503 S    
Zn2   O48   1.928503 S    
O77   H19   0.990717 S    
C13   C34   1.420350 S    
Zn3   O45   1.929058 S    
C102  C114  1.419909 A    
C47   N3    1.367435 A    
C70   C86   1.413877 A    
C50   N6    1.367130 A    
S8    O91   1.505327 D    
S27   O147  1.502666 D    
C70   C94   1.416600 A    
C130  C173  1.395182 A    
N10   O167  1.302685 A    
S5    O83   1.683647 S    
C85   C141  1.413914 A    
Zn11  O10   1.883985 S    
C97   C109  1.417808 A    
Zn1   O16   1.882803 S    
Zn2   O15   1.882803 S    
C152  C176  1.409553 A    
O29   C17   1.260579 A    
S19   O124  1.502408 D    
C103  C119  1.418282 A    
S6    O84   1.504099 D    
C154  C166  1.416781 A    
C101  C117  1.416930 A    
S24   O140  1.690229 S    
C19   C28   1.420753 S    
N13   O173  1.302517 A    
N23   O194  1.301107 A    
C121  C182  1.396100 A    
C41   O53   1.349216 S    
N14   O176  1.316262 A    
S29   O153  1.501129 D    
C43   O55   1.349910 S    
C150  C162  1.416468 A    
C53   N5    1.366724 A    
C11   C36   1.421241 S    
C51   C115  1.414219 A    
C68   C96   1.409659 A    
C134  N22   1.435092 S    
O119  H33   0.992643 S    
S26   O144  1.504048 D    
O47   C9    1.262392 A    
C67   S31   1.789000 S    
Zn9   O28   1.929349 S    
Zn10  O27   1.929352 S    
O33   C21   1.262553 A    
S32   O163  1.503781 D    
C155  C167  1.417134 A    
Zn9   O8    1.882803 S    
C75   C139  1.415229 A    
Zn4   O4    1.945877 S    
Zn10  O7    1.882803 S    
C180  H12   1.078518 S    
O110  H30   0.991145 S    
C83   C143  1.419000 A    
C111  C127  1.415451 A    
Zn12  O9    1.883984 S    
S7    O89   1.683356 S    
C44   N4    1.368842 A    
C109  C125  1.413585 A    
S31   O159  1.502683 D    
S1    O70   1.502947 D    
S17   O117  1.503643 D    
O101  H27   0.990735 S    
C84   C144  1.419329 A    
C62   C90   1.423636 A    
C113  C129  1.414956 A    
O107  H29   0.990985 S    
C172  H4    1.078169 S    
C14   C33   1.420394 S    
C77   C137  1.418516 A    
C83   S15   1.790658 S    
N9    O165  1.301801 A    
S30   O157  1.503954 D    
C146  C170  1.409627 A    
O50   C16   1.262611 A    
C184  H16   1.078745 S    
C63   C79   1.430692 A    
S10   O96   1.502980 D    
S11   O101  1.683314 S    
S22   O132  1.509489 D    
Zn11  O22   1.929756 S    
C119  C135  1.415387 A    
C60   S24   1.798379 S    
C75   S7    1.793427 S    
C158  C166  1.419946 A    
C5    C140  1.483425 S    
O30   C18   1.260681 A    
C61   S17   1.794507 S    
