data_mof_unit_34105.cif
_audit_creation_date              2013-03-05T15:54:05-0500
_audit_creation_method            fapswitch 2.2
_symmetry_space_group_name_H-M    P1
_symmetry_Int_Tables_number       1
_space_group_crystal_system       triclinic
_cell_length_a                    16.722359
_cell_length_b                    7.271454
_cell_length_c                    15.180439
_cell_angle_alpha                 90.000063
_cell_angle_beta                  94.146047
_cell_angle_gamma                 89.996983
_cell_volume                      1841.04793352

loop_
_atom_site_label
_atom_site_type_symbol
_atom_site_description
_atom_site_fract_x
_atom_site_fract_y
_atom_site_fract_z
_atom_type_partial_charge
O1    O     O_R   0.578230 0.505720 0.424270 -0.550422
O2    O     O_R   0.421770 0.005720 0.575730 -0.550392
O3    O     O_R   0.412470 0.173950 0.404530 -0.497110
O4    O     O_R   0.587530 0.673950 0.595470 -0.497184
C1    C     C_R   0.385055 0.345629 0.381598 1.054305
C2    C     C_R   0.614958 0.845630 0.618382 1.054267
O5    O     O_R   0.577030 0.175880 0.413670 -0.592797
O6    O     O_R   0.422970 0.675880 0.586330 -0.592750
O7    O     O_R   0.587510 0.007580 0.584940 -0.565109
O8    O     O_R   0.412490 0.507580 0.415060 -0.565079
C3    C     C_R   0.603187 0.344438 0.393858 1.072531
C4    C     C_R   0.396812 0.844443 0.606141 1.072718
O9    O     O_3   0.503240 0.339850 0.556180 -0.238770
O10   O     O_3   0.496760 0.839850 0.443820 -0.238766
V1    V     V_3+5 0.499400 0.064230 0.489580 1.404928
V2    V     V_3+5 0.500600 0.564230 0.510420 1.404927
C5    C     C_1   0.333867 0.854398 0.668227 -0.164181
C6    C     C_1   0.666137 0.354384 0.331777 -0.164194
C7    C     C_1   0.280908 0.865291 0.719505 0.104244
C8    C     C_1   0.719101 0.365280 0.280504 0.104220
C9    C     C_1   0.218407 0.879097 0.779674 0.090061
C10   C     C_1   0.781606 0.379095 0.220342 0.090016
C11   C     C_1   0.165527 0.890023 0.831043 -0.296082
C12   C     C_1   0.834487 0.390027 0.168974 -0.296103
C13   C     C_3   0.745291 0.773902 0.851787 -0.162851
C14   C     C_3   0.254723 0.273972 0.148171 -0.163003
H1    H     H_    0.773158 0.639170 0.867485 0.204782
H2    H     H_    0.226882 0.139253 0.132367 0.204739
C15   C     C_3   0.670713 0.746469 0.779424 0.502865
C16   C     C_3   0.329257 0.246365 0.220549 0.503014
C17   C     C_3   0.841868 0.816816 0.722132 -0.052055
C18   C     C_3   0.158145 0.316773 0.277859 -0.051762
C19   C     C_3   0.776277 0.080802 0.792512 -0.518458
C20   C     C_3   0.223696 0.580803 0.207499 -0.518513
C21   C     C_3   0.813954 0.889971 0.813319 -0.189948
C22   C     C_3   0.186047 0.389962 0.186669 -0.189970
H3    H     H_    0.823035 0.170233 0.768415 0.210169
H4    H     H_    0.176923 0.670191 0.231608 0.210233
H5    H     H_    0.764846 0.150564 0.855072 0.222887
H6    H     H_    0.235103 0.650685 0.144966 0.222881
C23   C     C_3   0.686059 0.860890 0.691361 -0.651829
C24   C     C_3   0.313948 0.360864 0.308619 -0.651675
C25   C     C_3   0.768144 0.796403 0.650557 0.213512
C26   C     C_3   0.231875 0.296391 0.349436 0.213476
C27   C     C_3   0.700106 0.069996 0.723313 0.546268
C28   C     C_3   0.299875 0.569984 0.276682 0.546250
H7    H     H_    0.872972 0.939577 0.696645 0.114667
H8    H     H_    0.127042 0.439535 0.303355 0.114602
H9    H     H_    0.778815 0.898220 0.599248 0.115398
H10   H     H_    0.221198 0.398206 0.400743 0.115360
O11   O     O_R   0.087480 0.241090 0.084980 -0.591943
O12   O     O_R   0.912520 0.741090 0.915020 -0.591903
O13   O     O_R   0.922960 0.569060 0.086330 -0.585365
O14   O     O_R   0.077040 0.069060 0.913670 -0.585482
C29   C     C_R   0.897106 0.400315 0.106486 0.932728
C30   C     C_R   0.102902 0.900313 0.893525 0.932838
O15   O     O_R   0.087520 0.570920 0.095480 -0.605901
O16   O     O_R   0.912480 0.070920 0.904520 -0.605855
O17   O     O_R   0.078240 0.739160 0.924260 -0.573746
O18   O     O_R   0.921760 0.239160 0.075740 -0.573759
C31   C     C_R   0.114244 0.402438 0.117884 0.950168
C32   C     C_R   0.885765 0.902442 0.882102 0.949963
O19   O     O_3   0.996740 0.404980 0.943840 -0.298417
O20   O     O_3   0.003260 0.904980 0.056160 -0.298468
V3    V     V_3+5 0.000600 0.680640 0.010420 1.130656
V4    V     V_3+5 0.999400 0.180640 0.989580 1.130608
N1    N     N_R   0.715573 0.188465 0.645755 0.247205
O21   O     O_R   0.786736 0.200648 0.616793 -0.424904
O22   O     O_R   0.661218 0.299199 0.610667 -0.264696
N2    N     N_R   0.284380 0.688412 0.354252 0.247263
O23   O     O_R   0.213203 0.700584 0.383176 -0.424832
O24   O     O_R   0.338725 0.799046 0.389426 -0.264701
C33   C     C_3   0.724304 0.847454 0.945340 -0.303334
C34   C     C_3   0.717935 0.693264 0.013332 -0.728309
H11   H     H_    0.679923 0.577946 0.987156 0.299335
H12   H     H_    0.778386 0.637784 0.031443 0.224383
H13   H     H_    0.692967 0.748332 0.073820 0.260696
H14   H     H_    0.770589 0.942691 0.974784 0.172214
H15   H     H_    0.669638 0.932508 0.942596 0.274174
C35   C     C_3   0.275797 0.347866 0.054708 -0.303352
C36   C     C_3   0.281963 0.194071 0.986506 -0.729653
H16   H     H_    0.319785 0.078333 0.012535 0.299291
H17   H     H_    0.221436 0.139247 0.968258 0.224889
H18   H     H_    0.307066 0.249295 0.926129 0.260920
H19   H     H_    0.229646 0.443584 0.025423 0.172403
H20   H     H_    0.330590 0.432434 0.057537 0.274268
N3    N     N_R   0.591982 0.789278 0.815879 0.244893
O25   O     O_R   0.575117 0.711114 0.889375 -0.323407
O26   O     O_R   0.529829 0.823725 0.761980 -0.394996
N4    N     N_R   0.407987 0.288851 0.184061 0.244661
O27   O     O_R   0.424816 0.210055 0.110721 -0.323357
O28   O     O_R   0.470139 0.323688 0.237889 -0.394992
N5    N     N_R   0.666176 0.554881 0.755430 0.254752
O29   O     O_R   0.596109 0.481699 0.737378 -0.241525
O30   O     O_R   0.730505 0.456156 0.754635 -0.448201
N6    N     N_R   0.333703 0.054749 0.244505 0.254835
O31   O     O_R   0.403683 0.981643 0.263014 -0.241600
O32   O     O_R   0.269328 0.956223 0.245383 -0.448152
C37   C     C_3   0.917568 0.688619 0.723573 -0.289749
C38   C     C_3   0.911124 0.493231 0.759565 -0.549099
H21   H     H_    0.876071 0.485266 0.818183 0.244404
H22   H     H_    0.885637 0.398186 0.708961 0.279977
H23   H     H_    0.972418 0.440893 0.777757 0.201071
H24   H     H_    0.941205 0.683052 0.657118 0.214120
H25   H     H_    0.967752 0.756579 0.763061 0.135060
C39   C     C_3   0.082429 0.188652 0.276443 -0.289795
C40   C     C_3   0.088814 0.993283 0.240408 -0.548634
H26   H     H_    0.123939 0.985292 0.181842 0.244510
H27   H     H_    0.114176 0.898085 0.291025 0.279787
H28   H     H_    0.027505 0.941154 0.222116 0.201021
H29   H     H_    0.058825 0.183060 0.342916 0.214069
H30   H     H_    0.032244 0.256700 0.236987 0.134968
N7    N     N_R   0.765218 0.629170 0.594568 0.297538
O33   O     O_R   0.714398 0.626898 0.525755 -0.391541
O34   O     O_R   0.830810 0.540439 0.583291 -0.350507
N8    N     N_R   0.234827 0.129186 0.405437 0.297593
O35   O     O_R   0.285587 0.127052 0.474305 -0.391675
O36   O     O_R   0.169275 0.040249 0.416613 -0.350236
N9    N     N_R   0.628051 0.138407 0.766523 0.272735
O37   O     O_R   0.631847 0.190419 0.848814 -0.371613
O38   O     O_R   0.558262 0.151966 0.723249 -0.275790
N10   N     N_R   0.371917 0.638436 0.233463 0.272673
O39   O     O_R   0.368082 0.690730 0.151217 -0.371608
O40   O     O_R   0.441718 0.651907 0.276713 -0.275892

loop_
_geom_bond_atom_site_label_1
_geom_bond_atom_site_label_2
_geom_bond_distance
_ccdc_geom_bond_type
O16   C32   1.339508 A    
N3    O25   1.301102 A    
O19   V3    2.243680 S    
C3    C6    1.464563 S    
N5    O29   1.297969 A    
C19   C27   1.593309 S    
C33   C34   1.532844 S    
O1    C3    1.338083 A    
C16   N4    1.497009 S    
O2    C4    1.338090 A    
C2    O7    1.349596 A    
C36   H16   1.108255 S    
C11   C30   1.464765 S    
C39   H30   1.111369 S    
C12   C29   1.464780 S    
O5    C3    1.342801 A    
C19   H5    1.105457 S    
C17   C25   1.590234 S    
C20   H6    1.105401 S    
C18   C22   1.584509 S    
C7    C9    1.440394 S    
C39   C40   1.528795 S    
N8    O35   1.298230 A    
C24   C28   1.608150 S    
C16   N6    1.440568 S    
C5    C7    1.223187 T    
O16   V4    2.035991 S    
C2    C23   1.569357 S    
N6    O32   1.294000 A    
C4    C5    1.464556 S    
C27   N1    1.496410 S    
C35   H20   1.101771 S    
C40   H26   1.101963 S    
N2    O23   1.301108 A    
C20   C28   1.593267 S    
C17   C37   1.570902 S    
O13   V3    1.971872 S    
C6    C8    1.223192 T    
C27   N9    1.497930 S    
N9    O38   1.300925 A    
C37   H24   1.110522 S    
O19   V4    1.772203 S    
O18   V4    1.955230 S    
N5    O30   1.294026 A    
C18   C39   1.570895 S    
C29   O18   1.337447 A    
C23   C25   1.615729 S    
C24   C26   1.615670 S    
C36   H17   1.104357 S    
C40   H27   1.096505 S    
C39   H29   1.110533 S    
O13   C29   1.343618 A    
C13   C15   1.613615 S    
C37   H25   1.111346 S    
O14   C30   1.343598 A    
C15   N3    1.497263 S    
C34   H11   1.108427 S    
N1    O21   1.301127 A    
O4    C2    1.366291 A    
O8    V2    2.031704 S    
C25   H9    1.098522 S    
C33   H14   1.108363 S    
C34   H13   1.110523 S    
C38   H23   1.109373 S    
C19   H3    1.099767 S    
N1    O22   1.299297 A    
O11   V4    2.037550 S    
O20   V4    2.243676 S    
O4    V2    2.036017 S    
C35   H19   1.108142 S    
N4    O28   1.299733 A    
C37   C38   1.528798 S    
O6    C4    1.342792 A    
N6    O31   1.297453 A    
C38   H22   1.096401 S    
C33   H15   1.101953 S    
O1    V2    1.954989 S    
O2    V1    1.955017 S    
C26   N8    1.482328 S    
C34   H12   1.104521 S    
C13   C21   1.571227 S    
C14   C22   1.571214 S    
C8    C10   1.440400 S    
C14   C16   1.613359 S    
C9    C11   1.223144 T    
C40   H28   1.109387 S    
C10   C12   1.223148 T    
N10   O40   1.300883 A    
C22   C31   1.535887 S    
C36   H18   1.110483 S    
O3    V1    2.035956 S    
C1    C24   1.569403 S    
N7    O33   1.298211 A    
C26   H10   1.098502 S    
C15   C23   1.610862 S    
C20   H4    1.099785 S    
C16   C24   1.611090 S    
O15   V3    2.035933 S    
C35   C36   1.532513 S    
O3    C1    1.366240 A    
N2    O24   1.299263 A    
N9    O37   1.302349 A    
O15   C31   1.339493 A    
O14   V4    1.971818 S    
C13   H1    1.103468 S    
C14   H2    1.103551 S    
C30   O17   1.337462 A    
O20   V3    1.772205 S    
N3    O26   1.299783 A    
O7    V1    2.031674 S    
C1    O8    1.349680 A    
O12   C32   1.339423 A    
C25   N7    1.482395 S    
C15   N5    1.440573 S    
O11   C31   1.339408 A    
N4    O27   1.300874 A    
C18   H8    1.116336 S    
C17   C21   1.584434 S    
O5    V1    1.971966 S    
C38   H21   1.101908 S    
C19   C21   1.547042 S    
C20   C22   1.547055 S    
N8    O36   1.294461 A    
C21   C32   1.535978 S    
C13   C33   1.580561 S    
C14   C35   1.580590 S    
C28   N2    1.496466 S    
C18   C26   1.590278 S    
O6    V2    1.971908 S    
O9    V2    1.772590 S    
C23   C27   1.608089 S    
O10   V1    1.772593 S    
C28   N10   1.497948 S    
C17   H7    1.116342 S    
N10   O39   1.302287 A    
O17   V3    1.955263 S    
O12   V3    2.037518 S    
N7    O34   1.294503 A    
