data_mof_unit_49773.cif
_audit_creation_date              2012-12-10T17:31:03-0500
_audit_creation_method            fapswitch 2.2
_symmetry_space_group_name_H-M    P1
_symmetry_Int_Tables_number       1
_space_group_crystal_system       triclinic
_cell_length_a                    12.167207
_cell_length_b                    12.742999
_cell_length_c                    15.456256
_cell_angle_alpha                 84.929542
_cell_angle_beta                  115.385833
_cell_angle_gamma                 96.339217
_cell_volume                      2149.55717634

loop_
_atom_site_label
_atom_site_type_symbol
_atom_type_description
_atom_site_fract_x
_atom_site_fract_y
_atom_site_fract_z
_atom_type_partial_charge
C1    C     C_R   0.475504 0.299438 0.498935 0.880802
C2    C     C_R   0.658871 0.969159 0.579812 -0.216183
C3    C     C_R   0.349297 0.138460 0.428092 -0.216803
C4    C     C_R   0.652532 0.862621 0.564720 -0.210781
C5    C     C_R   0.558903 0.129946 0.548043 -0.277408
C6    C     C_R   0.440889 0.869856 0.448205 -0.278314
C7    C     C_R   0.554992 0.024988 0.531100 0.188895
C8    C     C_R   0.445754 0.975465 0.463431 0.188734
C9    C     C_R   0.027032 0.619888 0.433163 -0.337191
C10   C     C_R   0.966338 0.373646 0.557620 -0.337277
C11   C     C_R   0.140657 0.605477 0.435923 -0.020796
C12   C     C_R   0.524257 0.700539 0.500129 0.882771
C13   C     C_R   0.851507 0.387970 0.552614 -0.030715
C14   C     C_R   0.146609 0.441947 0.524501 0.250086
C15   C     C_R   0.860990 0.561886 0.485366 0.249105
C16   C     C_R   0.575051 0.492089 0.679960 0.861427
C17   C     C_R   0.424134 0.503347 0.320002 0.854087
C18   C     C_R   0.027947 0.451892 0.519585 0.059777
C19   C     C_R   0.970838 0.544877 0.478052 0.032825
C20   C     C_R   0.617664 0.472555 0.783399 -0.055811
C21   C     C_R   0.376567 0.489157 0.217129 -0.060068
C22   C     C_R   0.776394 0.445723 0.943078 -0.206365
C23   C     C_R   0.638209 0.425110 0.115323 -0.229366
C24   C     C_R   0.212873 0.445313 0.063431 -0.207501
C25   C     C_R   0.741156 0.464772 0.844892 -0.203038
C26   C     C_R   0.251576 0.471197 0.158577 -0.200565
C27   C     C_R   0.530001 0.456679 0.819907 -0.270731
C28   C     C_R   0.461342 0.481361 0.180083 -0.258989
C29   C     C_R   0.562543 0.435035 0.917287 0.094231
C30   C     C_R   0.425498 0.447273 0.088140 0.093471
C31   C     C_R   0.688226 0.433730 0.979957 0.179366
C32   C     C_R   0.299121 0.433784 0.027642 0.179280
C33   C     C_R   0.473516 0.423922 0.954308 0.070229
C34   C     C_R   0.346774 0.407215 0.895397 -0.228573
C35   C     C_R   0.512906 0.432040 0.053747 0.065943
C36   C     C_3   0.830445 0.675302 0.478313 -0.368035
C37   C     C_3   0.737882 0.709634 0.378575 -0.822495
C38   C     C_3   0.213230 0.346390 0.578215 -0.388829
C39   C     C_3   0.169547 0.250132 0.515967 -0.842335
C40   C     C_R   0.724119 0.423732 0.078579 -0.240364
C41   C     C_R   0.261126 0.410134 0.932300 -0.239106
C42   C     C_R   0.542346 0.813164 0.501207 -0.043636
C43   C     C_R   0.457509 0.186876 0.495168 -0.042371
C44   C     C_R   0.342766 0.031896 0.413129 -0.213445
H1    H     H_    0.805771 0.325453 0.579980 0.145858
H2    H     H_    0.311560 0.388921 0.820950 0.137661
H3    H     H_    0.356447 0.830333 0.398290 0.137925
H4    H     H_    0.642725 0.168922 0.599287 0.136816
H5    H     H_    0.259086 0.994525 0.360619 0.138507
H6    H     H_    0.743245 0.007033 0.631034 0.136878
H7    H     H_    0.819485 0.419861 0.127618 0.146854
H8    H     H_    0.164882 0.397353 0.885271 0.143280
H9    H     H_    0.872522 0.442994 0.990347 0.128980
H10   H     H_    0.115961 0.433413 0.018194 0.128949
H11   H     H_    0.730603 0.817882 0.606476 0.142869
H12   H     H_    0.181922 0.664350 0.401676 0.140265
H13   H     H_    0.272886 0.183844 0.383913 0.149992
H14   H     H_    0.772370 0.701090 0.323950 0.231979
H15   H     H_    0.649585 0.662574 0.357658 0.284369
H16   H     H_    0.722077 0.793884 0.378157 0.241279
H17   H     H_    0.806204 0.689561 0.536784 0.218262
H18   H     H_    0.913699 0.730459 0.496796 0.169707
H19   H     H_    0.166667 0.272033 0.444031 0.265752
H20   H     H_    0.232497 0.186860 0.550744 0.254075
H21   H     H_    0.076674 0.218083 0.505946 0.240945
H22   H     H_    0.312012 0.362143 0.604661 0.255058
H23   H     H_    0.984132 0.690043 0.394893 0.164810
H24   H     H_    0.202024 0.327862 0.645613 0.158471
H25   H     H_    0.003739 0.299906 0.590692 0.163094
H26   H     H_    0.556229 0.503499 0.223959 0.161434
H27   H     H_    0.436154 0.466474 0.771747 0.158187
H28   H     H_    0.184416 0.476043 0.186365 0.154629
H29   H     H_    0.810185 0.475075 0.817489 0.153858
H30   H     H_    0.671787 0.418399 0.192403 0.156651
N1    N     N_R   0.799120 0.480200 0.517090 -0.109754
N2    N     N_R   0.200880 0.519800 0.482910 -0.113765
O1    O     O_R   0.580150 0.341050 0.504560 -0.618201
O2    O     O_R   0.419850 0.658950 0.495440 -0.613473
O3    O     O_R   0.388090 0.353760 0.493600 -0.623559
O4    O     O_R   0.611910 0.646240 0.506400 -0.624812
O5    O     O_R   0.650890 0.490020 0.640860 -0.617613
O6    O     O_R   0.349110 0.509980 0.359140 -0.615105
O7    O     O_R   0.458830 0.502730 0.629890 -0.633828
O8    O     O_R   0.541170 0.497270 0.370110 -0.613960
Zn1   Zn    Zn3+2 0.628240 0.491510 0.507320 0.927980
Zn2   Zn    Zn3+2 0.371760 0.508490 0.492680 0.924757

loop_
_geom_bond_atom_site_label_1
_geom_bond_atom_site_label_2
_ccdc_geom_bond_type
C44   H5    S    
C15   N1    A    
C21   C26   A    
C27   C29   A    
C26   H28   S    
C14   C18   A    
C2    C7    A    
C9    H23   S    
C7    C8    A    
C15   C19   A    
C39   H20   S    
C3    C43   A    
C30   C35   A    
C36   C37   S    
C24   C26   A    
C18   C19   A    
C11   N2    A    
C38   C39   S    
C20   C25   A    
C24   H10   S    
C23   C40   A    
C29   C33   A    
C1    O1    A    
C31   C40   A    
C17   O6    A    
C12   C42   S    
C2    H6    S    
N1    Zn1   S    
C13   N1    A    
C9    C19   A    
C22   C25   A    
C12   O2    A    
C32   C41   A    
C34   H2    S    
C41   H8    S    
C37   H14   S    
O2    Zn2   S    
C5    C43   A    
O1    Zn1   S    
C39   H21   S    
C34   C41   A    
C36   H18   S    
C1    C43   S    
C22   H9    S    
C5    H4    S    
C3    C44   A    
C22   C31   A    
C38   H22   S    
O8    Zn1   S    
C6    H3    S    
C5    C7    A    
C6    C8    A    
O6    Zn2   S    
C16   O7    A    
C17   C21   S    
C14   N2    A    
C2    C4    A    
C24   C32   A    
O4    Zn1   S    
C14   C38   S    
C16   C20   S    
C33   C34   A    
C9    C11   A    
C37   H15   S    
C3    H13   S    
C21   C28   A    
C38   H24   S    
C23   C35   A    
C4    H11   S    
C1    O3    A    
C23   H30   S    
C36   H17   S    
N2    Zn2   S    
C15   C36   S    
C27   H27   S    
C13   H1    S    
C28   H26   S    
C8    C44   A    
C10   C13   A    
C20   C27   A    
C40   H7    S    
C39   H19   S    
C17   O8    A    
C28   C30   A    
C29   C31   A    
C30   C32   A    
C4    C42   A    
C10   C18   A    
C12   O4    A    
C16   O5    A    
C33   C35   A    
C25   H29   S    
C37   H16   S    
C10   H25   S    
O7    Zn2   S    
C6    C42   A    
O3    Zn2   S    
O5    Zn1   S    
C11   H12   S    
