data_mof_unit_7802.cif
_audit_creation_date              2012-12-10T16:48:44-0500
_audit_creation_method            fapswitch 2.2
_symmetry_space_group_name_H-M    P1
_symmetry_Int_Tables_number       1
_space_group_crystal_system       triclinic
_cell_length_a                    17.316811
_cell_length_b                    8.755708
_cell_length_c                    7.448874
_cell_angle_alpha                 102.954496
_cell_angle_beta                  89.76883
_cell_angle_gamma                 93.93932
_cell_volume                      1097.9846289

loop_
_atom_site_label
_atom_site_type_symbol
_atom_type_description
_atom_site_fract_x
_atom_site_fract_y
_atom_site_fract_z
_atom_type_partial_charge
C1    C     C_R   0.499826 0.200492 0.453754 0.788701
C2    C     C_R   0.500158 0.799512 0.546256 0.789944
C3    C     C_2   0.508502 0.034602 0.429414 0.183496
C4    C     C_2   0.491478 0.965417 0.570614 0.183572
C5    C     C_R   0.350938 0.498068 0.526782 0.821805
C6    C     C_R   0.649139 0.500381 0.473022 0.814818
C7    C     C_R   0.266313 0.483032 0.544234 -0.200471
C8    C     C_R   0.733900 0.503203 0.454374 -0.217127
C9    C     C_R   0.221987 0.427671 0.382930 -0.215101
C10   C     C_R   0.778918 0.534244 0.616087 -0.210836
C11   C     C_R   0.142233 0.412108 0.390288 -0.161714
C12   C     C_R   0.858487 0.531641 0.607795 -0.160545
C13   C     C_R   0.104350 0.454453 0.558615 -0.019688
C14   C     C_R   0.895431 0.494099 0.437592 -0.023100
C15   C     C_R   0.147785 0.509513 0.723955 0.413356
C16   C     C_R   0.851348 0.462375 0.272161 0.416845
C17   C     C_R   0.228683 0.520579 0.716385 0.375218
C18   C     C_R   0.771053 0.471702 0.280999 0.379694
C19   C     C_2   0.019673 0.441550 0.557267 -0.202700
C20   C     C_2   0.980099 0.498225 0.435610 -0.197664
Cu1   Cu    Cu3+1 0.508700 0.517250 0.683000 1.084633
Cu2   Cu    Cu3+1 0.491300 0.482750 0.317000 1.083308
H1    H     H_    0.248897 0.394860 0.249522 0.194415
H2    H     H_    0.752802 0.561825 0.750882 0.209682
H3    H     H_    0.010621 0.550803 0.334137 0.179021
H4    H     H_    0.989700 0.389013 0.659390 0.172691
H5    H     H_    0.891340 0.561192 0.735839 0.187876
H6    H     H_    0.109812 0.366865 0.263122 0.179649
N1    N     N_2   0.478180 0.456750 0.041980 0.151613
N2    N     N_2   0.521820 0.543250 0.958020 0.153650
O1    O     O_R   0.505650 0.286040 0.618880 -0.492013
O2    O     O_R   0.494350 0.713960 0.381120 -0.491950
O3    O     O_R   0.490960 0.256910 0.309800 -0.619052
O4    O     O_R   0.509040 0.743090 0.690200 -0.618887
O5    O     O_R   0.394600 0.516230 0.672450 -0.537584
O6    O     O_R   0.605400 0.483770 0.327550 -0.536004
O7    O     O_R   0.379910 0.487100 0.363380 -0.610685
O8    O     O_R   0.620090 0.512900 0.636620 -0.607810
O9    O     O_3   0.730514 0.445461 0.117505 -0.667536
H7    H     H_    0.703468 0.541969 0.120659 0.344142
O10   O     O_3   0.269335 0.574892 0.878738 -0.663039
H8    H     H_    0.297445 0.485179 0.898474 0.345859
O11   O     O_3   0.114444 0.555195 0.895084 -0.704948
H9    H     H_    0.058172 0.562525 0.881659 0.318516
O12   O     O_3   0.883798 0.423162 0.099293 -0.712071
H10   H     H_    0.936898 0.390859 0.109527 0.316320
O13   O     O_3   0.538162 0.950731 0.266322 -0.708368
H11   H     H_    0.553561 0.022882 0.185233 0.345017
O14   O     O_3   0.461832 0.049309 0.733725 -0.707272
H12   H     H_    0.446454 0.977163 0.814834 0.345970
O15   O     O_3   0.426116 0.356275 0.936847 -0.581839
H13   H     H_    0.398330 0.301231 0.022990 0.333554
O16   O     O_3   0.573299 0.644939 0.063410 -0.579886
H14   H     H_    0.600916 0.700260 0.977289 0.334526

loop_
_geom_bond_atom_site_label_1
_geom_bond_atom_site_label_2
_ccdc_geom_bond_type
C16   O12   S    
C2    C4    S    
C18   O9    S    
C6    O8    A    
N1    N2    D    
Cu1   O5    S    
Cu2   N1    S    
C5    O7    A    
Cu2   O6    S    
Cu1   N2    S    
C19   C20   D    
C4    O14   S    
O11   H9    S    
C2    O4    A    
C3    C4    D    
C1    O3    A    
C16   C18   A    
O16   H14   S    
C11   C13   A    
C9    C11   A    
Cu1   O1    S    
Cu2   O2    S    
C11   H6    S    
C10   C12   A    
C3    O13   S    
C12   C14   A    
C7    C9    A    
C13   C15   A    
N1    O15   S    
N2    O16   S    
C14   C16   A    
O12   H10   S    
C17   O10   S    
C20   H3    S    
C13   C19   S    
C12   H5    S    
C15   O11   S    
O15   H13   S    
C5    O5    A    
C1    O1    A    
C19   H4    S    
C14   C20   S    
C2    O2    A    
O14   H12   S    
O10   H8    S    
O9    H7    S    
C15   C17   A    
Cu2   O3    S    
C5    C7    S    
C9    H1    S    
C6    C8    S    
Cu1   O4    S    
C10   H2    S    
Cu1   Cu2   S    
Cu2   O7    S    
C8    C10   A    
C8    C18   A    
Cu1   O8    S    
O13   H11   S    
C6    O6    A    
C1    C3    S    
C7    C17   A    
