data_mof_unit_34880.cif
_audit_creation_date              2012-12-10T19:22:01-0500
_audit_creation_method            fapswitch 2.2
_symmetry_space_group_name_H-M    P1
_symmetry_Int_Tables_number       1
_space_group_crystal_system       triclinic
_cell_length_a                    8.729797
_cell_length_b                    17.72763
_cell_length_c                    16.465831
_cell_angle_alpha                 89.534728
_cell_angle_beta                  97.956775
_cell_angle_gamma                 90.266475
_cell_volume                      2523.59756769

loop_
_atom_site_label
_atom_site_type_symbol
_atom_type_description
_atom_site_fract_x
_atom_site_fract_y
_atom_site_fract_z
_atom_type_partial_charge
C1    C     C_R   0.503296 0.355392 0.500717 0.865035
C2    C     C_R   0.502822 0.644778 0.499794 0.865660
C3    C     C_1   0.475520 0.966459 0.502210 -0.024695
C4    C     C_1   0.475494 0.034065 0.501333 -0.026004
C5    C     C_R   0.597624 0.545328 0.836443 -0.305386
C6    C     C_R   0.375809 0.471905 0.161805 -0.307165
C7    C     C_R   0.597997 0.545443 0.750863 0.079079
C8    C     C_R   0.376673 0.472253 0.247478 0.060063
C9    C     C_R   0.399650 0.453618 0.734604 0.115992
C10   C     C_R   0.625884 0.526865 0.266386 0.129762
C11   C     C_R   0.394239 0.451377 0.820240 0.072950
C12   C     C_R   0.632178 0.526584 0.180783 0.076693
C13   C     C_R   0.495551 0.498293 0.872620 0.109868
C14   C     C_R   0.503568 0.499127 0.126967 0.110124
C15   C     C_1   0.497971 0.498584 0.962453 -0.041551
C16   C     C_1   0.499938 0.498707 0.037050 -0.040448
C17   C     C_R   0.203330 0.500040 0.479125 0.873065
C18   C     C_R   0.796665 0.500128 0.520865 0.944412
C19   C     C_2   0.037742 0.500230 0.467442 -0.331512
C20   C     C_2   0.962241 0.500045 0.532529 -0.308749
C21   C     C_R   0.409979 0.842459 0.559222 0.195688
C22   C     C_R   0.398697 0.156783 0.435310 0.196668
C23   C     C_R   0.420523 0.763758 0.556818 -0.276070
C24   C     C_R   0.410217 0.235548 0.436936 -0.283118
C25   C     C_R   0.500096 0.727895 0.499377 -0.182862
C26   C     C_R   0.501579 0.272545 0.501600 -0.178765
C27   C     C_R   0.572888 0.772287 0.443575 0.423208
C28   C     C_R   0.585913 0.229681 0.565637 0.399800
C29   C     C_R   0.560738 0.850764 0.445742 -0.266022
C30   C     C_R   0.572743 0.151120 0.564217 -0.268609
C31   C     C_R   0.480578 0.885751 0.502625 0.051475
C32   C     C_R   0.480379 0.114792 0.500129 0.054141
Cu1   Cu    Cu3+1 0.499990 0.499980 0.580420 0.995456
Cu2   Cu    Cu3+1 0.500010 0.500020 0.419580 0.995227
H1    H     H_    0.977774 0.500534 0.404991 0.164025
H2    H     H_    0.022239 0.499711 0.594980 0.167514
H3    H     H_    0.365048 0.730107 0.599753 0.169031
H4    H     H_    0.346276 0.268396 0.387790 0.159523
H5    H     H_    0.615031 0.885335 0.403171 0.174014
H6    H     H_    0.636191 0.117584 0.612838 0.171366
H7    H     H_    0.677122 0.581934 0.874274 0.147889
H8    H     H_    0.275509 0.450020 0.122874 0.144898
H9    H     H_    0.677319 0.582112 0.724204 0.126490
H10   H     H_    0.277645 0.449927 0.272588 0.126935
H11   H     H_    0.322496 0.417967 0.694354 0.136975
H12   H     H_    0.723675 0.548509 0.307011 0.166214
N1    N     N_R   0.499960 0.499970 0.701210 -0.184095
N2    N     N_R   0.500040 0.500030 0.298790 -0.187962
O1    O     O_R   0.499990 0.391240 0.567930 -0.526563
O2    O     O_R   0.500010 0.608760 0.432070 -0.504860
O3    O     O_R   0.500000 0.391270 0.432120 -0.602647
O4    O     O_R   0.500000 0.608730 0.567880 -0.613114
O5    O     O_R   0.274830 0.499990 0.552240 -0.598801
O6    O     O_R   0.725170 0.500010 0.447760 -0.592771
O7    O     O_R   0.274840 0.500020 0.416420 -0.602153
O8    O     O_R   0.725160 0.499980 0.583580 -0.569541
C33   C     C_3   0.322906 0.878587 0.622030 -0.389204
C34   C     C_3   0.434003 0.908689 0.694373 -0.812627
H13   H     H_    0.506147 0.862107 0.724347 0.251628
H14   H     H_    0.510630 0.953042 0.673921 0.254439
H15   H     H_    0.366936 0.933596 0.740038 0.244785
H16   H     H_    0.248951 0.925086 0.593229 0.211270
H17   H     H_    0.244084 0.836943 0.645782 0.201124
C35   C     C_3   0.298916 0.119191 0.364439 -0.396660
C36   C     C_3   0.397264 0.088377 0.302537 -0.803923
H18   H     H_    0.464235 0.134785 0.278197 0.252020
H19   H     H_    0.478585 0.044738 0.331256 0.254048
H20   H     H_    0.320932 0.062370 0.250637 0.243398
H21   H     H_    0.229831 0.072845 0.387391 0.210195
H22   H     H_    0.214817 0.160085 0.332244 0.197265
S1    S     S_3+6 0.683851 0.733289 0.372036 -0.023713
O9    O     O_2   0.788872 0.672966 0.412619 -0.303351
O10   O     O_2   0.576302 0.699231 0.302662 -0.321240
O11   O     O_3   0.792963 0.800028 0.334347 -0.531865
H23   H     H_    0.726587 0.821648 0.286188 0.347311
S2    S     S_3+6 0.715339 0.271006 0.645706 0.004129
O12   O     O_2   0.811779 0.330402 0.611068 -0.280853
O13   O     O_2   0.624973 0.307016 0.706355 -0.310120
O14   O     O_3   0.834244 0.205523 0.694371 -0.524348
H24   H     H_    0.777005 0.183533 0.736851 0.344953
C37   C     C_3   0.279426 0.398877 0.852679 -0.452648
C38   C     C_3   0.331975 0.317011 0.850770 -0.725564
H25   H     H_    0.339642 0.299461 0.786856 0.268948
H26   H     H_    0.446821 0.310025 0.888530 0.254908
H27   H     H_    0.247253 0.279792 0.876110 0.240913
H28   H     H_    0.263113 0.412915 0.916475 0.213769
H29   H     H_    0.164497 0.405034 0.814686 0.218875
C39   C     C_3   0.778473 0.553911 0.149933 -0.480150
C40   C     C_3   0.796399 0.639302 0.157580 -0.709192
H30   H     H_    0.692330 0.668038 0.125246 0.258379
H31   H     H_    0.813918 0.655898 0.223045 0.300774
H32   H     H_    0.898997 0.657992 0.129617 0.230904
H33   H     H_    0.880149 0.526086 0.185924 0.196575
H34   H     H_    0.780466 0.538559 0.084894 0.219070

loop_
_geom_bond_atom_site_label_1
_geom_bond_atom_site_label_2
_ccdc_geom_bond_type
C9    H11   S    
C27   C29   A    
C19   C20   D    
S2    O14   S    
C37   C38   S    
C33   H16   S    
C11   C37   S    
Cu1   O4    S    
C21   C31   A    
Cu2   O3    S    
C22   C32   A    
C22   C24   A    
S2    O13   D    
C34   H14   S    
C15   C16   T    
C38   H26   S    
C2    O2    A    
C36   H19   S    
C10   H12   S    
C24   H4    S    
C35   H22   S    
C40   H31   S    
C17   O7    A    
C5    C13   A    
C37   H28   S    
C18   O8    A    
C34   H15   S    
Cu2   O7    S    
C10   C12   A    
C33   H17   S    
C21   C23   A    
Cu1   O5    S    
C39   H34   S    
Cu2   O2    S    
O11   H23   S    
C12   C39   S    
S2    O12   D    
C5    C7    A    
C6    C8    A    
C34   H13   S    
C23   H3    S    
C7    N1    A    
C8    N2    A    
C21   C33   S    
C6    C14   A    
C1    O3    A    
C36   H20   S    
C29   H5    S    
Cu1   Cu2   S    
C30   H6    S    
C4    C32   S    
C35   H21   S    
C40   H32   S    
C3    C31   S    
C9    C11   A    
C37   H29   S    
C2    O4    A    
C12   C14   A    
Cu2   O6    S    
C7    H9    S    
C13   C15   S    
C10   N2    A    
C1    C26   S    
Cu1   N1    S    
C14   C16   S    
Cu2   N2    S    
C36   H18   S    
C3    C4    T    
C28   S2    S    
C17   O5    A    
C27   S1    S    
S1    O10   D    
C5    H7    S    
C39   H33   S    
C8    H10   S    
C24   C26   A    
S1    O11   S    
C9    N1    A    
C25   C27   A    
C38   H27   S    
C26   C28   A    
C35   C36   S    
C28   C30   A    
S1    O9    D    
C29   C31   A    
C19   H1    S    
C30   C32   A    
C11   C13   A    
C33   C34   S    
C1    O1    A    
Cu1   O8    S    
C17   C19   S    
C2    C25   S    
C18   C20   S    
C23   C25   A    
C18   O6    A    
C22   C35   S    
O14   H24   S    
C20   H2    S    
C39   C40   S    
C38   H25   S    
C6    H8    S    
C40   H30   S    
Cu1   O1    S    
