data_mof_unit_9161.cif
_audit_creation_date              2012-10-26T19:05:06-0400
_audit_creation_method            fapswitch 2.2
_symmetry_space_group_name_H-M    P1
_symmetry_Int_Tables_number       1
_space_group_crystal_system       triclinic
_cell_length_a                    15.877067
_cell_length_b                    10.865214
_cell_length_c                    9.578012
_cell_angle_alpha                 90.526866
_cell_angle_beta                  89.871353
_cell_angle_gamma                 92.407626
_cell_volume                      1650.74990673

loop_
_atom_site_label
_atom_site_type_symbol
_atom_type_description
_atom_site_fract_x
_atom_site_fract_y
_atom_site_fract_z
_atom_type_partial_charge
C1    C     C_R   0.507028 0.263188 0.500059 0.546212
C2    C     C_R   0.554242 0.067608 0.880391 -0.120586
C3    C     C_R   0.513124 0.952834 0.890601 -0.124506
C4    C     C_R   0.340244 0.500043 0.500224 0.554336
C5    C     C_R   0.486837 0.889761 0.769902 -0.105117
C6    C     C_R   0.502204 0.940625 0.635655 0.023612
C7    C     C_R   0.527060 0.066443 0.629303 0.028751
C8    C     C_R   0.515544 0.129590 0.502141 -0.005814
C9    C     C_R   0.500705 0.062782 0.378492 -0.148435
C10   C     C_R   0.493787 0.935642 0.380595 -0.146142
C11   C     C_R   0.493921 0.872696 0.507638 -0.004465
C12   C     C_3   0.953411 0.579340 0.634333 -0.067182
C13   C     C_R   0.612632 0.662871 0.145269 -0.072491
C14   C     C_R   0.668134 0.741776 0.073621 0.048805
C15   C     C_R   0.668279 0.741356 0.929728 -0.145718
C16   C     C_R   0.496083 0.737804 0.501791 0.540718
C17   C     C_R   0.612752 0.662548 0.856940 -0.116301
C18   C     C_R   0.555334 0.580075 0.925706 0.138447
C19   C     C_R   0.555297 0.580123 0.075375 0.129189
C20   C     C_R   0.447750 0.423293 0.073349 -0.005574
C21   C     C_R   0.447757 0.423342 0.925323 -0.007140
C22   C     C_R   0.659696 0.500751 0.499842 0.546325
C23   C     C_3   0.917094 0.504148 0.505767 0.066015
C24   C     C_3   0.051818 0.577706 0.631950 -0.190663
C25   C     C_3   0.044820 0.370555 0.512036 -0.216824
C26   C     C_3   0.947324 0.370336 0.509962 -0.212421
C27   C     C_1   0.749308 0.502221 0.499948 -0.023085
C28   C     C_3   0.082767 0.504039 0.503729 0.056033
C29   C     C_3   0.917064 0.534277 0.776701 -0.293880
C30   C     C_3   0.934727 0.627990 0.894295 -0.447456
C31   C     C_3   0.952809 0.564881 0.370731 -0.227548
C32   C     C_3   0.050300 0.564368 0.369418 -0.224947
C33   C     C_1   0.824844 0.503380 0.501736 -0.069797
C34   C     C_1   0.174979 0.503014 0.502051 -0.079750
C35   C     C_1   0.250539 0.501623 0.500888 -0.038601
C36   C     C_R   0.561112 0.124608 0.751019 -0.091610
Cu1   Cu    Cu3+1 0.499990 0.499990 0.640660 0.909857
Cu2   Cu    Cu3+1 0.500010 0.500010 0.359340 0.929973
H1    H     H_    0.078433 0.674062 0.628365 0.104559
H2    H     H_    0.404983 0.360413 0.128224 0.113453
H3    H     H_    0.076582 0.536113 0.728544 0.122167
H4    H     H_    0.617687 0.670880 0.255210 0.204485
H5    H     H_    0.711169 0.803241 0.873452 0.149103
H6    H     H_    0.617288 0.671593 0.747043 0.192974
H7    H     H_    0.405010 0.360465 0.869409 0.120635
H8    H     H_    0.067430 0.314779 0.422483 0.118752
H9    H     H_    0.066059 0.326256 0.609442 0.114343
H10   H     H_    0.921312 0.321379 0.602982 0.116536
H11   H     H_    0.923586 0.318025 0.416559 0.126724
H12   H     H_    0.935102 0.676506 0.621390 0.137391
H13   H     H_    0.076701 0.660587 0.361414 0.119278
H14   H     H_    0.071759 0.512912 0.275731 0.119620
H15   H     H_    0.932394 0.661400 0.363582 0.137701
H16   H     H_    0.003537 0.644694 0.909612 0.144233
H17   H     H_    0.905612 0.716519 0.870208 0.166008
H18   H     H_    0.907077 0.592245 0.993320 0.156377
H19   H     H_    0.847603 0.518996 0.770270 0.163924
H20   H     H_    0.943973 0.445257 0.805586 0.148565
H21   H     H_    0.927664 0.514429 0.276998 0.124735
H22   H     H_    0.494046 0.108733 0.279446 0.135320
H23   H     H_    0.594553 0.213245 0.747520 0.148261
H24   H     H_    0.578463 0.114227 0.973242 0.129244
H25   H     H_    0.503037 0.911326 0.991955 0.119693
H26   H     H_    0.451719 0.803968 0.785551 0.152082
H27   H     H_    0.486510 0.886709 0.281994 0.139402
I1    I     I_    0.751890 0.862739 0.184457 -0.483386
N1    N     N_R   0.500800 0.501210 0.147910 -0.242174
N2    N     N_R   0.500820 0.501290 0.852040 -0.244580
O1    O     O_R   0.499990 0.319640 0.618810 -0.510723
O2    O     O_R   0.500000 0.319660 0.381240 -0.502104
O3    O     O_R   0.379430 0.499990 0.618840 -0.495603
O4    O     O_R   0.379440 0.500020 0.381260 -0.493848
O5    O     O_R   0.500000 0.680340 0.618760 -0.534729
O6    O     O_R   0.500010 0.680360 0.381190 -0.522380
O7    O     O_R   0.620560 0.499980 0.618740 -0.521748
O8    O     O_R   0.620570 0.500010 0.381160 -0.506513

loop_
_geom_bond_atom_site_label_1
_geom_bond_atom_site_label_2
_ccdc_geom_bond_type
Cu2   O2    S    
Cu1   O1    S    
C12   C29   S    
C1    C8    S    
C7    C36   A    
C20   N1    A    
C22   O8    A    
C7    C8    A    
Cu2   O8    S    
C27   C33   T    
C25   C28   S    
C30   H16   S    
C12   C23   S    
C29   C30   S    
C16   O6    A    
C18   C19   A    
C5    C6    A    
C20   H2    S    
C18   N2    A    
Cu1   N2    S    
C24   H1    S    
C34   C35   T    
C23   C26   S    
C31   H21   S    
C32   H14   S    
C8    C9    A    
C23   C33   S    
C19   N1    A    
C9    C10   A    
C25   H9    S    
C26   H10   S    
Cu1   O7    S    
C4    C35   S    
C28   C34   S    
C13   C14   A    
C24   H3    S    
C22   O7    A    
C13   H4    S    
C21   H7    S    
Cu2   O4    S    
C13   C19   A    
C16   O5    A    
C28   C32   S    
Cu2   N1    S    
C26   H11   S    
C6    C11   A    
C25   C26   S    
C30   H18   S    
C1    O1    A    
C5    H26   S    
C23   C31   S    
C32   H13   S    
Cu1   Cu2   S    
C11   C16   S    
C31   C32   S    
C17   C18   A    
C14   I1    S    
C31   H15   S    
C29   H19   S    
C22   C27   S    
Cu1   O3    S    
C21   N2    A    
C36   H23   S    
C4    O4    A    
C29   H20   S    
Cu2   O6    S    
C10   H27   S    
C2    C36   A    
C15   C17   A    
Cu1   O5    S    
C24   C28   S    
C3    C5    A    
C12   H12   S    
C6    C7    A    
C3    H25   S    
C30   H17   S    
C12   C24   S    
C1    O2    A    
C9    H22   S    
C2    C3    A    
C17   H6    S    
C15   H5    S    
C10   C11   A    
C20   C21   A    
C14   C15   A    
C25   H8    S    
C4    O3    A    
C2    H24   S    
