data_mof_unit_19639.cif
_audit_creation_date              2012-12-11T15:54:40-0500
_audit_creation_method            fapswitch 2.2
_symmetry_space_group_name_H-M    P1
_symmetry_Int_Tables_number       1
_space_group_crystal_system       triclinic
_cell_length_a                    6.92209
_cell_length_b                    14.753587
_cell_length_c                    15.925721
_cell_angle_alpha                 90.110677
_cell_angle_beta                  90.532159
_cell_angle_gamma                 89.647347
_cell_volume                      1626.32090565

loop_
_atom_site_label
_atom_site_type_symbol
_atom_type_description
_atom_site_fract_x
_atom_site_fract_y
_atom_site_fract_z
_atom_type_partial_charge
O1    O     O_R   0.638180 0.333920 0.163320 -0.540173
O2    O     O_R   0.361820 0.666080 0.836680 -0.540291
O3    O     O_R   0.308470 0.344960 0.336080 -0.540713
O4    O     O_R   0.691530 0.655040 0.663920 -0.542726
O5    O     O_R   0.138140 0.166110 0.336680 -0.542233
O6    O     O_R   0.861860 0.833890 0.663320 -0.544830
C1    C     C_R   0.477870 0.367673 0.364685 0.693859
C2    C     C_R   0.522008 0.631378 0.636116 0.682877
O7    O     O_R   0.308460 0.344950 0.163930 -0.543133
O8    O     O_R   0.691540 0.655050 0.836070 -0.543262
O9    O     O_R   0.138140 0.166100 0.163310 -0.543740
O10   O     O_R   0.861860 0.833900 0.836690 -0.543314
C3    C     C_R   0.476998 0.367273 0.134921 0.686200
C4    C     C_R   0.523003 0.632739 0.865090 0.685572
O11   O     O_R   0.638180 0.333930 0.336700 -0.544463
O12   O     O_R   0.361820 0.666070 0.663300 -0.547568
O13   O     O_3   0.471670 0.191340 0.250000 -0.369246
O14   O     O_3   0.528330 0.808660 0.750000 -0.368034
V1    V     V_3+5 0.196830 0.260900 0.250000 1.389776
V2    V     V_3+5 0.803170 0.739100 0.750000 1.389259
O15   O     O_R   0.808420 0.155070 0.163920 -0.543378
O16   O     O_R   0.191580 0.844930 0.836080 -0.542964
C5    C     C_R   0.977419 0.132726 0.135017 0.679712
C6    C     C_R   0.022579 0.867282 0.864976 0.681678
O17   O     O_R   0.808420 0.155080 0.336070 -0.537332
O18   O     O_R   0.191580 0.844920 0.663930 -0.532646
C7    C     C_R   0.979729 0.132882 0.364616 0.703828
C8    C     C_R   0.020257 0.866802 0.634907 0.690114
V3    V     V_3+5 0.696830 0.239130 0.250000 1.399866
V4    V     V_3+5 0.303170 0.760870 0.750000 1.402227
O19   O     O_3   0.971850 0.308690 0.250010 -0.372584
O20   O     O_3   0.028150 0.691310 0.749990 -0.371814
H1    H     H_    0.424915 0.884031 0.291307 0.123172
H2    H     H_    0.607514 0.124672 0.715901 0.124032
C9    C     C_R   0.856485 0.175893 0.539594 0.143591
C10   C     C_R   0.161270 0.826776 0.461652 0.138506
C11   C     C_R   0.732421 0.186702 0.608036 -0.145392
C12   C     C_R   0.300243 0.820169 0.398295 -0.100769
C13   C     C_R   0.695822 0.114522 0.660869 -0.159109
C14   C     C_R   0.327908 0.891746 0.343826 -0.168484
C15   C     C_R   0.788281 0.031904 0.648135 -0.150823
C16   C     C_R   0.219114 0.970461 0.352516 -0.151055
C17   C     C_R   0.899563 0.015687 0.575316 0.047836
C18   C     C_R   0.101690 0.984806 0.423900 0.043894
C19   C     C_R   0.913997 0.086389 0.514748 0.065581
C20   C     C_R   0.088436 0.914139 0.484450 0.030592
C21   C     C_R   0.999655 0.932064 0.563289 -0.185261
C22   C     C_R   0.999435 0.067594 0.435629 -0.177057
H3    H     H_    0.678382 0.253128 0.625506 0.115899
H4    H     H_    0.373821 0.756708 0.385705 0.122196
H5    H     H_    0.768554 0.981689 0.696261 0.139084
H6    H     H_    0.234945 0.019958 0.303498 0.139195
C23   C     C_R   0.179834 0.973858 0.968425 -0.156451
C24   C     C_R   0.820161 0.026164 0.031556 -0.156828
H7    H     H_    0.320868 0.954689 0.945244 0.115362
H8    H     H_    0.679127 0.045333 0.054737 0.115413
C25   C     C_R   0.168613 0.037305 0.033749 -0.154915
C26   C     C_R   0.831383 0.962719 0.966232 -0.155319
H9    H     H_    0.301596 0.065220 0.058713 0.117941
H10   H     H_    0.698399 0.934804 0.941268 0.118021
C27   C     C_R   0.988614 0.064363 0.066238 -0.044075
C28   C     C_R   0.011382 0.935655 0.933746 -0.044711
C29   C     C_R   0.320436 0.473313 0.468187 -0.174307
C30   C     C_R   0.679167 0.523484 0.534545 -0.168783
H11   H     H_    0.179325 0.454277 0.444388 0.125140
H12   H     H_    0.819828 0.541456 0.559485 0.119553
C31   C     C_R   0.330912 0.533197 0.536221 -0.154932
C32   C     C_R   0.668793 0.462090 0.467507 -0.172146
H13   H     H_    0.197358 0.556801 0.563569 0.122323
H14   H     H_    0.802036 0.435301 0.442250 0.114658
C33   C     C_R   0.510560 0.561585 0.568538 -0.039981
C34   C     C_R   0.489189 0.435945 0.433517 -0.043460
C35   C     C_R   0.320033 0.475280 0.031777 -0.158502
C36   C     C_R   0.679971 0.524752 0.968253 -0.158667
H15   H     H_    0.178964 0.457300 0.055110 0.116389
H16   H     H_    0.821041 0.542734 0.944921 0.116282
C37   C     C_R   0.331794 0.538744 0.966645 -0.149568
C38   C     C_R   0.668211 0.461288 0.033385 -0.149451
H17   H     H_    0.198934 0.567805 0.942039 0.119454
H18   H     H_    0.801071 0.432229 0.057992 0.119605
C39   C     C_R   0.511939 0.564412 0.933886 -0.047579
C40   C     C_R   0.488064 0.435614 0.066138 -0.047598
C41   C     C_3   0.967316 0.259747 0.513675 -0.376522
C42   C     C_3   0.180578 0.249478 0.538699 -0.728478
H19   H     H_    0.194315 0.227805 0.605293 0.225594
H20   H     H_    0.254657 0.199052 0.498287 0.230162
H21   H     H_    0.255431 0.314826 0.532590 0.214345
H22   H     H_    0.950924 0.275810 0.446287 0.184029
H23   H     H_    0.911388 0.320672 0.546923 0.170638
C43   C     C_3   0.068997 0.739599 0.490963 -0.362988
C44   C     C_3   0.014830 0.676863 0.417611 -0.778623
H24   H     H_    0.928547 0.714472 0.369754 0.236345
H25   H     H_    0.145132 0.647207 0.387968 0.226910
H26   H     H_    0.927133 0.619893 0.440446 0.219049
H27   H     H_    0.169905 0.704970 0.534185 0.187427
H28   H     H_    0.931709 0.753068 0.523907 0.183088

loop_
_geom_bond_atom_site_label_1
_geom_bond_atom_site_label_2
_ccdc_geom_bond_type
C7    C22   S    
C26   C28   A    
V4    O20   S    
C29   H11   S    
C8    C21   S    
O13   V3    S    
C42   H21   S    
O4    C2    A    
V1    O19   S    
C43   H27   S    
C13   C15   A    
O9    V1    S    
C36   H16   S    
C30   C32   A    
C9    C11   A    
C42   H20   S    
O3    C1    A    
C24   C26   A    
C38   H18   S    
C25   H9    S    
C26   H10   S    
C30   C33   A    
O7    C3    A    
O5    C7    A    
O7    V1    S    
O6    C8    A    
O8    V2    S    
O3    V1    S    
O14   V4    S    
C31   C33   A    
C37   H17   S    
C41   H22   S    
C2    O12   A    
V3    O19   S    
C15   C17   A    
C16   C18   A    
C18   C20   A    
O11   V3    S    
C24   H8    S    
C23   H7    S    
O17   V3    S    
C41   H23   S    
C29   C31   A    
H1    C14   S    
H2    C13   S    
O12   V4    S    
C42   H19   S    
O8    C4    A    
C44   H24   S    
C9    C41   S    
C1    O11   A    
O15   V3    S    
C3    C40   S    
C31   H13   S    
C30   H12   S    
C44   H25   S    
C11   H3    S    
C23   C28   A    
C38   C40   A    
C41   C42   S    
C37   C39   A    
C32   C34   A    
O10   V2    S    
O1    V3    S    
C25   C27   A    
C17   C19   A    
O5    V1    S    
O18   V4    S    
O15   C5    A    
O16   C6    A    
O1    C3    A    
C35   H15   S    
C36   C39   A    
C9    C19   A    
C35   C40   A    
C1    C34   S    
V2    O20   S    
C19   C22   A    
C10   C43   S    
C20   C21   A    
C2    C33   S    
C6    C28   S    
O16   V4    S    
C14   C16   A    
C23   C25   A    
C43   H28   S    
C12   H4    S    
C24   C27   A    
O17   C7    A    
O6    V2    S    
O10   C6    A    
O18   C8    A    
O2    V4    S    
C10   C12   A    
C11   C13   A    
C44   H26   S    
C12   C14   A    
C10   C20   A    
C43   C44   S    
O9    C5    A    
O13   V1    S    
O14   V2    S    
O2    C4    A    
O4    V2    S    
C5    C27   S    
C29   C34   A    
C32   H14   S    
C36   C38   A    
C35   C37   A    
C4    C39   S    
C17   C21   A    
C15   H5    S    
C18   C22   A    
C16   H6    S    
