data_mof_unit_67401.cif
_audit_creation_date              2012-10-26T19:39:05-0400
_audit_creation_method            fapswitch 2.2
_symmetry_space_group_name_H-M    P1
_symmetry_Int_Tables_number       1
_space_group_crystal_system       triclinic
_cell_length_a                    11.823105
_cell_length_b                    12.767352
_cell_length_c                    7.616831
_cell_angle_alpha                 90.855273
_cell_angle_beta                  109.697042
_cell_angle_gamma                 89.898452
_cell_volume                      1082.35685774

loop_
_atom_site_label
_atom_site_type_symbol
_atom_type_description
_atom_site_fract_x
_atom_site_fract_y
_atom_site_fract_z
_atom_type_partial_charge
C1    C     C_R   0.347168 0.852550 0.451731 0.540652
C2    C     C_2   0.741502 0.772884 0.573582 -0.161875
C3    C     C_2   0.738781 0.230656 0.573788 -0.162684
C4    C     C_2   0.261219 0.769344 0.426212 -0.162683
C5    C     C_2   0.758497 0.727116 0.426418 -0.161875
C6    C     C_2   0.241503 0.272884 0.573582 -0.161875
C7    C     C_2   0.238781 0.730656 0.573788 -0.162684
C8    C     C_2   0.761219 0.269344 0.426212 -0.162684
C9    C     C_3   0.335595 0.027582 0.908391 -0.045065
C10   C     C_3   0.234831 0.970181 0.953270 -0.295891
C11   C     C_3   0.112813 0.987116 0.801950 -0.505798
C12   C     C_R   0.652832 0.147450 0.548269 0.540651
C13   C     C_3   0.664405 0.972418 0.091608 -0.045065
C14   C     C_3   0.765169 0.029819 0.046730 -0.295891
C15   C     C_3   0.887187 0.012884 0.198050 -0.505798
C16   C     C_3   0.835595 0.527582 0.908391 -0.045065
C17   C     C_3   0.734831 0.470181 0.953270 -0.295891
C18   C     C_3   0.612813 0.487116 0.801950 -0.505798
C19   C     C_3   0.164405 0.472418 0.091608 -0.045065
C20   C     C_3   0.265169 0.529819 0.046730 -0.295891
C21   C     C_3   0.387187 0.512883 0.198050 -0.505798
C22   C     C_R   0.653177 0.853321 0.547394 0.541744
C23   C     C_R   0.346822 0.146679 0.452606 0.541745
C24   C     C_R   0.847168 0.352550 0.451731 0.540652
C25   C     C_R   0.152832 0.647450 0.548269 0.540651
C26   C     C_R   0.153177 0.353321 0.547394 0.541744
C27   C     C_R   0.846822 0.646679 0.452606 0.541745
C28   C     C_2   0.258497 0.227115 0.426418 -0.161875
Cu1   Cu    Cu3+1 0.517640 0.000000 0.687200 0.903946
Cu2   Cu    Cu3+1 0.482360 0.000000 0.312800 0.903945
Cu3   Cu    Cu3+1 0.017640 0.500000 0.687200 0.903945
Cu4   Cu    Cu3+1 0.982360 0.500000 0.312800 0.903945
H1    H     H_    0.706148 0.747735 0.284559 0.116324
H2    H     H_    0.112608 0.953825 0.666191 0.152592
H3    H     H_    0.041527 0.947297 0.841195 0.151601
H4    H     H_    0.253341 0.884692 0.962463 0.173941
H5    H     H_    0.226750 0.999601 0.085669 0.204316
H6    H     H_    0.322983 0.113334 0.917126 0.125449
H7    H     H_    0.320712 0.003190 0.766162 0.199836
H8    H     H_    0.887392 0.046176 0.333808 0.152592
H9    H     H_    0.908121 0.927932 0.213718 0.154481
H10   H     H_    0.958473 0.052702 0.158804 0.151601
H11   H     H_    0.773250 0.000399 0.914331 0.204316
H12   H     H_    0.293852 0.252265 0.715441 0.116324
H13   H     H_    0.746659 0.115307 0.037536 0.173940
H14   H     H_    0.679288 0.996810 0.233837 0.199835
H15   H     H_    0.677017 0.886665 0.082874 0.125449
H16   H     H_    0.591879 0.572068 0.786282 0.154481
H17   H     H_    0.612608 0.453825 0.666191 0.152592
H18   H     H_    0.541527 0.447298 0.841196 0.151601
H19   H     H_    0.753341 0.384692 0.962464 0.173941
H20   H     H_    0.726750 0.499601 0.085669 0.204316
H21   H     H_    0.822983 0.613334 0.917126 0.125449
H22   H     H_    0.820712 0.503190 0.766162 0.199836
H23   H     H_    0.283804 0.760065 0.714777 0.125844
H24   H     H_    0.387392 0.546176 0.333808 0.152592
H25   H     H_    0.408121 0.427932 0.213718 0.154481
H26   H     H_    0.458473 0.552702 0.158804 0.151601
H27   H     H_    0.273250 0.500398 0.914331 0.204316
H28   H     H_    0.246659 0.615307 0.037536 0.173941
H29   H     H_    0.179288 0.496810 0.233837 0.199835
H30   H     H_    0.177016 0.386666 0.082874 0.125449
H31   H     H_    0.716196 0.239935 0.285222 0.125844
H32   H     H_    0.206148 0.247735 0.284559 0.116324
H33   H     H_    0.793852 0.752265 0.715441 0.116324
H34   H     H_    0.783804 0.260065 0.714777 0.125844
H35   H     H_    0.216196 0.739935 0.285222 0.125844
H36   H     H_    0.091879 0.072068 0.786284 0.154481
N1    N     N_2   0.455760 0.000000 0.031460 -0.146801
N2    N     N_2   0.544240 0.000000 0.968540 -0.146801
N3    N     N_2   0.955760 0.500000 0.031460 -0.146801
N4    N     N_2   0.044240 0.500000 0.968540 -0.146801
O1    O     O_R   0.398880 0.887420 0.621600 -0.516915
O2    O     O_R   0.630920 0.112580 0.694560 -0.514550
O3    O     O_R   0.630920 0.887420 0.694560 -0.514270
O4    O     O_R   0.369080 0.112580 0.305440 -0.514270
O5    O     O_R   0.869080 0.387420 0.305440 -0.514550
O6    O     O_R   0.130920 0.612580 0.694560 -0.514550
O7    O     O_R   0.130920 0.387420 0.694560 -0.514270
O8    O     O_R   0.869080 0.612580 0.305440 -0.514270
O9    O     O_R   0.601120 0.112580 0.378400 -0.516915
O10   O     O_R   0.601120 0.887420 0.378400 -0.526877
O11   O     O_R   0.398880 0.112580 0.621600 -0.526877
O12   O     O_R   0.898880 0.387420 0.621600 -0.516915
O13   O     O_R   0.101120 0.612580 0.378400 -0.516915
O14   O     O_R   0.101120 0.387420 0.378400 -0.526877
O15   O     O_R   0.898880 0.612580 0.621600 -0.526877
O16   O     O_R   0.369080 0.887420 0.305440 -0.514550

loop_
_geom_bond_atom_site_label_1
_geom_bond_atom_site_label_2
_ccdc_geom_bond_type
C12   O2    A    
C19   C20   S    
C7    H23   S    
C23   O4    A    
C2    H33   S    
C17   H19   S    
C23   O11   A    
C10   H5    S    
C22   O10   A    
C9    N1    S    
Cu1   O11   S    
C13   H14   S    
Cu1   O1    S    
C13   N2    S    
C19   H30   S    
C9    H7    S    
C16   H21   S    
C3    C12   S    
Cu4   O5    S    
C5    C27   S    
C6    C28   D    
C16   C17   S    
C5    H1    S    
C2    C22   S    
Cu4   N3    S    
C9    C10   S    
C1    O16   A    
C6    H12   S    
C13   C14   S    
C19   N4    S    
C16   N3    S    
C22   O3    A    
C4    C7    D    
C17   H20   S    
C14   H13   S    
Cu3   O15   S    
C25   O6    A    
C15   H9    S    
C3    C8    D    
C13   H15   S    
Cu1   O2    S    
Cu3   O12   S    
Cu2   O10   S    
C21   H25   S    
Cu1   Cu2   S    
Cu4   O8    S    
Cu2   O4    S    
Cu3   Cu4   S    
C26   O14   A    
Cu4   O14   S    
C25   O13   A    
C17   C18   S    
C23   C28   S    
C20   H27   S    
C27   O15   A    
C28   H32   S    
Cu3   N4    S    
C27   O8    A    
C3    H34   S    
C20   H28   S    
Cu2   O16   S    
Cu2   N1    S    
C11   H36   S    
C18   H18   S    
Cu3   O6    S    
Cu1   N2    S    
C11   H2    S    
C15   H10   S    
C4    H35   S    
C18   H16   S    
C21   H24   S    
Cu3   O7    S    
Cu1   O3    S    
C26   O7    A    
C7    C25   S    
C1    C4    S    
C1    O1    A    
Cu2   O9    S    
C11   H3    S    
C24   O12   A    
C21   H26   S    
C6    C26   S    
C19   H29   S    
Cu4   O13   S    
C9    H6    S    
C8    C24   S    
C12   O9    A    
N1    N2    D    
C16   H22   S    
C15   H8    S    
C10   C11   S    
C8    H31   S    
C2    C5    D    
C24   O5    A    
N3    N4    D    
C20   C21   S    
C14   C15   S    
C10   H4    S    
C18   H17   S    
C14   H11   S    
