data_mof_unit_61402.cif
_audit_creation_date              2013-03-05T15:45:00-0500
_audit_creation_method            fapswitch 2.2
_symmetry_space_group_name_H-M    P1
_symmetry_Int_Tables_number       1
_space_group_crystal_system       triclinic
_cell_length_a                    30.348178
_cell_length_b                    30.994743
_cell_length_c                    20.974422
_cell_angle_alpha                 90.480601
_cell_angle_beta                  43.964461
_cell_angle_gamma                 90.051138
_cell_volume                      13695.4278815

loop_
_atom_site_label
_atom_site_type_symbol
_atom_site_description
_atom_site_fract_x
_atom_site_fract_y
_atom_site_fract_z
_atom_type_partial_charge
O1    O     O_R   0.321660 0.769950 0.500020 -0.608062
O2    O     O_R   0.678340 0.230050 0.499980 -0.608062
O3    O     O_R   0.678340 0.769950 0.499980 -0.613110
O4    O     O_R   0.321660 0.230050 0.500020 -0.613111
O5    O     O_R   0.821660 0.269950 0.500020 -0.608062
O6    O     O_R   0.178340 0.730050 0.499980 -0.608063
O7    O     O_R   0.178340 0.269950 0.499980 -0.613111
O8    O     O_R   0.821660 0.730050 0.500020 -0.613109
O9    O     O_R   0.269950 0.821670 0.500000 -0.599316
O10   O     O_R   0.730050 0.178330 0.500000 -0.599316
O11   O     O_R   0.730050 0.821670 0.500000 -0.605660
O12   O     O_R   0.269950 0.178330 0.500000 -0.605661
O13   O     O_R   0.769950 0.321670 0.500000 -0.599317
O14   O     O_R   0.230050 0.678330 0.500000 -0.599315
O15   O     O_R   0.230050 0.321670 0.500000 -0.605659
O16   O     O_R   0.769950 0.678330 0.500000 -0.605660
C1    C     C_R   0.308051 0.809553 0.504228 0.874874
C2    C     C_R   0.691948 0.190447 0.495772 0.874872
C3    C     C_R   0.691863 0.809622 0.495608 0.878921
C4    C     C_R   0.308136 0.190378 0.504392 0.878923
C5    C     C_R   0.808051 0.309553 0.504228 0.874874
C6    C     C_R   0.191948 0.690447 0.495772 0.874873
C7    C     C_R   0.191863 0.309622 0.495608 0.878921
C8    C     C_R   0.808137 0.690378 0.504391 0.878922
O17   O     O_R   0.339000 0.724150 0.373720 -0.594775
O18   O     O_R   0.661000 0.275850 0.626280 -0.594775
O19   O     O_R   0.661000 0.724150 0.626280 -0.592168
O20   O     O_R   0.339000 0.275850 0.373720 -0.592167
O21   O     O_R   0.839000 0.224150 0.373720 -0.594775
O22   O     O_R   0.161000 0.775850 0.626280 -0.594776
O23   O     O_R   0.161000 0.224150 0.626280 -0.592168
O24   O     O_R   0.839000 0.775850 0.373720 -0.592168
O25   O     O_R   0.287290 0.775870 0.373700 -0.583176
O26   O     O_R   0.712710 0.224130 0.626300 -0.583176
O27   O     O_R   0.712710 0.775870 0.626300 -0.585002
O28   O     O_R   0.287290 0.224130 0.373700 -0.585003
O29   O     O_R   0.787290 0.275870 0.373700 -0.583176
O30   O     O_R   0.212710 0.724130 0.626300 -0.583175
O31   O     O_R   0.212710 0.275870 0.626300 -0.585003
O32   O     O_R   0.787290 0.724130 0.373700 -0.585004
C9    C     C_R   0.335772 0.749939 0.328533 0.856700
C10   C     C_R   0.664228 0.250061 0.671467 0.856700
C11   C     C_R   0.664427 0.750151 0.671496 0.864410
C12   C     C_R   0.335573 0.249849 0.328503 0.864411
C13   C     C_R   0.835772 0.249939 0.328533 0.856700
C14   C     C_R   0.164228 0.750061 0.671467 0.856700
C15   C     C_R   0.164427 0.250151 0.671496 0.864411
C16   C     C_R   0.835573 0.749849 0.328503 0.864410
Zn1   Zn    Zn3+2 0.284530 0.715470 0.500010 1.044741
Zn2   Zn    Zn3+2 0.715470 0.284530 0.499990 1.044740
Zn3   Zn    Zn3+2 0.715470 0.715470 0.499990 1.044645
Zn4   Zn    Zn3+2 0.284530 0.284530 0.500010 1.044646
Zn5   Zn    Zn3+2 0.784530 0.215470 0.500010 1.044739
Zn6   Zn    Zn3+2 0.215470 0.784530 0.499990 1.044739
Zn7   Zn    Zn3+2 0.215470 0.215470 0.499990 1.044646
Zn8   Zn    Zn3+2 0.784530 0.784530 0.500010 1.044645
C17   C     C_1   0.386732 0.749896 0.226901 -0.138524
C18   C     C_1   0.613267 0.250103 0.773099 -0.138524
C19   C     C_1   0.613944 0.750372 0.773142 -0.150517
C20   C     C_1   0.386056 0.249627 0.226858 -0.150519
C21   C     C_1   0.886732 0.249896 0.226901 -0.138525
C22   C     C_1   0.113267 0.750103 0.773099 -0.138525
C23   C     C_1   0.113944 0.250372 0.773142 -0.150520
C24   C     C_1   0.886056 0.749627 0.226858 -0.150518
C25   C     C_1   0.429148 0.749967 0.142276 0.065168
C26   C     C_1   0.570852 0.250033 0.857724 0.065168
C27   C     C_1   0.571701 0.750368 0.857776 0.050157
C28   C     C_1   0.428298 0.249632 0.142224 0.050155
C29   C     C_1   0.929148 0.249967 0.142276 0.065167
C30   C     C_1   0.070852 0.750033 0.857724 0.065167
C31   C     C_1   0.071701 0.250368 0.857776 0.050154
C32   C     C_1   0.928298 0.749632 0.142224 0.050156
C33   C     C_1   0.479249 0.750115 0.042343 0.059950
C34   C     C_1   0.520750 0.249884 0.957657 0.059950
C35   C     C_1   0.521669 0.750249 0.957715 0.055081
C36   C     C_1   0.478330 0.249751 0.042285 0.055080
C37   C     C_1   0.979249 0.250115 0.042343 0.059949
C38   C     C_1   0.020750 0.749884 0.957657 0.059949
C39   C     C_1   0.021669 0.250249 0.957715 0.055079
C40   C     C_1   0.978330 0.749751 0.042285 0.055080
H1    H     H_    0.379058 0.868158 0.381288 0.188198
H2    H     H_    0.620942 0.131842 0.618712 0.188199
H3    H     H_    0.651156 0.883387 0.583132 0.204958
H4    H     H_    0.348839 0.116611 0.416875 0.204962
H5    H     H_    0.879059 0.368157 0.381286 0.188198
H6    H     H_    0.120942 0.631842 0.618712 0.188198
H7    H     H_    0.151158 0.383388 0.583129 0.204960
H8    H     H_    0.848850 0.616614 0.416861 0.204955
C41   C     C_R   0.301653 0.811873 0.649239 -0.236580
C42   C     C_R   0.698347 0.188127 0.350761 -0.236580
C43   C     C_R   0.673739 0.800638 0.375778 -0.234522
C44   C     C_R   0.326266 0.199363 0.624217 -0.234520
C45   C     C_R   0.801651 0.311873 0.649240 -0.236581
C46   C     C_R   0.198347 0.688127 0.350760 -0.236580
C47   C     C_R   0.173737 0.300638 0.375780 -0.234522
C48   C     C_R   0.826256 0.699360 0.624227 -0.234523
H9    H     H_    0.268889 0.790840 0.658748 0.173093
H10   H     H_    0.731111 0.209159 0.341252 0.173093
H11   H     H_    0.707539 0.778703 0.361776 0.188999
H12   H     H_    0.292465 0.221298 0.638220 0.189001
H13   H     H_    0.768888 0.290841 0.658749 0.173093
H14   H     H_    0.231111 0.709160 0.341252 0.173094
H15   H     H_    0.207537 0.278703 0.361778 0.189000
H16   H     H_    0.792457 0.721295 0.638228 0.188998
C49   C     C_R   0.304798 0.809925 0.712679 0.356407
C50   C     C_R   0.695202 0.190075 0.287320 0.356408
C51   C     C_R   0.657237 0.793851 0.328834 0.346214
C52   C     C_R   0.342770 0.206151 0.671157 0.346213
C53   C     C_R   0.804795 0.309926 0.712681 0.356408
C54   C     C_R   0.195203 0.690075 0.287320 0.356407
C55   C     C_R   0.157234 0.293850 0.328838 0.346213
C56   C     C_R   0.842755 0.706147 0.671175 0.346214
C57   C     C_R   0.347201 0.836945 0.700759 -0.186792
C58   C     C_R   0.652799 0.163054 0.299241 -0.186793
C59   C     C_R   0.615371 0.822854 0.343295 -0.171975
C60   C     C_R   0.384637 0.177148 0.656695 -0.171973
C61   C     C_R   0.847199 0.336946 0.700761 -0.186793
C62   C     C_R   0.152799 0.663054 0.299241 -0.186793
C63   C     C_R   0.115368 0.322853 0.343299 -0.171974
C64   C     C_R   0.884621 0.677144 0.656716 -0.171977
H17   H     H_    0.352061 0.835396 0.747011 0.196150
H18   H     H_    0.647939 0.164604 0.252989 0.196149
H19   H     H_    0.600816 0.818130 0.309403 0.199646
H20   H     H_    0.399193 0.181872 0.690585 0.199645
H21   H     H_    0.852058 0.335397 0.747014 0.196149
H22   H     H_    0.147940 0.664604 0.252989 0.196150
H23   H     H_    0.100813 0.318129 0.309408 0.199646
H24   H     H_    0.899173 0.681867 0.690611 0.199647
C65   C     C_R   0.383870 0.866406 0.629152 -0.207744
C66   C     C_R   0.616130 0.133594 0.370848 -0.207743
C67   C     C_R   0.592678 0.858836 0.400224 -0.212430
C68   C     C_R   0.407327 0.141165 0.599769 -0.212431
C69   C     C_R   0.883869 0.366406 0.629154 -0.207744
C70   C     C_R   0.116130 0.633594 0.370847 -0.207743
C71   C     C_R   0.092676 0.358835 0.400227 -0.212429
C72   C     C_R   0.907316 0.641163 0.599784 -0.212428
H25   H     H_    0.417213 0.885349 0.621769 0.164473
H26   H     H_    0.582787 0.114651 0.378231 0.164473
H27   H     H_    0.560694 0.880247 0.408514 0.156838
H28   H     H_    0.439311 0.119754 0.591478 0.156834
H29   H     H_    0.917212 0.385349 0.621771 0.164475
H30   H     H_    0.082787 0.614651 0.378230 0.164474
H31   H     H_    0.060692 0.380246 0.408517 0.156837
H32   H     H_    0.939300 0.619752 0.591494 0.156842
C73   C     C_R   0.378872 0.869986 0.567330 0.067631
C74   C     C_R   0.621128 0.130014 0.432670 0.067632
C75   C     C_R   0.610790 0.866642 0.445356 0.056266
C76   C     C_R   0.389212 0.133358 0.554640 0.056264
C77   C     C_R   0.878871 0.369986 0.567330 0.067633
C78   C     C_R   0.121128 0.630014 0.432670 0.067632
C79   C     C_R   0.110789 0.366642 0.445357 0.056265
C80   C     C_R   0.889207 0.633357 0.554647 0.056267
C81   C     C_R   0.339999 0.840763 0.574726 0.052462
C82   C     C_R   0.660001 0.159237 0.425274 0.052461
C83   C     C_R   0.648372 0.835844 0.437641 0.058953
C84   C     C_R   0.351630 0.164157 0.562357 0.058954
C85   C     C_R   0.839998 0.340763 0.574727 0.052461
C86   C     C_R   0.160001 0.659237 0.425274 0.052461
C87   C     C_R   0.148371 0.335844 0.437642 0.058954
C88   C     C_R   0.851626 0.664155 0.562362 0.058952
C89   C     C_R   0.340301 0.841419 0.507291 -0.131672
C90   C     C_R   0.659699 0.158581 0.492709 -0.131671
C91   C     C_R   0.660381 0.841849 0.490968 -0.145302
C92   C     C_R   0.339619 0.158151 0.509032 -0.145305
C93   C     C_R   0.840301 0.341419 0.507291 -0.131670
C94   C     C_R   0.159699 0.658581 0.492709 -0.131671
C95   C     C_R   0.160381 0.341849 0.490968 -0.145303
C96   C     C_R   0.839619 0.658151 0.509031 -0.145299
C97   C     C_R   0.377479 0.869885 0.434622 -0.240310
C98   C     C_R   0.622520 0.130115 0.565378 -0.240310
C99   C     C_R   0.640413 0.878967 0.544125 -0.243528
C100  C     C_R   0.359584 0.121032 0.455879 -0.243527
C101  C     C_R   0.877480 0.369884 0.434621 -0.240310
C102  C     C_R   0.122520 0.630115 0.565378 -0.240310
C103  C     C_R   0.140414 0.378967 0.544123 -0.243527
C104  C     C_R   0.859590 0.621034 0.455871 -0.243527
C105  C     C_R   0.415167 0.899156 0.426908 0.323711
C106  C     C_R   0.584832 0.100844 0.573092 0.323707
C107  C     C_R   0.608311 0.911128 0.545828 0.288067
C108  C     C_R   0.391685 0.088870 0.454176 0.288066
C109  C     C_R   0.915168 0.399156 0.426907 0.323704
C110  C     C_R   0.084832 0.600844 0.573092 0.323709
C111  C     C_R   0.108313 0.411129 0.545826 0.288067
C112  C     C_R   0.891692 0.588873 0.454168 0.288067
C113  C     C_R   0.412959 0.901119 0.496570 -0.250942
C114  C     C_R   0.587041 0.098881 0.503429 -0.250945
C115  C     C_R   0.592468 0.904533 0.497949 -0.228126
C116  C     C_R   0.407532 0.095467 0.502051 -0.228124
C117  C     C_R   0.912959 0.401119 0.496570 -0.250945
C118  C     C_R   0.087041 0.598881 0.503429 -0.250942
C119  C     C_R   0.092468 0.404533 0.497949 -0.228126
C120  C     C_R   0.907532 0.595467 0.502051 -0.228128
O33   O     O_R   0.989830 0.545820 0.428700 -0.602038
O34   O     O_R   0.010170 0.454180 0.571300 -0.602042
O35   O     O_R   0.010170 0.545820 0.571300 -0.563460
O36   O     O_R   0.989830 0.454180 0.428700 -0.563457
O37   O     O_R   0.489830 0.045820 0.428700 -0.602044
O38   O     O_R   0.510170 0.954180 0.571300 -0.602041
O39   O     O_R   0.510170 0.045820 0.571300 -0.563458
O40   O     O_R   0.489830 0.954180 0.428700 -0.563460
O41   O     O_R   0.918540 0.545810 0.571290 -0.617221
O42   O     O_R   0.081460 0.454190 0.428710 -0.617218
O43   O     O_R   0.081460 0.545810 0.428710 -0.628478
O44   O     O_R   0.918540 0.454190 0.571290 -0.628480
O45   O     O_R   0.418540 0.045810 0.571290 -0.617217
O46   O     O_R   0.581460 0.954190 0.428710 -0.617219
O47   O     O_R   0.581460 0.045810 0.428710 -0.628479
O48   O     O_R   0.418540 0.954190 0.571290 -0.628478
C121  C     C_R   0.940553 0.561866 0.500349 0.938326
C122  C     C_R   0.059447 0.438134 0.499650 0.938334
C123  C     C_R   0.058078 0.562816 0.501011 0.933900
C124  C     C_R   0.941922 0.437184 0.498988 0.933895
C125  C     C_R   0.440553 0.061865 0.500349 0.938337
C126  C     C_R   0.559447 0.938134 0.499650 0.938330
C127  C     C_R   0.558078 0.062815 0.501011 0.933898
C128  C     C_R   0.441922 0.937184 0.498988 0.933904
Zn9   Zn    Zn3+2 0.047600 0.500000 0.404790 1.092719
Zn10  Zn    Zn3+2 0.952400 0.500000 0.595210 1.092712
Zn11  Zn    Zn3+2 0.547600 0.000000 0.404790 1.092712
Zn12  Zn    Zn3+2 0.452400 0.000000 0.595210 1.092718
N1    N     N_R   0.265750 0.780240 0.788032 0.218438
O49   O     O_R   0.226235 0.755092 0.799314 -0.375634
O50   O     O_R   0.269041 0.778256 0.846481 -0.340211
N2    N     N_R   0.734251 0.219760 0.211967 0.218438
O51   O     O_R   0.773766 0.244907 0.200685 -0.375634
O52   O     O_R   0.730959 0.221744 0.153519 -0.340211
N3    N     N_R   0.682721 0.757575 0.267071 0.219676
O53   O     O_R   0.721291 0.730312 0.253965 -0.361297
O54   O     O_R   0.667616 0.751457 0.223251 -0.340540
N4    N     N_R   0.317288 0.242428 0.732918 0.219676
O55   O     O_R   0.278718 0.269691 0.746024 -0.361295
O56   O     O_R   0.332396 0.248546 0.776734 -0.340542
N5    N     N_R   0.765747 0.280241 0.788035 0.218438
O57   O     O_R   0.726231 0.255094 0.799318 -0.375635
O58   O     O_R   0.769037 0.278257 0.846484 -0.340211
N6    N     N_R   0.234251 0.719760 0.211967 0.218438
O59   O     O_R   0.273766 0.744907 0.200685 -0.375635
O60   O     O_R   0.230959 0.721744 0.153519 -0.340210
N7    N     N_R   0.182717 0.257573 0.267075 0.219676
O61   O     O_R   0.221286 0.230310 0.253971 -0.361296
O62   O     O_R   0.167612 0.251456 0.223255 -0.340541
N8    N     N_R   0.817268 0.742422 0.732942 0.219675
O63   O     O_R   0.778701 0.769686 0.746042 -0.361298
O64   O     O_R   0.832366 0.748537 0.776771 -0.340539
N9    N     N_R   0.456297 0.925688 0.346710 0.245434
O65   O     O_R   0.433925 0.944663 0.319574 -0.280177
O66   O     O_R   0.517453 0.920601 0.288048 -0.349600
N10   N     N_R   0.543702 0.074312 0.653290 0.245436
O67   O     O_R   0.566073 0.055338 0.680429 -0.280181
O68   O     O_R   0.482546 0.079400 0.711952 -0.349597
N11   N     N_R   0.594864 0.951086 0.592571 0.231110
O69   O     O_R   0.609293 0.987511 0.551016 -0.363065
O70   O     O_R   0.578877 0.950987 0.669150 -0.314354
N12   N     N_R   0.405129 0.048911 0.407438 0.231110
O71   O     O_R   0.390702 0.012487 0.448994 -0.363070
O72   O     O_R   0.421107 0.049009 0.330866 -0.314354
N13   N     N_R   0.956300 0.425687 0.346708 0.245436
O73   O     O_R   0.933929 0.444661 0.319568 -0.280181
O74   O     O_R   0.017455 0.420599 0.288048 -0.349597
N14   N     N_R   0.043702 0.574312 0.653290 0.245434
O75   O     O_R   0.066074 0.555337 0.680427 -0.280177
O76   O     O_R   0.982546 0.579400 0.711952 -0.349601
N15   N     N_R   0.094867 0.451087 0.592567 0.231109
O77   O     O_R   0.109295 0.487512 0.551012 -0.363066
O78   O     O_R   0.078885 0.450989 0.669142 -0.314354
N16   N     N_R   0.905142 0.548915 0.407421 0.231109
O79   O     O_R   0.890711 0.512490 0.448974 -0.363057
O80   O     O_R   0.921135 0.549016 0.330837 -0.314355

loop_
_geom_bond_atom_site_label_1
_geom_bond_atom_site_label_2
_geom_bond_distance
_ccdc_geom_bond_type
C58   C66   1.393941 A    
O48   Zn12  2.012785 S    
H2    C98   1.085549 S    
O45   Zn12  2.020001 S    
C60   C68   1.392519 A    
O8    C8    1.278928 A    
O29   C13   1.300422 A    
C49   N1    1.440518 S    
O2    C2    1.277385 A    
C112  N16   1.437418 S    
C29   C37   1.455198 S    
N7    O61   1.301692 A    
O26   C10   1.300424 A    
O16   Zn3   2.015608 S    
O7    Zn7   2.030967 S    
C24   C32   1.232333 T    
C61   C69   1.393942 A    
N2    O51   1.301744 A    
C102  C110  1.375382 A    
C80   C88   1.404241 A    
O36   Zn9   2.020890 S    
C27   C35   1.455255 S    
C5    C93   1.423112 S    
N11   O69   1.300839 A    
O34   Zn10  2.017169 S    
O30   Zn1   1.875408 S    
C59   C67   1.392519 A    
O33   Zn9   2.017171 S    
O45   C125  1.220154 A    
O22   Zn6   1.878629 S    
O11   C3    1.281908 A    
O43   C123  1.232572 A    
N1    O49   1.301745 A    
C34   C36   1.232337 T    
O12   C4    1.281906 A    
C50   C58   1.399416 A    
C47   C87   1.416589 A    
C2    C90   1.423113 S    
O42   Zn9   2.019998 S    
C49   C57   1.399417 A    
C30   C38   1.455198 S    
C8    C96   1.434304 S    
O6    Zn6   2.029291 S    
O41   Zn10  2.020001 S    
C45   C53   1.402668 A    
O18   Zn2   1.878629 S    
C63   H23   1.082590 S    
C15   C23   1.479975 S    
O12   Zn7   2.015608 S    
C38   C40   1.232337 T    
C66   C74   1.415027 A    
C16   C24   1.479975 S    
O14   Zn1   2.013917 S    
C109  N13   1.436192 S    
C100  C108  1.376624 A    
C44   C84   1.416588 A    
C93   C101  1.385559 A    
C26   C34   1.455198 S    
C108  N12   1.437420 S    
N16   O80   1.301372 A    
C105  C113  1.414445 A    
N6    O59   1.301745 A    
C22   C30   1.232273 T    
C55   C63   1.398985 A    
N13   O73   1.301335 A    
C97   C105  1.375382 A    
C90   C98   1.385560 A    
O10   Zn5   2.013917 S    
O32   C16   1.300851 A    
N12   O72   1.301366 A    
O2    Zn2   2.029291 S    
C19   C27   1.232333 T    
C109  C117  1.414443 A    
C70   H30   1.080540 S    
C44   C52   1.403811 A    
C105  N9    1.436190 S    
C107  N11   1.437419 S    
C47   H15   1.079301 S    
C51   N3    1.440632 S    
C7    C95   1.434306 S    
N8    O64   1.301635 A    
O21   Zn5   1.878628 S    
C112  C120  1.404607 A    
O3    C3    1.278929 A    
O21   C13   1.301259 A    
C6    C94   1.423113 S    
H1    C97   1.085547 S    
C42   C82   1.414947 A    
O27   C11   1.300853 A    
N5    O57   1.301746 A    
O48   C128  1.232571 A    
C65   C73   1.415029 A    
C62   C70   1.393940 A    
C11   C19   1.479975 S    
C89   C97   1.385561 A    
O46   C126  1.220157 A    
O6    C6    1.277385 A    
C79   C119  1.414827 A    
O31   Zn4   1.881202 S    
C115  C126  1.428271 S    
C101  C109  1.375382 A    
O16   C8    1.281904 A    
O23   C15   1.299509 A    
N9    O65   1.301337 A    
O24   Zn8   1.872677 S    
C56   N8    1.440633 S    
C33   C35   1.232337 T    
C10   C18   1.479869 S    
O42   C122  1.220155 A    
O33   C121  1.223006 A    
O41   C121  1.220155 A    
O47   Zn11  2.012778 S    
C72   C80   1.414824 A    
O19   Zn3   1.872679 S    
O4    Zn4   2.030966 S    
C37   C39   1.232337 T    
C50   N2    1.440517 S    
C94   C102  1.385559 A    
O18   C10   1.301257 A    
C59   H19   1.082588 S    
N10   O68   1.301269 A    
O43   Zn9   2.012778 S    
C53   C61   1.399417 A    
C110  N14   1.436189 S    
C68   C76   1.414828 A    
C43   C51   1.403809 A    
N15   O77   1.300841 A    
C69   C77   1.415029 A    
O25   C9    1.300422 A    
C42   C50   1.402667 A    
N14   O76   1.301270 A    
C104  C112  1.376624 A    
C25   C33   1.455198 S    
C85   C93   1.408149 A    
N16   O79   1.300841 A    
C56   C64   1.398984 A    
C67   H27   1.081224 S    
O8    Zn8   2.030966 S    
C52   N4    1.440633 S    
C75   C115  1.414826 A    
O31   C15   1.300853 A    
N2    O52   1.301606 A    
O20   C12   1.299511 A    
C55   N7    1.440632 S    
C31   C39   1.455255 S    
O13   Zn2   2.013920 S    
C41   H9    1.081190 S    
H3    C99   1.084654 S    
H6    C102  1.085547 S    
O5    C5    1.277385 A    
C79   C87   1.404243 A    
C45   C85   1.414945 A    
C118  C123  1.444375 S    
O35   C123  1.221017 A    
N12   O71   1.300840 A    
C106  C114  1.414445 A    
O34   C122  1.223006 A    
C48   C56   1.403812 A    
C76   C84   1.404243 A    
H5    C101  1.085549 S    
N3    O53   1.301692 A    
C74   C82   1.404715 A    
C17   C25   1.232273 T    
C114  C127  1.444373 S    
O44   C124  1.232572 A    
O47   C127  1.232574 A    
N8    O63   1.301690 A    
C65   H25   1.080538 S    
N7    O62   1.301633 A    
C3    C91   1.434304 S    
O15   Zn4   2.015605 S    
C12   C20   1.479975 S    
N13   O74   1.301271 A    
N4    O56   1.301633 A    
C54   C62   1.399415 A    
N5    O58   1.301605 A    
C51   C59   1.398986 A    
C108  C116  1.404607 A    
C1    C89   1.423113 S    
C106  N10   1.436191 S    
O9    C1    1.278630 A    
C41   C49   1.402665 A    
C48   C88   1.416590 A    
C9    C17   1.479869 S    
C14   C22   1.479869 S    
N9    O66   1.301268 A    
C66   H26   1.080542 S    
O44   Zn10  2.012785 S    
O39   C127  1.221016 A    
O28   C12   1.300851 A    
C68   H28   1.081223 S    
C43   C83   1.416590 A    
C45   H13   1.081187 S    
O38   C126  1.223007 A    
C82   C90   1.408148 A    
C57   H17   1.082541 S    
C91   C99   1.393190 A    
N10   O67   1.301335 A    
C44   H12   1.079304 S    
C18   C26   1.232273 T    
C63   C71   1.392519 A    
O5    Zn5   2.029290 S    
O25   Zn6   1.875408 S    
N15   O78   1.301366 A    
C92   C100  1.393191 A    
O3    Zn3   2.030967 S    
C60   H20   1.082590 S    
C70   C78   1.415026 A    
N3    O54   1.301629 A    
O27   Zn8   1.881202 S    
C103  C111  1.376622 A    
C69   H29   1.080538 S    
O22   C14   1.301257 A    
O38   Zn12  2.017169 S    
O39   Zn12  2.020884 S    
C99   C107  1.376624 A    
C23   C31   1.232333 T    
N14   O75   1.301338 A    
H4    C100  1.084654 S    
C117  C124  1.444375 S    
C111  C119  1.404609 A    
C46   C86   1.414947 A    
C116  C125  1.428273 S    
C64   H24   1.082588 S    
O9    Zn6   2.013920 S    
O4    C4    1.278929 A    
C62   H22   1.082541 S    
O46   Zn11  2.019998 S    
C28   C36   1.455255 S    
O32   Zn3   1.881202 S    
H7    C103  1.084654 S    
C78   C86   1.404716 A    
C77   C117  1.419878 A    
H8    C104  1.084655 S    
C113  C128  1.444372 S    
N1    O50   1.301606 A    
C20   C28   1.232333 T    
C83   C91   1.414832 A    
C87   C95   1.414833 A    
O14   C6    1.278634 A    
C48   H16   1.079301 S    
C46   C54   1.402665 A    
C72   H32   1.081227 S    
O28   Zn7   1.881202 S    
C47   C55   1.403811 A    
O13   C5    1.278630 A    
O29   Zn2   1.875408 S    
O20   Zn4   1.872677 S    
C52   C60   1.398982 A    
O24   C16   1.299511 A    
O7    C7    1.278928 A    
O1    Zn1   2.029290 S    
O10   C2    1.278634 A    
C13   C21   1.479869 S    
C71   C79   1.414823 A    
C58   H18   1.082543 S    
O15   C7    1.281910 A    
C71   H31   1.081227 S    
O40   C128  1.221015 A    
C73   C81   1.404715 A    
N6    O60   1.301607 A    
C95   C103  1.393190 A    
C21   C29   1.232273 T    
C88   C96   1.414832 A    
C75   C83   1.404242 A    
N4    O55   1.301689 A    
O37   Zn11  2.017171 S    
O17   Zn1   1.878628 S    
C120  C121  1.428274 S    
O30   C14   1.300424 A    
C41   C81   1.414945 A    
N11   O70   1.301369 A    
C80   C120  1.414828 A    
C119  C122  1.428273 S    
C54   N6    1.440518 S    
C78   C118  1.419878 A    
O36   C124  1.221015 A    
C86   C94   1.408148 A    
O19   C11   1.299509 A    
C76   C116  1.414824 A    
O37   C125  1.223004 A    
C107  C115  1.404610 A    
O1    C1    1.277385 A    
C84   C92   1.414833 A    
O26   Zn5   1.875408 S    
C32   C40   1.455255 S    
O17   C9    1.301259 A    
C73   C113  1.419877 A    
O40   Zn11  2.020890 S    
C111  N15   1.437417 S    
C67   C75   1.414828 A    
C110  C118  1.414443 A    
C96   C104  1.393188 A    
O23   Zn7   1.872679 S    
C43   H11   1.079303 S    
C57   C65   1.393941 A    
C61   H21   1.082541 S    
C77   C85   1.404716 A    
C64   C72   1.392522 A    
C42   H10   1.081188 S    
C81   C89   1.408150 A    
C74   C114  1.419877 A    
O11   Zn8   2.015605 S    
O35   Zn10  2.020884 S    
C46   H14   1.081186 S    
C53   N5    1.440518 S    
C98   C106  1.375381 A    
C4    C92   1.434308 S    
