data_mof_unit_62902.cif
_audit_creation_date              2013-03-05T16:36:59-0500
_audit_creation_method            fapswitch 2.2
_symmetry_space_group_name_H-M    P1
_symmetry_Int_Tables_number       1
_space_group_crystal_system       triclinic
_cell_length_a                    15.996151
_cell_length_b                    14.779003
_cell_length_c                    10.949455
_cell_angle_alpha                 90.007238
_cell_angle_beta                  90.000506
_cell_angle_gamma                 89.989812
_cell_volume                      2588.52953803

loop_
_atom_site_label
_atom_site_type_symbol
_atom_site_description
_atom_site_fract_x
_atom_site_fract_y
_atom_site_fract_z
_atom_type_partial_charge
O1    O     O_R   0.380310 0.575320 0.500020 -0.566280
O2    O     O_R   0.619690 0.575320 0.499980 -0.555230
O3    O     O_R   0.380310 0.424640 0.499970 -0.573762
O4    O     O_R   0.619690 0.424640 0.500030 -0.575985
C1    C     C_R   0.340856 0.499987 0.499998 0.825589
C2    C     C_R   0.659143 0.499975 0.500005 0.826760
O5    O     O_R   0.500000 0.575320 0.321940 -0.558530
O6    O     O_R   0.500000 0.575320 0.678060 -0.566720
O7    O     O_R   0.500000 0.424640 0.321880 -0.581535
O8    O     O_R   0.500000 0.424640 0.678120 -0.580296
C3    C     C_R   0.498943 0.500044 0.264749 0.849570
C4    C     C_R   0.501057 0.500050 0.735253 0.849048
Cu1   Cu    Cu3+1 0.500000 0.589220 0.500000 1.054936
Cu2   Cu    Cu3+1 0.500000 0.410780 0.500000 0.990555
C5    C     C_2   0.498179 0.425716 0.933122 -0.148925
C6    C     C_2   0.501839 0.425711 0.066856 -0.151034
C7    C     C_2   0.505362 0.501552 0.866944 -0.296147
C8    C     C_2   0.494635 0.501543 0.133061 -0.294114
H1    H     H_    0.490583 0.360616 0.888372 0.178359
H2    H     H_    0.509452 0.360611 0.111584 0.178370
H3    H     H_    0.516350 0.567103 0.907838 0.167176
H4    H     H_    0.483631 0.567097 0.092189 0.169760
H5    H     H_    0.076981 0.645928 0.498765 0.155849
H6    H     H_    0.922940 0.645911 0.498804 0.158627
C9    C     C_R   0.956353 0.582127 0.499336 -0.151763
C10   C     C_R   0.043602 0.582136 0.499313 -0.155482
C11   C     C_R   0.912782 0.499995 0.500040 0.141454
C12   C     C_R   0.087215 0.500013 0.499996 0.142451
C13   C     C_R   0.956396 0.417874 0.500724 -0.162126
C14   C     C_R   0.043643 0.417883 0.500702 -0.160683
H7    H     H_    0.923017 0.354081 0.501269 0.149585
H8    H     H_    0.077054 0.354098 0.501235 0.149827
C15   C     C_1   0.823323 0.499982 0.500040 -0.044521
C16   C     C_1   0.176675 0.500016 0.499985 -0.047016
C17   C     C_1   0.251727 0.500007 0.499986 -0.145459
C18   C     C_1   0.748271 0.499971 0.500028 -0.140380
H9    H     H_    0.583916 0.085756 0.651860 0.184177
H10   H     H_    0.418468 0.085690 0.345458 0.184452
C19   C     C_R   0.550094 0.952534 0.584714 0.313117
C20   C     C_R   0.455349 0.952519 0.409211 0.313347
C21   C     C_R   0.503078 0.902967 0.496545 -0.211003
C22   C     C_R   0.454552 0.048554 0.412545 -0.200494
C23   C     C_R   0.547671 0.048579 0.585002 -0.202017
C24   C     C_R   0.500523 0.097376 0.499437 -0.072022
C25   C     C_1   0.501065 0.802608 0.498806 0.359728
C26   C     C_1   0.500158 0.197383 0.499831 0.188585
N1    N     N_1   0.500000 0.276710 0.500000 -0.158473
N2    N     N_1   0.500000 0.723290 0.500000 -0.131133
N3    N     N_R   0.600634 0.907104 0.674902 0.131132
O9    O     O_R   0.636798 0.830345 0.650393 -0.348699
O10   O     O_R   0.617629 0.946746 0.778136 -0.331307
N4    N     N_R   0.407106 0.907054 0.316431 0.130861
O11   O     O_R   0.432278 0.830708 0.270012 -0.344531
O12   O     O_R   0.341882 0.946329 0.269056 -0.337651

loop_
_geom_bond_atom_site_label_1
_geom_bond_atom_site_label_2
_geom_bond_distance
_ccdc_geom_bond_type
C4    C7    1.443758 S    
H9    C23   1.083487 S    
Cu1   N2    1.981422 S    
C14   H8    1.083578 S    
O7    Cu2   1.961070 S    
C2    C18   1.425707 S    
C3    C8    1.443726 S    
C20   N4    1.441879 S    
Cu2   N1    1.981422 S    
C11   C13   1.399812 A    
C10   C12   1.399825 A    
O6    C4    1.276745 A    
C6    H2    1.086471 S    
C12   C14   1.399815 A    
C12   C16   1.431004 S    
C19   C21   1.426276 A    
O2    C2    1.279835 A    
Cu1   Cu2   2.637164 S    
H6    C9    1.083582 S    
O5    C3    1.276683 A    
O7    C3    1.278147 A    
C13   C14   1.395626 A    
O3    Cu2   1.925469 S    
C22   C24   1.402350 A    
C13   H7    1.083576 S    
O1    C1    1.279872 A    
O8    C4    1.278099 A    
O4    C2    1.279899 A    
C20   C21   1.426045 A    
C19   N3    1.442054 S    
N4    O12   1.301682 A    
H10   C22   1.083498 S    
C23   C24   1.402363 A    
O4    Cu2   1.925540 S    
C16   C17   1.200548 T    
C7    H3    1.081610 S    
H5    C10   1.083577 S    
C9    C11   1.399825 A    
C5    C6    1.465482 S    
C5    H1    1.086471 S    
O6    Cu1   1.960478 S    
C1    C17   1.425724 S    
O5    Cu1   1.960427 S    
C15   C18   1.200540 T    
O1    Cu1   1.925605 S    
N4    O11   1.301261 A    
C6    C8    1.339613 D    
N3    O9    1.301248 A    
O8    Cu2   1.961018 S    
C25   N2    1.172439 T    
C5    C7    1.339654 D    
O2    Cu1   1.925531 S    
C21   C25   1.483781 S    
C26   N1    1.172372 T    
C19   C23   1.419972 A    
N3    O10   1.301814 A    
C9    C10   1.395648 A    
C8    H4    1.081624 S    
C11   C15   1.430993 S    
C24   C26   1.478020 S    
C20   C22   1.419814 A    
O3    C1    1.279870 A    
