data_mof_unit_44889.cif
_audit_creation_date              2012-12-10T17:27:50-0500
_audit_creation_method            fapswitch 2.2
_symmetry_space_group_name_H-M    P1
_symmetry_Int_Tables_number       1
_space_group_crystal_system       triclinic
_cell_length_a                    10.711061
_cell_length_b                    12.015598
_cell_length_c                    12.853057
_cell_angle_alpha                 92.777773
_cell_angle_beta                  89.795726
_cell_angle_gamma                 87.637339
_cell_volume                      1650.81205095

loop_
_atom_site_label
_atom_site_type_symbol
_atom_type_description
_atom_site_fract_x
_atom_site_fract_y
_atom_site_fract_z
_atom_type_partial_charge
C1    C     C_R   0.494730 0.521606 0.699762 0.908520
C2    C     C_R   0.580781 0.605163 0.854596 -0.197534
C3    C     C_R   0.415970 0.472104 0.871237 -0.078280
C4    C     C_R   0.738744 0.500300 0.485819 0.923909
C5    C     C_R   0.430838 0.478512 0.980404 0.039411
C6    C     C_R   0.534209 0.537348 0.022673 0.092082
C7    C     C_R   0.566012 0.528338 0.127423 -0.070748
C8    C     C_R   0.385957 0.414703 0.151530 -0.257227
C9    C     C_R   0.350400 0.425063 0.048768 -0.009059
C10   C     C_R   0.429625 0.952087 0.378097 -0.222786
C11   C     C_R   0.426126 0.837507 0.392787 0.141884
C12   C     C_R   0.939169 0.398764 0.452143 0.049264
C13   C     C_R   0.528474 0.860565 0.555734 0.053639
C14   C     C_R   0.529793 0.977322 0.544547 0.105874
C15   C     C_R   0.478768 0.022842 0.454530 0.117183
C16   C     C_R   0.502320 0.478386 0.300205 0.896069
C17   C     C_R   0.475542 0.139014 0.443676 0.056883
C18   C     C_R   0.576176 0.165198 0.606127 0.082651
C19   C     C_R   0.580384 0.049855 0.620451 -0.206366
C20   C     C_R   0.259144 0.498312 0.504618 0.946878
C21   C     C_R   0.886160 0.301587 0.408781 -0.215936
C22   C     C_R   0.943887 0.196472 0.419487 -0.138123
C23   C     C_R   0.871201 0.501888 0.463097 -0.220586
C24   C     C_R   0.055147 0.188106 0.477098 0.417291
C25   C     C_R   0.114106 0.285836 0.509451 -0.232112
C26   C     C_R   0.061923 0.392492 0.488028 0.034501
C27   C     C_2   0.220863 0.395124 0.022226 0.931160
C28   C     C_2   0.333261 0.390376 0.818538 0.936401
C29   C     C_2   0.364770 0.770329 0.310516 1.000422
C30   C     C_2   0.883655 0.098271 0.371618 1.070164
C31   C     C_2   0.678578 0.580320 0.172808 0.919062
C32   C     C_R   0.934701 0.602451 0.473798 0.338708
C33   C     C_R   0.059697 0.596363 0.496273 -0.253553
C34   C     C_R   0.124522 0.493856 0.503045 -0.130357
C35   C     C_R   0.491416 0.465975 0.189812 -0.106516
C36   C     C_R   0.492664 0.536050 0.810569 -0.112044
C37   C     C_R   0.604925 0.602708 0.958947 -0.131317
H1    H     H_    0.639412 0.653497 0.806420 0.168896
H2    H     H_    0.324266 0.376072 0.205144 0.172123
H3    H     H_    0.682062 0.650309 0.987487 0.183075
H4    H     H_    0.006972 0.786230 0.345102 0.371986
H5    H     H_    0.057636 0.439437 0.954782 0.360273
H6    H     H_    0.285244 0.230210 0.799162 0.371671
H7    H     H_    0.225104 0.669825 0.270032 0.329899
H8    H     H_    0.898798 0.963477 0.272246 0.372327
H9    H     H_    0.043133 0.926867 0.606605 0.408680
H10   H     H_    0.844739 0.556997 0.243391 0.353209
H11   H     H_    0.433496 0.174905 0.375831 0.126989
H12   H     H_    0.614159 0.220922 0.665373 0.149005
H13   H     H_    0.389767 0.986371 0.308419 0.174602
H14   H     H_    0.621625 0.018058 0.690465 0.162772
H15   H     H_    0.569391 0.824248 0.623779 0.145960
H16   H     H_    0.799525 0.307541 0.365634 0.202425
H17   H     H_    0.195698 0.276781 0.557453 0.228587
H18   H     H_    0.107292 0.673789 0.507474 0.242989
N1    N     N_R   0.523130 0.207800 0.519340 -0.121072
N2    N     N_R   0.476870 0.792180 0.480660 -0.143412
O1    O     O_R   0.506170 0.421690 0.658830 -0.627162
O2    O     O_2   0.818067 0.787183 0.557296 -0.274410
O3    O     O_3   0.981508 0.819410 0.414386 -0.465260
O4    O     O_2   0.179488 0.308856 0.052373 -0.579302
O5    O     O_R   0.144228 0.468332 0.967041 -0.781623
O6    O     O_2   0.256830 0.421474 0.754510 -0.617587
O7    O     O_R   0.345339 0.277675 0.840716 -0.784694
O8    O     O_2   0.402542 0.771329 0.220648 -0.599578
O9    O     O_R   0.259165 0.711763 0.333413 -0.787946
O10   O     O_2   0.772370 0.085841 0.386251 -0.618952
O11   O     O_R   0.952083 0.023616 0.304660 -0.713546
O12   O     O_R   0.491330 0.609320 0.646410 -0.626673
O13   O     O_2   0.160960 0.987713 0.424907 -0.262255
O14   O     O_2   0.222390 0.074465 0.592365 -0.352199
O15   O     O_3   0.001464 0.993817 0.578040 -0.478164
O16   O     O_2   0.688219 0.681380 0.173346 -0.551459
O17   O     O_R   0.771594 0.512973 0.217032 -0.824071
O18   O     O_R   0.690660 0.406170 0.506210 -0.628548
O19   O     O_R   0.675810 0.593790 0.493790 -0.547834
O20   O     O_R   0.508670 0.390680 0.353590 -0.631351
O21   O     O_R   0.493830 0.578310 0.341170 -0.613657
O22   O     O_R   0.324190 0.406210 0.506210 -0.636498
O23   O     O_R   0.309340 0.593830 0.493790 -0.590959
O24   O     O_2   0.766844 0.737795 0.375578 -0.260858
S1    S     S_3+6 0.869062 0.738427 0.455242 0.046384
S2    S     S_3+6 0.115825 0.058366 0.518036 0.037814
Zn1   Zn    Zn3+2 0.509910 0.374720 0.508290 0.979221
Zn2   Zn    Zn3+2 0.490090 0.625280 0.491710 1.050782

loop_
_geom_bond_atom_site_label_1
_geom_bond_atom_site_label_2
_ccdc_geom_bond_type
C33   H18   S    
H7    O9    S    
O2    S1    D    
O24   S1    D    
C12   C23   A    
C3    C28   S    
C24   S2    S    
C16   O20   A    
C37   H3    S    
C10   C15   A    
C16   C35   S    
C5    C6    A    
O18   Zn1   S    
C31   O16   D    
C13   N2    A    
C18   C19   A    
C4    O18   A    
C27   O4    D    
O3    S1    S    
C26   C34   A    
C8    C9    A    
C17   H11   S    
C8    H2    S    
H5    O5    S    
H9    O15   S    
C30   O10   D    
C18   N1    A    
C20   C34   S    
C18   H12   S    
C21   C22   A    
H6    O7    S    
N1    Zn1   S    
O14   S2    D    
C7    C31   S    
C20   O23   A    
C25   H17   S    
H10   O17   S    
C4    C23   S    
C31   O17   S    
O20   Zn1   S    
C25   C26   A    
C12   C21   A    
C1    O12   A    
C12   C26   A    
C8    C35   A    
C5    C9    A    
O23   Zn2   S    
C27   O5    S    
O1    Zn1   S    
C13   H15   S    
C2    H1    S    
H8    O11   S    
C33   C34   A    
C6    C37   A    
C24   C25   A    
O13   S2    D    
C17   N1    A    
C29   O8    D    
C28   O7    S    
O21   Zn2   S    
C22   C24   A    
C10   H13   S    
O12   Zn2   S    
C9    C27   S    
C2    C36   A    
C15   C17   A    
C22   C30   S    
C20   O22   A    
C7    C35   A    
C14   C19   A    
H4    O3    S    
C3    C5    A    
C6    C7    A    
C32   S1    S    
C23   C32   A    
C11   N2    A    
C1    O1    A    
C32   C33   A    
C21   H16   S    
C2    C37   A    
O22   Zn1   S    
C3    C36   A    
N2    Zn2   S    
C16   O21   A    
C4    O19   A    
O15   S2    S    
C10   C11   A    
C29   O9    S    
C28   O6    D    
C19   H14   S    
C11   C29   S    
C14   C15   A    
C13   C14   A    
O19   Zn2   S    
C30   O11   S    
C1    C36   S    
