data_mof_unit_61669.cif
_audit_creation_date              2013-03-05T15:43:36-0500
_audit_creation_method            fapswitch 2.2
_symmetry_space_group_name_H-M    P1
_symmetry_Int_Tables_number       1
_space_group_crystal_system       triclinic
_cell_length_a                    8.311722
_cell_length_b                    15.068631
_cell_length_c                    18.770338
_cell_angle_alpha                 100.189647
_cell_angle_beta                  90.330321
_cell_angle_gamma                 100.167234
_cell_volume                      2275.83939364

loop_
_atom_site_label
_atom_site_type_symbol
_atom_site_description
_atom_site_fract_x
_atom_site_fract_y
_atom_site_fract_z
_atom_type_partial_charge
P1    P     P_3+3 0.038110 0.412300 0.335300 0.490961
O1    O     O_2   0.871030 0.438240 0.324420 -0.317383
O2    O     O_3   0.120590 0.445310 0.413740 -0.396567
O3    O     O_3   0.663040 0.605930 0.370050 -0.386256
O4    O     O_2   0.771649 0.538967 0.242975 -0.355272
O5    O     O_3   0.991554 0.292374 0.315335 -0.578672
O6    O     O_3   0.715412 0.705496 0.254841 -0.499486
H1    H     H_    0.760020 0.773123 0.361105 0.150816
C1    C     C_3   0.723294 0.866503 0.291143 -0.902323
H2    H     H_    0.854697 0.882009 0.278778 0.298797
H3    H     H_    0.647390 0.868290 0.242698 0.252305
P2    P     P_3+3 0.679950 0.711710 0.558590 0.465075
P3    P     P_3+3 0.142341 0.771640 0.406961 0.438999
O7    O     O_2   0.855660 0.723510 0.537160 -0.398137
O8    O     O_3   0.086340 0.654970 0.406630 -0.385240
O9    O     O_2   0.017095 0.820217 0.452105 -0.395581
O10   O     O_3   0.678124 0.745910 0.652945 -0.599674
O11   O     O_3   0.114356 0.790722 0.318719 -0.521990
C2    C     C_3   0.172090 0.721973 0.270060 0.386751
H4    H     H_    0.079198 0.657865 0.261076 0.136309
H5    H     H_    0.288005 0.706685 0.290411 -0.066230
C3    C     C_3   0.206905 0.753784 0.198039 -0.143370
H6    H     H_    0.280937 0.824081 0.207550 0.152629
C4    C     C_3   0.292534 0.750783 0.641910 0.408584
H7    H     H_    0.378221 0.706851 0.617650 0.140178
C5    C     C_3   0.389569 0.838680 0.686537 -0.819057
H8    H     H_    0.453537 0.822035 0.733032 0.264037
H9    H     H_    0.480482 0.873691 0.652907 0.219435
H10   H     H_    0.306399 0.886348 0.708251 0.241294
Ba1   Ba    Ba6+2 0.854120 0.540280 0.465540 1.592565
C6    C     C_3   0.942361 0.257482 0.377558 0.465042
H11   H     H_    0.847474 0.292759 0.404696 0.126581
H12   H     H_    0.048500 0.266053 0.415669 0.116349
C7    C     C_3   0.872683 0.155584 0.355462 -1.014120
H13   H     H_    0.751852 0.145209 0.327017 0.291458
H14   H     H_    0.859701 0.122275 0.403577 0.225100
H15   H     H_    0.954467 0.121311 0.318186 0.270417
C8    C     C_3   0.793967 0.714816 0.692213 0.264256
H16   H     H_    0.885203 0.684667 0.657897 0.107850
H17   H     H_    0.727156 0.661179 0.720150 0.083085
C9    C     C_3   0.880009 0.795797 0.749521 0.003630
H18   H     H_    0.977101 0.837769 0.723048 0.146604
P4    P     P_3+3 0.151600 0.587780 0.664700 0.476394
O12   O     O_2   0.318670 0.561790 0.675630 -0.369968
O13   O     O_3   0.069120 0.554770 0.586270 -0.370717
O14   O     O_3   0.526680 0.394150 0.629950 -0.335816
O15   O     O_3   0.186401 0.707817 0.688031 -0.571699
P5    P     P_3+3 0.058424 0.226706 0.593171 0.491914
O16   O     O_3   0.607620 0.388570 0.462320 -0.294674
O17   O     O_3   0.103380 0.345110 0.593380 -0.335397
O18   O     O_2   0.185950 0.181505 0.547126 -0.387067
O19   O     O_3   0.093569 0.207006 0.680536 -0.506062
Ba2   Ba    Ba6+2 0.335710 0.459790 0.534460 1.598409
P6    P     P_3+3 0.645580 0.596971 0.276130 0.484652
C10   C     C_3   0.682977 0.772520 0.312450 0.486625
H19   H     H_    0.552154 0.760287 0.325789 -0.003609
H20   H     H_    0.697545 0.919722 0.336464 0.209740
O20   O     O_3   0.582100 0.611510 0.537680 -0.360518
C11   C     C_3   0.392734 0.251157 0.306951 0.742633
H21   H     H_    0.310027 0.291789 0.338814 0.053365
C12   C     C_3   0.297204 0.158382 0.268483 -0.639216
H22   H     H_    0.182988 0.169429 0.243039 0.215938
H23   H     H_    0.370685 0.127379 0.224590 0.231930
P7    P     P_3+3 0.515304 0.272962 0.440996 0.485619
O21   O     O_2   0.334040 0.276520 0.462890 -0.384746
O22   O     O_3   0.526300 0.237104 0.347046 -0.593713
H24   H     H_    0.277378 0.707270 0.164200 0.113384
C13   C     C_3   0.055319 0.280370 0.730955 0.351977
H25   H     H_    0.144212 0.343970 0.728665 0.110127
H26   H     H_    0.929939 0.292374 0.720624 0.028279
C14   C     C_3   0.066528 0.259104 0.806985 -0.124077
H27   H     H_    0.046823 0.318964 0.847447 0.098543
H28   H     H_    0.189544 0.244164 0.817878 0.186805
P8    P     P_3+3 0.544525 0.404671 0.723966 0.462299
C15   C     C_3   0.525230 0.229609 0.690573 0.453998
H29   H     H_    0.660024 0.244746 0.686366 0.047711
O23   O     O_2   0.415072 0.461066 0.755547 -0.407413
O24   O     O_3   0.472098 0.295352 0.743442 -0.537794
H30   H     H_    0.464560 0.226963 0.637167 0.140325
H31   H     H_    0.523239 0.083415 0.670402 0.222129
C16   C     C_3   0.478887 0.135552 0.711277 -0.896972
H32   H     H_    0.343905 0.116855 0.713499 0.281000
H33   H     H_    0.535029 0.135837 0.765136 0.286394
C17   C     C_R   0.998871 0.454220 0.049095 0.046991
C18   C     C_R   0.905990 0.403678 0.096364 -0.171185
C19   C     C_R   0.771088 0.426531 0.958452 -0.226866
C20   C     C_R   0.936891 0.458780 0.979054 0.068003
C21   C     C_R   0.707292 0.427290 0.889814 0.059046
C22   C     C_R   0.809970 0.460431 0.836644 -0.026124
C23   C     C_R   0.976733 0.500234 0.857929 -0.022548
C24   C     C_R   0.039461 0.501094 0.929818 0.036646
C25   C     C_R   0.752859 0.459984 0.764378 0.187330
C26   C     C_R   0.859234 0.501300 0.717395 -0.453992
C27   C     C_R   0.023356 0.537021 0.735488 0.264153
C28   C     C_R   0.080264 0.541343 0.808065 -0.049021
C29   C     C_R   0.160827 0.497393 0.071817 0.075192
C30   C     C_R   0.219343 0.497264 0.143932 0.016859
C31   C     C_R   0.115052 0.455088 0.192891 -0.048747
C32   C     C_R   0.962897 0.404037 0.166152 -0.029222
H34   H     H_    0.810956 0.509605 0.666089 0.197299
H35   H     H_    0.884935 0.363142 0.198512 0.192525
C33   C     C_R   0.231685 0.593978 0.834301 0.026870
C34   C     C_R   0.289597 0.601023 0.905375 -0.009527
C35   C     C_R   0.202228 0.546407 0.952729 0.000804
C36   C     C_R   0.265595 0.539143 0.022806 0.049813
C37   C     C_R   0.433067 0.565999 0.044340 -0.249129
C38   C     C_R   0.382950 0.537672 0.166573 -0.036559
C39   C     C_R   0.489431 0.567974 0.114844 -0.109919
C40   C     C_R   0.435431 0.544283 0.239711 0.202586
C41   C     C_R   0.324924 0.510607 0.288778 -0.432421
C42   C     C_R   0.167424 0.463723 0.266480 0.220668
H36   H     H_    0.303272 0.637057 0.801398 0.166502
H37   H     H_    0.618358 0.592371 0.127791 0.200672
H38   H     H_    0.365053 0.516973 0.344680 0.180519
H39   H     H_    0.683155 0.403572 0.996255 0.134791
H40   H     H_    0.789037 0.360592 0.080514 0.149920
H41   H     H_    0.525566 0.582940 0.006878 0.146340
C43   C     C_R   0.751528 0.236427 0.534627 -0.090022
C44   C     C_R   0.849081 0.177975 0.555460 0.185013
C45   C     C_R   0.791402 0.083059 0.542253 -0.310921
C46   C     C_R   0.636415 0.045273 0.506813 0.089177
C47   C     C_R   0.548875 0.106853 0.481441 -0.320330
C48   C     C_R   0.608310 0.200652 0.492975 0.225699
C49   C     C_R   0.416992 0.906770 0.455598 -0.276693
C50   C     C_R   0.351692 0.813614 0.445414 0.250440
C51   C     C_R   0.586309 0.786912 0.509744 0.321087
C52   C     C_R   0.650887 0.880966 0.521133 -0.291726
C53   C     C_R   0.569126 0.943316 0.493444 0.094132
C54   C     C_R   0.439445 0.753137 0.469807 -0.510130
H42   H     H_    0.342201 0.948387 0.434842 0.141304
H43   H     H_    0.871525 0.040799 0.558583 0.167873
H44   H     H_    0.761525 0.903732 0.554392 0.150559
H45   H     H_    0.435444 0.084737 0.450771 0.149743
H46   H     H_    0.387065 0.680966 0.462705 0.168372
Br1   Br    Br    0.981799 0.754119 0.827875 -0.562018
N1    N     N_3   0.764629 0.853782 0.780033 -0.176938
H47   H     H_    0.830384 0.911350 0.814163 0.193364
H48   H     H_    0.685004 0.817822 0.812373 0.151909
Br2   Br    Br    0.481250 0.318890 0.233139 -0.578444
N2    N     N_3   0.256913 0.095309 0.319195 -0.185109
H49   H     H_    0.173995 0.038561 0.292497 0.156153
H50   H     H_    0.362363 0.069912 0.329292 0.154519
Br3   Br    Br    0.901700 0.154602 0.817983 -0.527860
N3    N     N_3   0.534637 0.397895 0.877321 -0.155639
H51   H     H_    0.474737 0.440399 0.913873 0.105509
H52   H     H_    0.503151 0.331230 0.887829 0.150565
N4    N     N_3   0.421420 0.676068 0.929480 -0.199520
H53   H     H_    0.412108 0.705356 0.983728 0.161539
H54   H     H_    0.533654 0.655441 0.918373 0.124485
Br4   Br    Br    0.811210 0.365321 0.562538 -0.454285
Br5   Br    Br    0.006132 0.752391 0.144555 -0.457695
N5    N     N_3   0.199011 0.774688 0.584779 -0.217809
H55   H     H_    0.142288 0.713668 0.552172 0.175025
H56   H     H_    0.108423 0.809510 0.607827 0.139924

loop_
_geom_bond_atom_site_label_1
_geom_bond_atom_site_label_2
_geom_bond_distance
_ccdc_geom_bond_type
C10   H19   1.108028 S    
C26   C27   1.391651 A    
C20   C24   1.418848 A    
C45   H43   1.076749 S    
C9    H18   1.110771 S    
Ba1   O13   2.831434 S    
C33   H36   1.080082 S    
N4    H53   1.044782 S    
C17   C20   1.426610 A    
O6    C10   1.405370 S    
C24   C35   1.429929 A    
C29   C36   1.421615 A    
C16   H32   1.110386 S    
C34   N4    1.435215 S    
C23   C28   1.423543 A    
C5    H8    1.107436 S    
C51   C52   1.401913 A    
P3    O11   1.751534 S    
N4    H54   1.044976 S    
C4    C5    1.526098 S    
O11   C2    1.408365 S    
C11   O22   1.404792 S    
C8    H16   1.104566 S    
C7    H13   1.107709 S    
C19   C21   1.393074 A    
C9    Br1   1.942511 S    
P2    C51   1.844253 S    
C7    H15   1.104503 S    
P4    C27   1.890714 S    
C12   H23   1.113742 S    
P1    O1    1.529594 D    
C17   C29   1.415356 A    
P8    C25   1.876223 S    
C43   Br4   1.894652 S    
C43   C44   1.398763 A    
P1    Ba1   3.383827 S    
C4    N5    1.452538 S    
C33   C34   1.395418 A    
C52   H44   1.076705 S    
O12   Ba2   2.836212 S    
P4    Ba2   3.384461 S    
P5    O18   1.546466 D    
C2    H4    1.111435 S    
C13   H25   1.109572 S    
P8    O23   1.543767 D    
P2    O10   1.755757 S    
C38   C39   1.399522 A    
C6    H12   1.107480 S    
C1    C10   1.520607 S    
Ba2   O21   2.846945 S    
C1    H2    1.110559 S    
C41   H38   1.081913 S    
C7    H14   1.105277 S    
O19   C13   1.405787 S    
C28   C33   1.399229 A    
C49   C53   1.418538 A    
P3    C50   1.839646 S    
P5    O17   1.756440 S    
O5    C6    1.398056 S    
O13   Ba2   2.925065 S    
C11   H21   1.108567 S    
O16   P7    1.749724 S    
C38   C40   1.419226 A    
C27   C28   1.426222 A    
O7    Ba1   2.846878 S    
H1    C10   1.110176 S    
C35   C36   1.443213 A    
C16   H33   1.110019 S    
C30   C31   1.421678 A    
P5    C44   1.848958 S    
C17   C18   1.415140 A    
Ba1   Ba2   4.623506 S    
C11   C12   1.533151 S    
O17   Ba2   2.731493 S    
P1    O5    1.751488 S    
O4    P6    1.545199 D    
C2    C3    1.525067 S    
N2    H49   1.045787 S    
C8    C9    1.541499 S    
N3    H52   1.046139 S    
C14   H28   1.110448 S    
C19   C20   1.405627 A    
C15   C16   1.520541 S    
C51   C54   1.395063 A    
C41   C42   1.396631 A    
P6    C40   1.858283 S    
C19   H39   1.077472 S    
P1    O2    1.579256 S    
P7    O22   1.758503 S    
C39   H37   1.081137 S    
O2    Ba1   2.924090 S    
C15   H29   1.109354 S    
C47   H45   1.070654 S    
C18   C32   1.388936 A    
C1    H3    1.110718 S    
C6    H11   1.104936 S    
C11   Br2   1.936361 S    
Ba2   O20   2.778696 S    
C29   C30   1.436145 A    
C6    C7    1.524154 S    
C49   H42   1.073663 S    
N3    H51   1.043964 S    
C4    H7    1.102888 S    
C22   C25   1.433028 A    
C43   C48   1.390127 A    
P4    O13   1.579091 S    
C26   H34   1.077052 S    
C46   C47   1.417031 A    
C46   C53   1.514850 S    
N1    H48   1.046188 S    
C32   H35   1.079167 S    
Ba1   O16   2.779134 S    
N5    H56   1.045146 S    
P4    O15   1.755203 S    
O3    P6    1.747304 S    
P3    O8    1.736279 S    
C37   H41   1.072939 S    
C52   C53   1.417306 A    
O14   P8    1.746727 S    
C45   C46   1.422452 A    
O8    Ba1   2.730936 S    
C14   Br3   1.938002 S    
C3    Br5   1.937508 S    
C31   C42   1.422626 A    
P2    Ba1   3.401808 S    
C4    O15   1.397257 S    
C18   H40   1.077257 S    
P2    O7    1.505570 D    
H31   C16   1.110848 S    
C44   C45   1.402864 A    
C12   N2    1.460462 S    
N2    H50   1.045349 S    
P7    C48   1.844351 S    
C36   C37   1.414755 A    
C5    H9    1.109231 S    
O1    Ba1   2.835493 S    
P7    O21   1.571471 D    
C47   C48   1.390208 A    
P2    O20   1.564721 S    
C14   H27   1.108358 S    
C40   C41   1.399988 A    
P1    C42   1.870966 S    
C8    H17   1.109700 S    
O2    Ba2   2.831924 S    
C23   C24   1.440892 A    
C37   C39   1.394882 A    
P4    O12   1.530010 D    
C13   C14   1.522773 S    
O16   Ba2   2.910410 S    
Ba1   O20   2.911247 S    
O14   Ba2   2.803419 S    
C25   C26   1.398551 A    
C1    H20   1.110812 S    
O10   C8    1.401135 S    
C12   H22   1.111632 S    
C15   O24   1.404599 S    
C3    H24   1.108828 S    
C54   H46   1.082076 S    
C30   C38   1.417751 A    
C50   C54   1.396619 A    
P5    O19   1.749285 S    
C21   C22   1.417553 A    
C5    H10   1.111270 S    
C13   H26   1.110393 S    
C31   C32   1.398457 A    
P8    O24   1.753597 S    
P3    O9    1.548308 D    
C34   C35   1.431778 A    
C3    H6    1.110990 S    
N1    H47   1.045748 S    
N5    H55   1.042527 S    
O6    P6    1.752031 S    
C22   C23   1.433849 A    
C15   H30   1.110727 S    
C21   N3    1.430227 S    
C9    N1    1.461593 S    
O3    Ba1   2.804078 S    
C49   C50   1.391574 A    
C2    H5    1.110171 S    
