data_mof_unit_65762.cif
_audit_creation_date              2012-12-10T19:19:41-0500
_audit_creation_method            fapswitch 2.2
_symmetry_space_group_name_H-M    P1
_symmetry_Int_Tables_number       1
_space_group_crystal_system       triclinic
_cell_length_a                    24.413791
_cell_length_b                    24.413789
_cell_length_c                    39.724861
_cell_angle_alpha                 90.00011
_cell_angle_beta                  90.00018
_cell_angle_gamma                 89.999899
_cell_volume                      23677.3337237

loop_
_atom_site_label
_atom_site_type_symbol
_atom_type_description
_atom_site_fract_x
_atom_site_fract_y
_atom_site_fract_z
_atom_type_partial_charge
C1    C     C_R   0.271330 0.228674 0.250002 0.021578
C2    C     C_R   0.728666 0.228665 0.250000 0.021608
C3    C     C_R   0.500000 0.000000 0.621874 -0.016353
C4    C     C_R   0.500000 1.000000 0.878126 -0.016353
C5    C     C_R   0.500000 1.000000 0.121864 -0.015524
C6    C     C_R   0.000000 0.500000 0.878136 -0.015525
C7    C     C_R   1.000000 0.500000 0.121874 -0.016360
C8    C     C_R   0.500000 1.000000 0.340990 0.790107
C9    C     C_R   0.500000 0.000000 0.659013 0.786328
C10   C     C_R   1.000000 0.500000 0.340987 0.786326
C11   C     C_R   1.000000 0.500000 0.659010 0.790106
C12   C     C_R   0.000000 0.500000 0.840990 0.790107
C13   C     C_R   0.771331 0.728669 0.750000 0.021594
C14   C     C_R   1.000000 0.500000 0.159013 0.786326
C15   C     C_R   0.500000 1.000000 0.840987 0.786328
C16   C     C_R   0.500000 1.000000 0.159010 0.790108
C17   C     C_R   0.605056 0.105056 0.250000 0.729641
C18   C     C_R   0.394930 0.894930 0.750000 0.731409
C19   C     C_R   0.894930 0.605070 0.250000 0.731409
C20   C     C_R   0.105057 0.394943 0.750000 0.729632
C21   C     C_R   0.394943 0.894943 0.250000 0.729636
C22   C     C_R   0.605070 0.105070 0.750000 0.731409
C23   C     C_R   0.105070 0.394930 0.250000 0.731407
C24   C     C_R   0.228714 0.271291 0.250001 0.017735
C25   C     C_R   0.894943 0.605057 0.750000 0.729630
C26   C     C_R   0.605070 0.894930 0.750000 0.731409
C27   C     C_R   0.394943 0.105058 0.250000 0.729622
C28   C     C_R   0.894943 0.394943 0.750000 0.729629
C29   C     C_R   0.105070 0.605070 0.250000 0.731410
C30   C     C_R   0.394930 0.105070 0.750000 0.731409
C31   C     C_R   0.605058 0.894943 0.250000 0.729622
C32   C     C_R   0.105057 0.605057 0.750000 0.729631
C33   C     C_R   0.894929 0.394929 0.250000 0.731416
C34   C     C_R   0.999999 0.500000 0.448771 0.143545
C35   C     C_R   0.728712 0.228713 0.749999 0.017759
C36   C     C_R   1.000000 0.500000 0.551215 0.147696
C37   C     C_R   0.500000 0.000000 0.448785 0.147696
C38   C     C_R   0.500000 0.000000 0.551229 0.143550
C39   C     C_R   0.500000 0.000000 0.948771 0.143550
C40   C     C_R   0.500000 1.000000 0.051215 0.147695
C41   C     C_R   0.000000 0.500000 0.948785 0.147695
C42   C     C_R   1.000000 0.500000 0.051229 0.143546
C43   C     C_1   0.999999 0.500000 0.484859 -0.036857
C44   C     C_1   1.000000 0.500000 0.515125 -0.039574
C45   C     C_1   0.500000 0.000000 0.484874 -0.039573
C46   C     C_R   0.271332 0.771331 0.249999 0.021606
C47   C     C_1   0.500000 0.000000 0.515140 -0.036858
C48   C     C_1   0.500000 1.000000 0.984859 -0.036858
C49   C     C_1   0.500000 1.000000 0.015126 -0.039572
C50   C     C_1   1.000000 0.500000 0.984874 -0.039573
C51   C     C_1   1.000000 0.499999 0.015140 -0.036857
C52   C     C_R   0.259634 0.176422 0.237506 -0.119788
C53   C     C_R   0.697771 0.780889 0.720981 -0.117979
C54   C     C_R   0.780968 0.302144 0.279041 -0.117994
C55   C     C_R   0.176439 0.740344 0.762538 -0.119781
C56   C     C_R   0.740371 0.823585 0.237506 -0.119779
C57   C     C_R   0.228670 0.271330 0.750000 0.021595
C58   C     C_R   0.302238 0.219119 0.720984 -0.117975
C59   C     C_R   0.219093 0.697790 0.279023 -0.117980
C60   C     C_R   0.823562 0.259655 0.762535 -0.119782
C61   C     C_R   0.302240 0.780878 0.720985 -0.117976
C62   C     C_R   0.740290 0.176482 0.237368 -0.119764
C63   C     C_R   0.823555 0.740335 0.762552 -0.119780
C64   C     C_R   0.219158 0.302279 0.279007 -0.117963
C65   C     C_R   0.697755 0.219125 0.720985 -0.117973
C66   C     C_R   0.259679 0.823543 0.237422 -0.119781
C67   C     C_R   0.176441 0.259659 0.762543 -0.119783
C68   C     C_R   0.771291 0.728714 0.249998 0.017733
C69   C     C_R   0.780843 0.697724 0.279004 -0.117977
C70   C     C_R   0.759664 0.676445 0.737448 -0.119780
C71   C     C_R   0.197726 0.280846 0.220995 -0.117978
C72   C     C_R   0.280878 0.802242 0.779016 -0.117974
C73   C     C_R   0.676483 0.240289 0.262633 -0.119764
C74   C     C_R   0.240341 0.323559 0.737457 -0.119782
C75   C     C_R   0.802283 0.719160 0.220994 -0.117963
C76   C     C_R   0.719125 0.197757 0.779014 -0.117974
C77   C     C_R   0.323543 0.759679 0.262576 -0.119782
C78   C     C_R   0.802144 0.280967 0.220959 -0.117992
C79   C     C_R   0.299743 0.135429 0.237228 -0.036548
C80   C     C_R   0.240343 0.676439 0.737463 -0.119784
C81   C     C_R   0.323583 0.240369 0.262497 -0.119780
C82   C     C_R   0.719110 0.802229 0.779019 -0.117977
C83   C     C_R   0.197789 0.719093 0.220976 -0.117980
C84   C     C_R   0.759655 0.323562 0.737464 -0.119780
C85   C     C_R   0.676420 0.759632 0.262490 -0.119788
C86   C     C_R   0.280881 0.197762 0.779016 -0.117976
C87   C     C_2   0.286283 0.080802 0.222825 0.461212
C88   C     C_2   0.623643 0.828828 0.689481 0.439128
C89   C     C_2   0.828976 0.376198 0.310565 0.439197
C90   C     C_R   0.656929 0.821153 0.720546 -0.023412
C91   C     C_2   0.080843 0.713666 0.777261 0.461223
C92   C     C_2   0.713724 0.919210 0.222836 0.461165
C93   C     C_2   0.376374 0.171188 0.689487 0.439126
C94   C     C_2   0.171142 0.623676 0.310528 0.439136
C95   C     C_2   0.919157 0.286332 0.777258 0.461234
C96   C     C_2   0.376379 0.828806 0.689489 0.439117
C97   C     C_2   0.713552 0.080942 0.222548 0.461236
C98   C     C_2   0.919142 0.713649 0.777290 0.461230
C99   C     C_2   0.171254 0.376447 0.310493 0.439106
C100  C     C_2   0.623613 0.171198 0.689490 0.439125
C101  C     C_R   0.821230 0.342989 0.279476 -0.023393
C102  C     C_2   0.286384 0.919113 0.222655 0.461256
C103  C     C_2   0.080850 0.286341 0.777273 0.461236
C104  C     C_2   0.828741 0.623552 0.310490 0.439069
C105  C     C_2   0.786351 0.580859 0.722710 0.461231
C106  C     C_2   0.123557 0.328746 0.189508 0.439075
C107  C     C_2   0.328807 0.876381 0.810512 0.439125
C108  C     C_2   0.580942 0.213552 0.277452 0.461232
C109  C     C_2   0.213659 0.419150 0.722728 0.461237
C110  C     C_2   0.876453 0.671259 0.189509 0.439108
C111  C     C_2   0.671199 0.123615 0.810510 0.439117
C112  C     C_R   0.728713 0.771287 0.750000 0.017767
C113  C     C_R   0.135447 0.700234 0.762816 -0.036543
C114  C     C_2   0.419113 0.786384 0.277344 0.461263
C115  C     C_2   0.876198 0.328974 0.189435 0.439184
C116  C     C_2   0.213666 0.580844 0.722739 0.461234
C117  C     C_2   0.419206 0.213720 0.277171 0.461161
C118  C     C_2   0.671172 0.876357 0.810519 0.439132
C119  C     C_2   0.123675 0.671141 0.189472 0.439146
C120  C     C_2   0.786331 0.419158 0.722742 0.461224
C121  C     C_2   0.580799 0.786279 0.277167 0.461217
C122  C     C_2   0.328812 0.123625 0.810513 0.439122
C123  C     C_R   0.700262 0.864578 0.237231 -0.036547
C124  C     C_R   0.343080 0.178855 0.720548 -0.023417
C125  C     C_R   0.178831 0.656946 0.279458 -0.023409
C126  C     C_R   0.864553 0.299765 0.762813 -0.036544
C127  C     C_R   0.343083 0.821142 0.720549 -0.023414
C128  C     C_R   0.700178 0.135493 0.237089 -0.036528
C129  C     C_R   0.864546 0.700225 0.762830 -0.036540
C130  C     C_R   0.178891 0.343119 0.279442 -0.023430
C131  C     C_R   0.656913 0.178861 0.720550 -0.023418
C132  C     C_R   0.771284 0.271283 0.250000 0.017796
C133  C     C_R   0.299790 0.864533 0.237143 -0.036535
C134  C     C_R   0.135450 0.299769 0.762821 -0.036543
C135  C     C_R   0.821108 0.656882 0.279440 -0.023413
C136  C     C_R   0.799774 0.635454 0.737170 -0.036540
C137  C     C_R   0.156885 0.321111 0.220559 -0.023413
C138  C     C_R   0.321142 0.843084 0.779451 -0.023417
C139  C     C_R   0.635493 0.200178 0.262912 -0.036528
C140  C     C_R   0.200231 0.364550 0.737179 -0.036545
C141  C     C_R   0.843122 0.678894 0.220558 -0.023432
C142  C     C_R   0.678861 0.156915 0.779450 -0.023416
C143  C     C_R   0.228670 0.728670 0.750001 0.021593
C144  C     C_R   0.364533 0.799790 0.262856 -0.036536
C145  C     C_R   0.842989 0.321229 0.220524 -0.023391
C146  C     C_R   0.200234 0.635447 0.737185 -0.036544
C147  C     C_R   0.364576 0.200260 0.262772 -0.036545
C148  C     C_R   0.678847 0.843071 0.779454 -0.023415
C149  C     C_R   0.156945 0.678830 0.220541 -0.023410
C150  C     C_R   0.799765 0.364554 0.737186 -0.036543
C151  C     C_R   0.635427 0.799740 0.262767 -0.036549
C152  C     C_R   0.321145 0.156920 0.779451 -0.023415
C153  C     C_R   0.352560 0.147442 0.250000 -0.150512
C154  C     C_R   0.728674 0.771330 0.249998 0.021576
C155  C     C_R   0.647464 0.852536 0.750000 -0.157604
C156  C     C_R   0.852534 0.352534 0.250000 -0.157688
C157  C     C_R   0.147440 0.647440 0.750000 -0.150475
C158  C     C_R   0.647443 0.852560 0.249999 -0.150517
C159  C     C_R   0.352536 0.147464 0.750000 -0.157596
C160  C     C_R   0.147464 0.647465 0.250000 -0.157621
C161  C     C_R   0.852560 0.352560 0.750000 -0.150477
C162  C     C_R   0.352536 0.852536 0.750000 -0.157595
C163  C     C_R   0.647436 0.147436 0.250000 -0.150386
C164  C     C_R   0.852561 0.647439 0.750000 -0.150462
C165  C     C_R   0.271287 0.228713 0.750000 0.017764
C166  C     C_R   0.147464 0.352538 0.250001 -0.157562
C167  C     C_R   0.647463 0.147464 0.750000 -0.157591
C168  C     C_R   0.352561 0.852561 0.250000 -0.150440
C169  C     C_R   0.147440 0.352560 0.750000 -0.150469
C170  C     C_R   0.852538 0.647464 0.249999 -0.157560
C171  C     C_R   0.000005 0.549624 0.431193 -0.140478
C172  C     C_R   1.000000 0.450376 0.568793 -0.147494
C173  C     C_R   0.450377 0.999999 0.431207 -0.147496
C174  C     C_R   0.549624 1.000000 0.568807 -0.140470
C175  C     C_R   0.999994 0.450375 0.431193 -0.140460
C176  C     C_R   0.228714 0.728714 0.250000 0.017784
C177  C     C_R   1.000000 0.549623 0.568793 -0.147499
C178  C     C_R   0.549624 0.000001 0.431207 -0.147493
C179  C     C_R   0.450375 0.000001 0.568807 -0.140473
C180  C     C_R   0.500000 0.049625 0.931193 -0.140472
C181  C     C_R   0.499999 0.950376 0.068793 -0.147495
C182  C     C_R   0.950377 0.500000 0.931207 -0.147493
C183  C     C_R   0.049624 0.500005 0.068807 -0.140477
C184  C     C_R   0.500001 0.950376 0.931193 -0.140470
C185  C     C_R   0.500001 0.049623 0.068793 -0.147493
C186  C     C_R   0.049624 0.500000 0.931207 -0.147498
C187  C     C_R   0.771330 0.271330 0.749999 0.021592
C188  C     C_R   0.950375 0.499994 0.068807 -0.140461
C189  C     C_R   0.000005 0.549687 0.396048 -0.165282
C190  C     C_R   1.000000 0.450314 0.603938 -0.177139
C191  C     C_R   0.450314 0.999999 0.396062 -0.177137
C192  C     C_R   0.549687 1.000000 0.603952 -0.165270
C193  C     C_R   0.999994 0.450313 0.396048 -0.165252
C194  C     C_R   1.000000 0.549686 0.603938 -0.177140
C195  C     C_R   0.549686 0.000001 0.396062 -0.177136
C196  C     C_R   0.450313 0.000000 0.603952 -0.165274
C197  C     C_R   0.500000 0.049687 0.896048 -0.165275
C198  C     C_R   0.271287 0.771288 0.750000 0.017760
C199  C     C_R   0.499999 0.950314 0.103938 -0.177136
C200  C     C_R   0.950314 0.500000 0.896061 -0.177140
C201  C     C_R   0.049687 0.500005 0.103952 -0.165278
C202  C     C_R   0.500000 0.950313 0.896048 -0.165270
C203  C     C_R   0.500001 0.049686 0.103938 -0.177137
C204  C     C_R   0.049686 0.500000 0.896062 -0.177139
C205  C     C_R   0.950312 0.499994 0.103952 -0.165255
C206  C     C_R   1.000000 0.500000 0.378126 -0.016361
C207  C     C_R   1.000000 0.500000 0.621864 -0.015525
C208  C     C_R   0.500000 0.000000 0.378136 -0.015525
H1    H     H_    0.000009 0.588236 0.444646 0.148436
H2    H     H_    0.499998 0.911765 0.055340 0.147110
H3    H     H_    0.911766 0.500000 0.944660 0.147112
H4    H     H_    0.088235 0.500009 0.055355 0.148437
H5    H     H_    0.500001 0.911764 0.944645 0.148439
H6    H     H_    0.500002 0.088234 0.055340 0.147110
H7    H     H_    0.088234 0.500000 0.944660 0.147109
H8    H     H_    0.911764 0.499990 0.055354 0.148445
H9    H     H_    0.000009 0.588587 0.382947 0.173324
H10   H     H_    1.000000 0.411414 0.617037 0.171157
H11   H     H_    0.411414 0.999998 0.382962 0.171158
H12   H     H_    1.000000 0.411765 0.555340 0.147112
H13   H     H_    0.588586 0.999999 0.617053 0.173327
H14   H     H_    0.999990 0.411414 0.382947 0.173339
H15   H     H_    1.000000 0.588586 0.617038 0.171156
H16   H     H_    0.588586 0.000002 0.382963 0.171156
H17   H     H_    0.411413 0.000001 0.617053 0.173325
H18   H     H_    0.499999 0.088586 0.882947 0.173325
H19   H     H_    0.499998 0.911414 0.117037 0.171158
H20   H     H_    0.911414 0.500000 0.882962 0.171158
H21   H     H_    0.088586 0.500009 0.117053 0.173325
H22   H     H_    0.500001 0.911414 0.882947 0.173328
H23   H     H_    0.411766 0.999998 0.444660 0.147110
H24   H     H_    0.500002 0.088586 0.117038 0.171156
H25   H     H_    0.088586 0.500000 0.882963 0.171157
H26   H     H_    0.911413 0.499990 0.117053 0.173338
H27   H     H_    0.218903 0.167744 0.228058 0.187442
H28   H     H_    0.705797 0.756818 0.698595 0.186911
H29   H     H_    0.756959 0.294057 0.301444 0.186902
H30   H     H_    0.167775 0.781058 0.772018 0.187438
H31   H     H_    0.781103 0.832265 0.228061 0.187445
H32   H     H_    0.294219 0.243197 0.698599 0.186913
H33   H     H_    0.243151 0.705829 0.301413 0.186904
H34   H     H_    0.588236 0.999999 0.555355 0.148439
H35   H     H_    0.832226 0.218940 0.772013 0.187438
H36   H     H_    0.294224 0.756797 0.698601 0.186913
H37   H     H_    0.780967 0.167853 0.227817 0.187427
H38   H     H_    0.832213 0.781045 0.772042 0.187437
H39   H     H_    0.243266 0.294290 0.301384 0.186926
H40   H     H_    0.705769 0.243208 0.698602 0.186916
H41   H     H_    0.218980 0.832192 0.227913 0.187431
H42   H     H_    0.167779 0.218947 0.772026 0.187437
H43   H     H_    0.756733 0.705712 0.301379 0.186922
H44   H     H_    0.718955 0.667786 0.727958 0.187436
H45   H     H_    0.999990 0.411764 0.444645 0.148445
H46   H     H_    0.205717 0.256738 0.198619 0.186922
H47   H     H_    0.256797 0.794226 0.801400 0.186915
H48   H     H_    0.667854 0.280967 0.272184 0.187425
H49   H     H_    0.281053 0.332221 0.727974 0.187437
H50   H     H_    0.794295 0.743270 0.198618 0.186927
H51   H     H_    0.743208 0.205771 0.801397 0.186915
H52   H     H_    0.332193 0.718979 0.272086 0.187431
H53   H     H_    0.794057 0.256958 0.198556 0.186902
H54   H     H_    0.281058 0.667775 0.727984 0.187437
H55   H     H_    0.332263 0.281100 0.271945 0.187444
H56   H     H_    0.999999 0.588234 0.555340 0.147109
H57   H     H_    0.743182 0.794203 0.801405 0.186913
H58   H     H_    0.205828 0.743150 0.198586 0.186905
H59   H     H_    0.718940 0.332227 0.727985 0.187439
H60   H     H_    0.667741 0.718899 0.271935 0.187443
H61   H     H_    0.256803 0.205781 0.801401 0.186913
H62   H     H_    0.317675 0.049795 0.219966 0.038265
H63   H     H_    0.588949 0.856532 0.689170 0.060364
H64   H     H_    0.856628 0.410933 0.310873 0.060444
H65   H     H_    0.049837 0.682270 0.780112 0.038168
H66   H     H_    0.682337 0.950225 0.219988 0.038342
H67   H     H_    0.588235 0.000002 0.444660 0.147110
H68   H     H_    0.411064 0.143479 0.689175 0.060354
H69   H     H_    0.143443 0.588979 0.310840 0.060392
H70   H     H_    0.950161 0.317729 0.780111 0.038159
H71   H     H_    0.411068 0.856516 0.689177 0.060349
H72   H     H_    0.682148 0.049938 0.219715 0.037965
H73   H     H_    0.950146 0.682251 0.780139 0.038131
H74   H     H_    0.143527 0.411123 0.310804 0.060306
H75   H     H_    0.588926 0.143487 0.689179 0.060346
H76   H     H_    0.317786 0.950113 0.219806 0.038039
H77   H     H_    0.049847 0.317739 0.780126 0.038139
H78   H     H_    0.411764 0.000001 0.555354 0.148438
H79   H     H_    0.856467 0.588876 0.310802 0.060301
H80   H     H_    0.817749 0.549855 0.719860 0.038127
H81   H     H_    0.088881 0.356471 0.189196 0.060305
H82   H     H_    0.356517 0.911070 0.810823 0.060348
H83   H     H_    0.549937 0.182149 0.280283 0.037972
H84   H     H_    0.182262 0.450154 0.719875 0.038142
H85   H     H_    0.911128 0.643531 0.189197 0.060300
H86   H     H_    0.643487 0.088928 0.810822 0.060347
H87   H     H_    0.450110 0.817788 0.280197 0.038029
H88   H     H_    0.910929 0.356632 0.189126 0.060452
H89   H     H_    0.499999 0.088236 0.944646 0.148438
H90   H     H_    0.182268 0.549841 0.719884 0.038152
H91   H     H_    0.450221 0.182332 0.280020 0.038335
H92   H     H_    0.643468 0.911051 0.810830 0.060363
H93   H     H_    0.088976 0.643444 0.189161 0.060387
H94   H     H_    0.817727 0.450165 0.719892 0.038174
H95   H     H_    0.549791 0.817671 0.280027 0.038269
H96   H     H_    0.356521 0.088936 0.810825 0.060354
O1    O     O_3   0.500000 0.000000 0.250000 -0.478858
O2    O     O_R   0.454490 1.000000 0.675180 -0.644579
O3    O     O_R   0.000000 0.545510 0.324820 -0.644579
O4    O     O_R   1.000000 0.454490 0.675180 -0.639690
O5    O     O_R   0.954490 0.500000 0.824820 -0.639690
O6    O     O_R   0.045510 0.500000 0.175180 -0.644578
O7    O     O_R   0.500000 0.954490 0.824820 -0.644579
O8    O     O_R   0.500000 0.045510 0.175180 -0.639694
O9    O     O_R   0.045510 0.500000 0.824820 -0.639690
O10   O     O_R   0.954490 0.500000 0.175180 -0.644582
O11   O     O_R   0.500000 0.045510 0.824820 -0.644579
O12   O     O_3   0.500000 0.000000 0.750000 -0.478382
O13   O     O_R   0.500000 0.954490 0.175180 -0.639688
O14   O     O_R   0.609450 0.064000 0.269610 -0.634892
O15   O     O_R   0.390550 0.936000 0.730390 -0.634046
O16   O     O_R   0.936000 0.609450 0.269610 -0.634031
O17   O     O_R   0.064000 0.390550 0.730390 -0.634920
O18   O     O_R   0.390550 0.936000 0.269610 -0.634911
O19   O     O_R   0.609450 0.064000 0.730390 -0.634043
O20   O     O_R   0.064000 0.390550 0.269610 -0.634027
O21   O     O_R   0.936000 0.609450 0.730390 -0.634918
O22   O     O_R   0.609450 0.936000 0.730390 -0.634050
O23   O     O_3   0.000000 0.500000 0.250000 -0.478381
O24   O     O_R   0.390550 0.064000 0.269610 -0.634927
O25   O     O_R   0.936000 0.390550 0.730390 -0.634919
O26   O     O_R   0.064000 0.609450 0.269610 -0.634063
O27   O     O_R   0.390550 0.064000 0.730390 -0.634048
O28   O     O_R   0.609450 0.936000 0.269610 -0.634944
O29   O     O_R   0.064000 0.609450 0.730390 -0.634923
O30   O     O_R   0.936000 0.390550 0.269610 -0.634075
O31   O     O_R   0.109450 0.564000 0.769610 -0.634918
O32   O     O_R   0.890550 0.436000 0.230390 -0.634081
O33   O     O_R   0.436000 0.109450 0.769610 -0.634047
O34   O     O_3   0.000000 0.500000 0.750000 -0.478857
O35   O     O_R   0.564000 0.890550 0.230390 -0.634927
O36   O     O_R   0.890550 0.436000 0.769610 -0.634923
O37   O     O_R   0.109450 0.564000 0.230390 -0.634059
O38   O     O_R   0.564000 0.890550 0.769610 -0.634051
O39   O     O_R   0.436000 0.109450 0.230390 -0.634942
O40   O     O_R   0.109450 0.436000 0.230390 -0.634031
O41   O     O_R   0.890550 0.564000 0.769610 -0.634916
O42   O     O_R   0.436000 0.890550 0.230390 -0.634907
O43   O     O_R   0.564000 0.109450 0.769610 -0.634046
O44   O     O_R   0.890550 0.564000 0.230390 -0.634026
O45   O     O_R   0.454490 0.000000 0.324820 -0.639688
O46   O     O_R   0.109450 0.436000 0.769610 -0.634920
O47   O     O_R   0.564000 0.109450 0.230390 -0.634892
O48   O     O_R   0.436000 0.890550 0.769610 -0.634045
O49   O     O_2   0.239783 0.069769 0.213733 -0.515677
O50   O     O_2   0.634403 0.803872 0.663667 -0.546194
O51   O     O_2   0.804135 0.365328 0.336404 -0.546233
O52   O     O_2   0.069826 0.760148 0.786396 -0.515677
O53   O     O_2   0.760223 0.930242 0.213741 -0.515709
O54   O     O_2   0.365627 0.196158 0.663675 -0.546187
O55   O     O_2   0.196084 0.634452 0.336346 -0.546197
O56   O     O_R   0.545510 1.000000 0.675180 -0.644579
O57   O     O_2   0.930177 0.239849 0.786389 -0.515669
O58   O     O_2   0.365633 0.803834 0.663677 -0.546189
O59   O     O_2   0.759990 0.069967 0.213312 -0.515698
O60   O     O_2   0.930153 0.760125 0.786439 -0.515676
O61   O     O_2   0.196268 0.365743 0.336296 -0.546168
O62   O     O_2   0.634353 0.196175 0.663680 -0.546182
O63   O     O_2   0.239918 0.930116 0.213483 -0.515666
O64   O     O_2   0.069834 0.239861 0.786411 -0.515669
O65   O     O_2   0.803724 0.634255 0.336292 -0.546188
O66   O     O_2   0.739875 0.569846 0.713562 -0.515675
O67   O     O_R   0.000000 0.454490 0.324820 -0.644580
O68   O     O_2   0.134264 0.303733 0.163706 -0.546190
O69   O     O_2   0.303835 0.865637 0.836323 -0.546186
O70   O     O_2   0.569968 0.259991 0.286689 -0.515701
O71   O     O_2   0.260139 0.430167 0.713589 -0.515669
O72   O     O_2   0.865752 0.696276 0.163707 -0.546168
O73   O     O_2   0.696177 0.134356 0.836320 -0.546184
O74   O     O_2   0.430118 0.739917 0.286513 -0.515662
O75   O     O_2   0.865333 0.304127 0.163597 -0.546233
O76   O     O_2   0.260150 0.569824 0.713609 -0.515670
O77   O     O_2   0.430237 0.260218 0.286269 -0.515710
O78   O     O_R   0.000000 0.545510 0.675180 -0.639691
O79   O     O_2   0.696128 0.865597 0.836333 -0.546191
O80   O     O_2   0.134453 0.696079 0.163653 -0.546196
O81   O     O_2   0.739850 0.430175 0.713607 -0.515676
O82   O     O_2   0.569763 0.739777 0.286254 -0.515673
O83   O     O_2   0.303842 0.134373 0.836325 -0.546189
O84   O     O_R   0.545510 0.000000 0.324820 -0.639694
Zn1   Zn    Zn3+2 0.500000 0.064990 0.221970 0.976038
Zn2   Zn    Zn3+2 0.000000 0.435010 0.278030 0.976556
Zn3   Zn    Zn3+2 0.435010 0.000000 0.721970 0.976552
Zn4   Zn    Zn3+2 0.564990 1.000000 0.278030 0.976038
Zn5   Zn    Zn3+2 0.000000 0.435010 0.721970 0.976042
Zn6   Zn    Zn3+2 0.000000 0.564990 0.278030 0.976549
Zn7   Zn    Zn3+2 0.564990 0.000000 0.721970 0.976552
Zn8   Zn    Zn3+2 0.435010 1.000000 0.278030 0.976043
Zn9   Zn    Zn3+2 0.500000 0.935010 0.778030 0.976552
Zn10  Zn    Zn3+2 0.935010 0.500000 0.221970 0.976553
Zn11  Zn    Zn3+2 0.064990 0.500000 0.778030 0.976042
Zn12  Zn    Zn3+2 0.500000 0.935010 0.221970 0.976046
Zn13  Zn    Zn3+2 0.500000 0.064990 0.778030 0.976551
Zn14  Zn    Zn3+2 0.064990 0.500000 0.221970 0.976551
Zn15  Zn    Zn3+2 0.935010 0.500000 0.778030 0.976040
Zn16  Zn    Zn3+2 1.000000 0.564990 0.721970 0.976039

loop_
_geom_bond_atom_site_label_1
_geom_bond_atom_site_label_2
_ccdc_geom_bond_type
C119  C149  S    
C104  C135  S    
C17   O14   A    
O39   Zn1   S    
C19   O16   A    
C79   C87   S    
O8    Zn1   S    
C33   C156  S    
C71   C137  A    
C146  C157  A    
C68   C75   A    
C37   C178  A    
C121  H95   S    
C92   O53   D    
C122  H96   S    
C12   O9    A    
C97   H72   S    
C192  H13   S    
C13   C112  S    
O2    Zn3   S    
O35   Zn12  S    
C171  H1    S    
C108  H83   S    
O27   Zn3   S    
C13   C70   A    
C25   C164  S    
C122  O83   D    
C185  H6    S    
C109  O71   D    
O14   Zn4   S    
C58   C165  A    
C173  H23   S    
C111  C142  S    
C81   C147  A    
C77   H52   S    
C93   O54   D    
C25   O41   A    
C80   C146  A    
C114  H87   S    
C69   C135  A    
C111  H86   S    
C70   C136  A    
C86   C165  A    
C9    O56   A    
C137  C166  A    
C189  H9    S    
C39   C180  A    
C45   C47   T    
C110  H85   S    
C188  C205  A    
C105  H80   S    
O9    Zn11  S    
C104  O65   D    
C183  C201  A    
C151  C158  A    
C93   H68   S    
C56   C154  A    
C106  H81   S    
O78   Zn16  S    
C62   H37   S    
C172  C190  A    
C173  C191  A    
C88   O50   D    
C27   O24   A    
C96   C127  S    
O15   Zn3   S    
C43   C44   T    
C85   C151  A    
C71   H46   S    
C86   C152  A    
C111  O73   D    
C18   O48   A    
O10   Zn10  S    
C13   C63   A    
C75   H50   S    
C189  C206  A    
C61   C127  A    
O29   Zn16  S    
O23   Zn10  S    
C193  H14   S    
O1    Zn4   S    
O33   Zn13  S    
C18   O15   A    
C36   C44   S    
O12   Zn13  S    
C72   H47   S    
C37   C45   S    
C99   O61   D    
C129  C164  A    
C40   C181  A    
C136  C164  A    
C150  C161  A    
C60   H35   S    
C38   C179  A    
C95   O57   D    
C89   C101  S    
C32   O29   A    
O34   Zn11  S    
C8    O84   A    
C46   C77   A    
O34   Zn5   S    
C54   C132  A    
C117  H91   S    
C118  H92   S    
C23   O40   A    
C107  C138  S    
O20   Zn2   S    
C7    C201  A    
O45   Zn8   S    
C26   O22   A    
C98   C129  S    
C82   H57   S    
C147  C153  A    
C69   H43   S    
C20   O17   A    
O23   Zn14  S    
C25   O21   A    
O1    Zn8   S    
C110  O72   D    
O21   Zn16  S    
O40   Zn14  S    
C84   C187  A    
C113  C157  A    
C175  C193  A    
C34   C171  A    
C106  O68   D    
C109  H84   S    
C178  H67   S    
C140  C169  A    
C54   C101  A    
C26   O38   A    
O34   Zn15  S    
O28   Zn4   S    
C125  C160  A    
O16   Zn6   S    
C194  C207  A    
C21   C168  S    
O46   Zn11  S    
C203  H24   S    
C38   C174  A    
C40   C49   S    
C23   C166  S    
O5    Zn15  S    
C135  C170  A    
C78   C132  A    
C141  C170  A    
C116  O76   D    
C15   O11   A    
C195  C208  A    
C180  H89   S    
C67   H42   S    
C148  C155  A    
C52   C79   A    
O44   Zn10  S    
C39   C184  A    
C172  H12   S    
O17   Zn5   S    
C197  H18   S    
C30   O33   A    
C72   C138  A    
C152  C159  A    
C131  C167  A    
C83   C176  A    
C32   O31   A    
C30   O27   A    
C26   C155  S    
C11   C207  S    
C97   C128  S    
C14   O10   A    
C28   C161  S    
C29   C160  S    
C30   C159  S    
C35   C76   A    
C36   C172  A    
C55   C143  A    
C67   C134  A    
C80   H54   S    
O37   Zn14  S    
C59   C176  A    
C133  C168  A    
C106  C137  S    
C73   C139  A    
C183  H4    S    
C74   C140  A    
C107  O69   D    
C10   O67   A    
C121  C151  S    
C181  H2    S    
C122  C152  S    
C110  C141  S    
C99   H74   S    
C3    C9    S    
C79   C153  A    
C73   H48   S    
C88   H63   S    
O12   Zn3   S    
C186  H7    S    
C50   C51   T    
C53   H28   S    
C2    C73   A    
C65   H40   S    
C64   C130  A    
C81   H55   S    
C127  C162  A    
O32   Zn10  S    
C33   O30   A    
C181  C199  A    
C70   H44   S    
C31   O35   A    
C32   C157  S    
C94   C125  S    
O1    Zn1   S    
C196  H17   S    
C34   C43   S    
C86   H61   S    
C5    C203  A    
C108  C139  S    
C82   C148  A    
O67   Zn2   S    
C59   C125  A    
C119  O80   D    
C139  C163  A    
C10   C206  S    
C102  C133  S    
C3    C192  A    
C116  C146  S    
C95   C126  S    
C102  O63   D    
O25   Zn5   S    
C10   O3    A    
C41   C186  A    
C85   C154  A    
C149  C160  A    
C134  C169  A    
C174  H34   S    
O12   Zn7   S    
C108  O70   D    
C190  C207  A    
O22   Zn7   S    
C11   O78   A    
O18   Zn8   S    
O38   Zn9   S    
C1    C24   S    
C174  C192  A    
C103  O64   D    
C23   O20   A    
C89   H64   S    
C19   C170  S    
C7    C205  A    
C188  H8    S    
C5    C199  A    
C109  C140  S    
C205  H26   S    
C14   O6    A    
C103  C134  S    
C46   C66   A    
C87   H62   S    
C6    C12   S    
C195  H16   S    
C57   C165  S    
C35   C65   A    
C1    C81   A    
O1    Zn12  S    
O47   Zn1   S    
C200  H20   S    
C96   O58   D    
C34   C175  A    
C17   C163  S    
C145  C156  A    
O31   Zn11  S    
C8    O45   A    
C68   C69   A    
C2    C132  S    
C33   O32   A    
C193  C206  A    
C126  C161  A    
C107  H82   S    
C20   C169  S    
C24   C64   A    
C95   H70   S    
C85   H60   S    
C190  H10   S    
C120  H94   S    
C179  C196  A    
C76   H51   S    
C98   H73   S    
C177  C194  A    
C114  O74   D    
C102  H76   S    
C182  C200  A    
C101  C156  A    
C87   O49   D    
C114  C144  S    
C56   C123  A    
C6    C204  A    
C204  H25   S    
O12   Zn9   S    
C130  C166  A    
O13   Zn12  S    
C4    C202  A    
O4    Zn5   S    
O30   Zn2   S    
C89   O51   D    
C22   C167  S    
C48   C49   T    
C88   C90   S    
C60   C187  A    
C92   C123  S    
C41   C50   S    
O43   Zn13  S    
C98   O60   D    
O36   Zn15  S    
C42   C188  A    
O41   Zn15  S    
C143  C198  S    
C19   O44   A    
C99   C130  S    
C96   H71   S    
C29   O37   A    
C83   H58   S    
C54   H29   S    
C61   C198  A    
O34   Zn16  S    
C22   O43   A    
C91   O52   D    
C115  C145  S    
C120  C150  S    
C3    C196  A    
C117  C147  S    
C185  C203  A    
C118  C148  S    
C6    C200  A    
C18   C162  S    
C100  H75   S    
C182  H3    S    
C21   O42   A    
C63   C129  A    
C55   H30   S    
C1    C52   A    
C31   C158  S    
C115  O75   D    
C72   C198  A    
C120  O81   D    
O3    Zn6   S    
O24   Zn8   S    
C84   H59   S    
C35   C187  S    
C118  O79   D    
C53   C90   A    
C199  H19   S    
O42   Zn12  S    
C52   H27   S    
C82   C112  A    
C39   C48   S    
C83   C149  A    
C84   C150  A    
C27   C153  S    
C16   O8    A    
O7    Zn9   S    
C56   H31   S    
C93   C124  S    
O23   Zn2   S    
C100  C131  S    
C27   O39   A    
O26   Zn6   S    
C144  C168  A    
C177  H56   S    
C68   C154  S    
C16   O13   A    
C28   O25   A    
C124  C159  A    
C171  C189  A    
C8    C208  S    
C20   O46   A    
C5    C16   S    
C180  C197  A    
C78   C145  A    
C142  C167  A    
C7    C14   S    
C103  H77   S    
C94   O55   D    
O19   Zn7   S    
C42   C51   S    
O6    Zn14  S    
C61   H36   S    
O48   Zn9   S    
C66   H41   S    
C116  H90   S    
C31   O28   A    
C57   C67   A    
C58   H32   S    
C65   C131  A    
C175  H45   S    
O23   Zn6   S    
C22   O19   A    
C184  C202  A    
C9    O2    A    
C97   O59   D    
C91   H65   S    
C138  C162  A    
C191  H11   S    
C40   C185  A    
C55   C113  A    
C117  O77   D    
C128  C163  A    
C91   C113  S    
C57   C74   A    
C100  O62   D    
C21   O18   A    
C28   O36   A    
C66   C133  A    
C105  O66   D    
C121  O82   D    
O84   Zn4   S    
C80   C143  A    
C75   C141  A    
C186  C204  A    
C119  H93   S    
C38   C47   S    
C105  C136  S    
O11   Zn13  S    
C53   C112  A    
C4    C197  A    
C78   H53   S    
C46   C176  S    
C92   H66   S    
C74   H49   S    
C63   H38   S    
C11   O4    A    
C115  H88   S    
C36   C177  A    
C17   O47   A    
C123  C158  A    
C42   C183  A    
C178  C195  A    
C179  H78   S    
C58   C124  A    
C12   O5    A    
O56   Zn7   S    
C202  H22   S    
C59   H33   S    
C4    C15   S    
C60   C126  A    
C77   C144  A    
C94   H69   S    
C62   C128  A    
C184  H5    S    
C64   H39   S    
C201  H21   S    
C191  C208  A    
C41   C182  A    
C104  H79   S    
C37   C173  A    
C194  H15   S    
C29   O26   A    
C90   C155  A    
C2    C62   A    
C24   C71   A    
C15   O7    A    
C76   C142  A    
