data_mof_unit_7883.cif
_audit_creation_date              2012-12-10T20:35:48-0500
_audit_creation_method            fapswitch 2.2
_symmetry_space_group_name_H-M    P1
_symmetry_Int_Tables_number       1
_space_group_crystal_system       triclinic
_cell_length_a                    15.748513
_cell_length_b                    10.69557
_cell_length_c                    9.895814
_cell_angle_alpha                 90.614476
_cell_angle_beta                  90.746809
_cell_angle_gamma                 90.128877
_cell_volume                      1666.60201558

loop_
_atom_site_label
_atom_site_type_symbol
_atom_type_description
_atom_site_fract_x
_atom_site_fract_y
_atom_site_fract_z
_atom_type_partial_charge
C1    C     C_R   0.503149 0.260298 0.499419 0.967838
C2    C     C_3   0.952736 0.435735 0.622895 -0.430466
C3    C     C_3   0.916914 0.501483 0.495772 0.195329
C4    C     C_3   0.950185 0.638331 0.493501 0.243649
C5    C     C_3   0.048666 0.637565 0.485629 -0.163830
C6    C     C_1   0.825525 0.500613 0.500555 -0.062207
C7    C     C_1   0.174270 0.500064 0.493243 -0.003544
C8    C     C_1   0.249549 0.500499 0.496587 -0.055335
C9    C     C_R   0.500060 0.064424 0.619064 -0.031760
C10   C     C_R   0.513880 0.128578 0.499637 -0.087267
C11   C     C_R   0.542538 0.062808 0.384317 0.444070
C12   C     C_R   0.338381 0.500377 0.499191 0.935721
C13   C     C_R   0.541786 0.932188 0.386830 -0.316386
C14   C     C_R   0.514122 0.870673 0.502775 -0.091903
C15   C     C_R   0.501595 0.938024 0.621344 0.064197
C16   C     C_3   0.439713 0.930457 0.735411 -0.270486
C17   C     C_3   0.439228 0.074566 0.734762 -0.290184
C18   C     C_R   0.435030 0.445497 0.068749 0.164286
C19   C     C_R   0.567128 0.544869 0.075113 -0.104875
C20   C     C_R   0.566977 0.547497 0.931758 0.001923
C21   C     C_R   0.436085 0.442280 0.926414 0.183131
C22   C     C_3   0.343982 0.473213 0.915867 -0.510801
C23   C     C_R   0.502406 0.739590 0.500658 0.928265
C24   C     C_3   0.343058 0.481487 0.069357 -0.290728
C25   C     C_R   0.661574 0.500022 0.500724 0.889453
C26   C     C_3   0.050505 0.437328 0.622321 -0.406426
C27   C     C_3   0.046256 0.420117 0.364805 -0.118168
C28   C     C_3   0.946363 0.430241 0.367452 -0.419513
C29   C     C_1   0.750324 0.500217 0.502035 -0.128810
C30   C     C_3   0.082414 0.499152 0.490506 0.006210
H1    H     H_    0.929816 0.337233 0.625460 0.221917
H2    H     H_    0.075159 0.486815 0.713816 0.235580
H3    H     H_    0.929984 0.483514 0.716124 0.213409
H4    H     H_    0.558925 0.879565 0.297073 0.172941
H5    H     H_    0.469695 0.892554 0.828721 0.194380
H6    H     H_    0.471108 0.116351 0.825577 0.155133
H7    H     H_    0.619793 0.584910 0.132243 0.158551
H8    H     H_    0.074694 0.340148 0.631539 0.206268
H9    H     H_    0.332280 0.562858 0.863498 0.253727
H10   H     H_    0.306069 0.393484 0.874688 0.235711
H11   H     H_    0.302554 0.408643 0.115617 0.222164
H12   H     H_    0.914174 0.337812 0.362612 0.207623
H13   H     H_    0.920742 0.478884 0.276978 0.241308
H14   H     H_    0.067511 0.677462 0.387584 0.240084
H15   H     H_    0.929843 0.686231 0.588710 0.116946
N1    N     N_R   0.499430 0.499140 0.142800 -0.111339
N2    N     N_R   0.499430 0.499180 0.857150 -0.136713
O1    O     O_R   0.500010 0.316790 0.614690 -0.644802
O2    O     O_R   0.500000 0.316760 0.385350 -0.552256
O3    O     O_R   0.377150 0.500020 0.614720 -0.633093
O4    O     O_R   0.377140 0.499990 0.385380 -0.607087
O5    O     O_R   0.500000 0.683240 0.614650 -0.585633
O6    O     O_R   0.499990 0.683210 0.385310 -0.622570
O7    O     O_R   0.622860 0.500010 0.614620 -0.611203
O8    O     O_R   0.622850 0.499980 0.385280 -0.621549
Zn1   Zn    Zn3+2 0.500010 0.500020 0.653130 0.993485
Zn2   Zn    Zn3+2 0.499990 0.499980 0.346870 1.016306
O9    O     O_3   0.916492 0.702914 0.381721 -0.705516
H16   H     H_    0.860598 0.737098 0.408780 0.339012
O10   O     O_3   0.567557 0.126217 0.270453 -0.739966
H17   H     H_    0.585037 0.065030 0.200181 0.336630
C31   C     C_2   0.356889 0.865857 0.698052 0.979085
O11   O     O_2   0.325765 0.876164 0.584767 -0.597703
O12   O     O_R   0.316039 0.794336 0.794926 -0.776920
H18   H     H_    0.261850 0.754153 0.758899 0.347020
C32   C     C_2   0.354065 0.134309 0.705129 0.987873
O13   O     O_2   0.303788 0.147532 0.797212 -0.622013
O14   O     O_R   0.331859 0.172436 0.574788 -0.785821
H19   H     H_    0.273778 0.212855 0.571041 0.350089
C33   C     C_2   0.639297 0.609191 0.867601 0.955077
O15   O     O_2   0.711244 0.570459 0.888296 -0.632036
O16   O     O_R   0.626392 0.715854 0.790093 -0.786657
H20   H     H_    0.681163 0.750387 0.752600 0.331491
C34   C     C_2   0.326565 0.612650 0.120634 1.056865
O17   O     O_2   0.266110 0.632448 0.193962 -0.590818
O18   O     O_R   0.379458 0.711315 0.083081 -0.778492
H21   H     H_    0.361681 0.794283 0.124190 0.362025
C35   C     C_2   0.078043 0.471054 0.229411 0.912244
O19   O     O_2   0.133684 0.416552 0.166974 -0.582078
O20   O     O_R   0.042557 0.579296 0.174151 -0.754387
H22   H     H_    0.068847 0.602648 0.084867 0.377110
C36   C     C_2   0.074990 0.282374 0.375846 0.936273
O21   O     O_2   0.023818 0.197676 0.391595 -0.605197
O22   O     O_R   0.161433 0.253180 0.369120 -0.772507
H23   H     H_    0.172641 0.160170 0.376528 0.377152
C37   C     C_2   0.087715 0.726243 0.590374 0.869313
O23   O     O_2   0.075234 0.712167 0.710966 -0.634299
O24   O     O_R   0.135689 0.828014 0.547073 -0.728062
H24   H     H_    0.154851 0.884458 0.624622 0.374542

loop_
_geom_bond_atom_site_label_1
_geom_bond_atom_site_label_2
_ccdc_geom_bond_type
C32   O14   S    
C26   H2    S    
C18   C21   A    
C19   C20   A    
C3    C6    S    
C19   N1    A    
C7    C8    T    
C17   C32   S    
C34   O18   S    
C18   C24   S    
C3    C28   S    
C16   H5    S    
O20   H22   S    
C35   O20   S    
C15   C16   S    
O2    Zn2   S    
C31   O12   S    
C19   H7    S    
O22   H23   S    
C16   C17   S    
C33   O15   D    
O4    Zn2   S    
C17   H6    S    
C9    C10   A    
C27   C35   S    
C32   O13   D    
C7    C30   S    
C21   C22   S    
C27   C30   S    
C24   H11   S    
C20   C33   S    
C16   C31   S    
C18   N1    A    
C23   O6    A    
C4    H15   S    
C25   C29   S    
O7    Zn1   S    
C34   O17   D    
O18   H21   S    
O6    Zn2   S    
C37   O23   D    
O14   H19   S    
O9    H16   S    
O3    Zn1   S    
C2    H1    S    
C14   C23   S    
C31   O11   D    
C8    C12   S    
C22   H10   S    
C2    C26   S    
C25   O7    A    
C5    C37   S    
C2    H3    S    
C9    C17   S    
C5    H14   S    
C26   C30   S    
C36   O22   S    
O8    Zn2   S    
N1    Zn2   S    
C22   C24   S    
C3    C4    S    
C12   O4    A    
C5    C30   S    
O1    Zn1   S    
C35   O19   D    
C27   C36   S    
C26   H8    S    
C1    C10   S    
C25   O8    A    
O16   H20   S    
C12   O3    A    
C1    O1    A    
C28   H13   S    
O12   H18   S    
C2    C3    S    
C9    C15   A    
C13   H4    S    
C11   C13   A    
C24   C34   S    
C23   O5    A    
C22   H9    S    
C28   H12   S    
C37   O24   S    
C20   N2    A    
C10   C11   A    
O5    Zn1   S    
C4    C5    S    
C6    C29   T    
O24   H24   S    
C36   O21   D    
C4    O9    S    
C27   C28   S    
C14   C15   A    
O10   H17   S    
C33   O16   S    
C13   C14   A    
C1    O2    A    
C11   O10   S    
N2    Zn1   S    
C21   N2    A    
