data_mof_unit_15551.cif
_audit_creation_date              2012-12-10T20:51:25-0500
_audit_creation_method            fapswitch 2.2
_symmetry_space_group_name_H-M    P1
_symmetry_Int_Tables_number       1
_space_group_crystal_system       triclinic
_cell_length_a                    17.561194
_cell_length_b                    8.929466
_cell_length_c                    8.156722
_cell_angle_alpha                 89.998191
_cell_angle_beta                  90.354202
_cell_angle_gamma                 89.999944
_cell_volume                      1279.04813976

loop_
_atom_site_label
_atom_site_type_symbol
_atom_type_description
_atom_site_fract_x
_atom_site_fract_y
_atom_site_fract_z
_atom_type_partial_charge
C1    C     C_R   0.500001 0.218204 0.500001 0.925053
C2    C     C_R   0.848924 0.440680 0.350447 0.034356
C3    C     C_R   0.769890 0.441244 0.649051 0.014024
C4    C     C_R   0.230662 0.437909 0.351048 0.060657
C5    C     C_R   0.228141 0.478084 0.646886 0.057956
C6    C     C_R   0.771636 0.477495 0.352492 0.061053
C7    C     C_R   0.730930 0.475221 0.501309 -0.123096
C8    C     C_R   0.269185 0.474338 0.498507 -0.142949
C9    C     C_R   0.886141 0.404903 0.497375 0.060507
C10   C     C_R   0.113875 0.404422 0.501363 0.017951
C11   C     C_1   0.966229 0.387711 0.498377 -0.007425
C12   C     C_R   0.500000 0.781796 0.499998 0.929911
C13   C     C_1   0.033784 0.387546 0.499954 -0.062330
C14   C     C_1   0.500001 0.065250 0.500002 -0.188477
C15   C     C_1   0.500000 0.934759 0.499998 -0.189596
C16   C     C_R   0.352581 0.496975 0.499467 0.905218
C17   C     C_R   0.647445 0.497216 0.500521 0.905138
C18   C     C_R   0.847837 0.406463 0.646487 0.056005
C19   C     C_R   0.153105 0.403245 0.352614 0.055484
C20   C     C_R   0.150749 0.441672 0.648522 0.057378
H1    H     H_    0.864408 0.285762 0.855180 0.185472
H2    H     H_    0.735689 0.340012 0.858071 0.179591
H3    H     H_    0.244049 0.521162 0.125412 0.195216
H4    H     H_    0.263223 0.334296 0.142726 0.197339
H5    H     H_    0.263120 0.424045 0.872882 0.199746
H6    H     H_    0.235522 0.606517 0.850858 0.193698
H7    H     H_    0.736683 0.423168 0.126483 0.194888
H8    H     H_    0.763976 0.605788 0.148645 0.190338
H9    H     H_    0.886288 0.471103 0.870265 0.194440
H10   H     H_    0.071986 0.448668 0.181594 0.188271
H11   H     H_    0.089594 0.263708 0.211001 0.188225
H12   H     H_    0.085967 0.340092 0.820789 0.204499
H13   H     H_    0.066351 0.524211 0.791443 0.196655
H14   H     H_    0.914079 0.338367 0.179453 0.186851
H15   H     H_    0.932459 0.523460 0.205902 0.184492
H16   H     H_    0.755979 0.527298 0.874257 0.180735
N1    N     N_1   0.500000 0.500000 0.073640 -0.026559
N2    N     N_3   0.734395 0.516999 0.202349 -0.417941
N3    N     N_1   0.500000 0.500000 0.926360 -0.026552
N4    N     N_3   0.889354 0.376586 0.795187 -0.471872
N5    N     N_3   0.114861 0.369305 0.200900 -0.471438
N6    N     N_3   0.110213 0.445446 0.800935 -0.470375
N7    N     N_3   0.889186 0.443358 0.197881 -0.499265
N8    N     N_3   0.730608 0.444715 0.801893 -0.420987
N9    N     N_3   0.269827 0.439164 0.198055 -0.415684
N10   N     N_3   0.265247 0.517950 0.797077 -0.417290
O1    O     O_R   0.500000 0.285350 0.636850 -0.616881
O2    O     O_R   0.500000 0.714650 0.363150 -0.614416
O3    O     O_R   0.500000 0.714650 0.636850 -0.614427
O4    O     O_R   0.500000 0.285350 0.363150 -0.616791
O5    O     O_R   0.389120 0.500000 0.636930 -0.597826
O6    O     O_R   0.610880 0.500000 0.363070 -0.599213
O7    O     O_R   0.610880 0.500000 0.636930 -0.594422
O8    O     O_R   0.389120 0.500000 0.363070 -0.597101
Zn1   Zn    Zn3+2 0.500000 0.500000 0.682780 1.001303
Zn2   Zn    Zn3+2 0.500000 0.500000 0.317220 1.000467

loop_
_geom_bond_atom_site_label_1
_geom_bond_atom_site_label_2
_ccdc_geom_bond_type
C5    C8    A    
C20   N6    S    
C6    N2    S    
H10   N5    S    
C6    C7    A    
H3    N9    S    
C11   C13   T    
C1    O4    A    
C2    N7    S    
O5    Zn1   S    
C4    C19   A    
C16   O5    A    
H8    N2    S    
C10   C19   A    
C12   O2    A    
N3    Zn1   S    
C12   O3    A    
C19   N5    S    
C8    C16   S    
C5    C20   A    
C9    C11   S    
C2    C6    A    
H1    N4    S    
H2    N8    S    
N1    Zn2   S    
H13   N6    S    
H9    N4    S    
C12   C15   S    
C3    C7    A    
C4    N9    S    
O7    Zn1   S    
H6    N10   S    
N1    N3    T    
C16   O8    A    
C3    N8    S    
H16   N8    S    
H4    N9    S    
H7    N2    S    
C17   O7    A    
C9    C18   A    
H15   N7    S    
C17   O6    A    
C3    C18   A    
O1    Zn1   S    
C5    N10   S    
C4    C8    A    
O2    Zn2   S    
H12   N6    S    
C14   C15   T    
C1    O1    A    
C18   N4    S    
C1    C14   S    
H11   N5    S    
O3    Zn1   S    
C2    C9    A    
H5    N10   S    
O4    Zn2   S    
H14   N7    S    
O6    Zn2   S    
C10   C20   A    
O8    Zn2   S    
C7    C17   S    
C10   C13   S    
