data_mof_unit_52691.cif
_audit_creation_date              2013-03-05T15:59:23-0500
_audit_creation_method            fapswitch 2.2
_symmetry_space_group_name_H-M    P1
_symmetry_Int_Tables_number       1
_space_group_crystal_system       triclinic
_cell_length_a                    10.622871
_cell_length_b                    12.650985
_cell_length_c                    13.220949
_cell_angle_alpha                 83.03905
_cell_angle_beta                  90.270252
_cell_angle_gamma                 102.153442
_cell_volume                      1723.73938078

loop_
_atom_site_label
_atom_site_type_symbol
_atom_site_description
_atom_site_fract_x
_atom_site_fract_y
_atom_site_fract_z
_atom_type_partial_charge
O1    O     O_R   0.467970 0.366730 0.627150 -0.528424
O2    O     O_R   0.510820 0.544830 0.662520 -0.642820
C1    C     C_R   0.473896 0.439589 0.690702 0.929870
O3    O     O_R   0.664630 0.410960 0.482340 -0.573849
O4    O     O_R   0.707470 0.589060 0.517710 -0.587911
C2    C     C_R   0.742096 0.501327 0.498311 1.057471
Zn1   Zn    Zn3+2 0.471390 0.381080 0.476380 1.102333
Zn2   Zn    Zn3+2 0.528610 0.618920 0.523620 1.016532
O5    O     O_R   0.489180 0.455170 0.337480 -0.574532
O6    O     O_R   0.532030 0.633270 0.372850 -0.649248
O7    O     O_R   0.292530 0.410940 0.482290 -0.598158
O8    O     O_R   0.335370 0.589040 0.517660 -0.613824
C3    C     C_R   0.513576 0.560542 0.309259 0.892704
C4    C     C_R   0.258064 0.499564 0.500345 0.972918
C5    C     C_3   0.947550 0.455367 0.417667 0.338618
C6    C     C_3   0.013279 0.397698 0.505894 0.083763
C7    C     C_3   0.123334 0.499787 0.499944 -0.352168
C8    C     C_3   0.056495 0.558721 0.412299 0.327067
C9    C     C_3   0.987309 0.605562 0.492570 0.146988
C10   C     C_3   0.053505 0.547434 0.579240 0.167289
C11   C     C_3   0.944485 0.445906 0.585203 0.129675
C12   C     C_3   0.877410 0.503289 0.498277 -0.389729
C13   C     C_R   0.486275 0.732200 0.061057 0.332187
H1    H     H_    0.512102 0.764802 0.216576 0.192761
C14   C     C_R   0.514167 0.597590 0.201023 -0.115011
C15   C     C_R   0.458028 0.297439 0.843332 0.236775
C16   C     C_R   0.521190 0.285637 0.935661 -0.198221
C17   C     C_R   0.559842 0.375006 0.989679 0.288044
C18   C     C_R   0.508099 0.469857 0.963088 -0.002145
C19   C     C_R   0.454995 0.484497 0.866349 -0.039766
C20   C     C_R   0.504670 0.548751 0.029740 0.046894
C21   C     C_R   0.471599 0.650148 0.994525 -0.093929
C22   C     C_R   0.414605 0.661346 0.898343 0.269987
C23   C     C_R   0.404124 0.577728 0.837213 -0.158361
C24   C     C_R   0.515971 0.522203 0.133812 -0.121368
C25   C     C_R   0.506261 0.704176 0.164511 -0.237123
C26   C     C_R   0.451428 0.404016 0.800671 -0.170949
H2    H     H_    0.517221 0.439404 0.164296 0.219189
H3    H     H_    0.545750 0.208501 0.963052 0.236658
H4    H     H_    0.350360 0.583900 0.767902 0.219475
C27   C     C_R   0.334367 0.087899 0.340119 0.148875
H5    H     H_    0.298679 0.876337 0.317382 0.205673
N1    N     N_R   0.432930 0.222190 0.444670 -0.191369
C28   C     C_R   0.642841 0.795079 0.635561 0.040987
C29   C     C_R   0.649738 0.888634 0.681393 -0.313084
C30   C     C_R   0.582873 0.968879 0.640705 0.576996
C31   C     C_R   0.515557 0.955331 0.547368 -0.009756
C32   C     C_R   0.502130 0.852458 0.510750 0.176446
C33   C     C_R   0.460230 0.037432 0.488515 -0.128059
C34   C     C_R   0.380337 0.008183 0.404854 -0.079158
C35   C     C_R   0.358203 0.901742 0.380293 -0.070242
C36   C     C_R   0.420001 0.826688 0.430899 -0.123263
C37   C     C_R   0.491969 0.150171 0.500630 0.586727
C38   C     C_R   0.361612 0.195772 0.362180 0.482420
N2    N     N_R   0.566370 0.776980 0.554790 -0.136680
H6    H     H_    0.689553 0.731853 0.670027 0.189425
H7    H     H_    0.700532 0.894211 0.752226 0.191117
H8    H     H_    0.402775 0.748647 0.404628 0.208435
N3    N     N_R   0.035435 0.286734 0.519695 0.217210
O9    O     O_R   0.994186 0.219384 0.454182 -0.452792
O10   O     O_R   0.094018 0.253470 0.600083 -0.270435
N4    N     N_R   0.397643 0.202331 0.797243 0.252161
O11   O     O_R   0.407509 0.106106 0.839545 -0.251985
O12   O     O_R   0.306693 0.208299 0.731915 -0.275180
N5    N     N_R   0.659922 0.372420 0.062863 0.202130
O13   O     O_R   0.748619 0.459645 0.068700 -0.385493
O14   O     O_R   0.672840 0.280671 0.113644 -0.366886
O15   O     O_3   0.342137 0.278237 0.289337 -0.582584
C39   C     C_3   0.210554 0.280297 0.283040 -0.145790
H9    H     H_    0.192227 0.315136 0.204631 0.172957
H10   H     H_    0.187295 0.334626 0.336110 0.186630
H11   H     H_    0.144234 0.199229 0.298695 0.200707
N6    N     N_R   0.270829 0.062270 0.247197 0.221364
O16   O     O_R   0.156709 0.999155 0.250531 -0.363587
O17   O     O_R   0.320396 0.111558 0.159829 -0.286174
O18   O     O_3   0.596289 0.193554 0.555040 -0.570192
C40   C     C_3   0.708855 0.195813 0.498096 -0.153871
H12   H     H_    0.789536 0.242919 0.536944 0.227722
H13   H     H_    0.706246 0.236345 0.418715 0.205681
H14   H     H_    0.728177 0.113201 0.496392 0.144939
O19   O     O_3   0.873432 0.412630 0.337208 -0.597628
C41   C     C_3   0.951764 0.385042 0.263511 -0.155941
H15   H     H_    0.955328 0.297908 0.279611 0.196543
H16   H     H_    0.049956 0.437311 0.255066 0.145096
H17   H     H_    0.906703 0.395089 0.188531 0.256201
O20   O     O_3   0.563335 0.048548 0.699117 -0.518750
C42   C     C_3   0.676573 0.095074 0.748580 -0.000609
H18   H     H_    0.765444 0.104834 0.700934 0.137707
H19   H     H_    0.685440 0.046889 0.823005 0.191051
H20   H     H_    0.668830 0.177435 0.764678 0.221749
O21   O     O_3   0.130899 0.614101 0.326155 -0.649954
C43   C     C_3   0.056017 0.669265 0.259107 -0.127943
H21   H     H_    0.065437 0.753783 0.277423 0.232889
H22   H     H_    0.952599 0.627587 0.258823 0.189098
H23   H     H_    0.095094 0.674673 0.180551 0.203256
N7    N     N_R   0.966813 0.716898 0.485822 0.242883
O22   O     O_R   0.008192 0.777852 0.556532 -0.277907
O23   O     O_R   0.897700 0.752818 0.413383 -0.384660
N8    N     N_R   0.114907 0.598639 0.664965 0.243281
O24   O     O_R   0.203789 0.687010 0.648088 -0.296856
O25   O     O_R   0.075538 0.561167 0.757915 -0.296796
N9    N     N_R   0.882904 0.386054 0.679687 0.242935
O26   O     O_R   0.948564 0.334781 0.744431 -0.292158
O27   O     O_R   0.765249 0.389531 0.703069 -0.419695
N10   N     N_R   0.348283 0.747435 0.868352 0.265921
O28   O     O_R   0.368072 0.801761 0.777882 -0.280319
O29   O     O_R   0.255474 0.761482 0.925773 -0.285922
N11   N     N_R   0.487092 0.844080 0.024923 0.248645
O30   O     O_R   0.552415 0.890245 0.942577 -0.361843
O31   O     O_R   0.441781 0.904556 0.082418 -0.311953

loop_
_geom_bond_atom_site_label_1
_geom_bond_atom_site_label_2
_geom_bond_distance
_ccdc_geom_bond_type
C5    C8    1.547627 S    
C42   H18   1.113989 S    
C5    O19   1.412807 S    
C6    C11   1.534712 S    
C32   N2    1.361004 A    
N6    O16   1.301353 A    
C9    C10   1.534321 S    
O19   C41   1.405677 S    
C31   C33   1.444473 A    
C40   H12   1.099307 S    
Zn1   O7    2.017327 S    
N10   O29   1.301323 A    
C29   H7    1.080883 S    
C15   C16   1.397429 A    
N4    O11   1.301467 A    
C23   H4    1.080969 S    
C8    O21   1.412305 S    
C17   C18   1.428038 A    
O4    C2    1.294123 A    
O7    C4    1.298696 A    
C38   O15   1.379903 S    
C5    C6    1.543023 S    
C2    C12   1.432409 S    
C7    C10   1.536695 S    
N11   O30   1.300083 A    
C8    C9    1.536482 S    
C39   H10   1.102624 S    
O5    C3    1.310838 A    
N4    O12   1.300834 A    
N1    C37   1.357817 A    
C5    C12   1.553332 S    
C31   C32   1.422108 A    
C16   H3    1.082645 S    
C6    C7    1.543205 S    
N5    O14   1.301596 A    
N7    O23   1.300425 A    
Zn1   N1    2.059147 S    
H5    C35   1.081279 S    
N3    O9    1.298571 A    
C11   C12   1.537304 S    
N6    O17   1.301231 A    
C4    C7    1.431802 S    
C3    C14   1.450408 S    
N9    O26   1.300099 A    
O3    Zn1   2.010448 S    
Zn2   N2    2.046858 S    
C22   C23   1.393341 A    
C40   H13   1.113735 S    
N3    O10   1.299819 A    
C19   C23   1.409902 A    
C35   C36   1.372776 A    
C9    C12   1.543961 S    
C22   N10   1.433715 S    
O18   C40   1.409381 S    
O3    C2    1.299808 A    
O21   C43   1.408084 S    
O20   C42   1.417341 S    
O15   C39   1.405393 S    
C34   C35   1.394980 A    
C29   C30   1.411433 A    
C43   H23   1.109305 S    
C19   C26   1.410604 A    
O1    C1    1.312373 A    
C6    N3    1.461498 S    
C39   H11   1.112074 S    
C18   C19   1.402884 A    
C28   H6    1.081800 S    
N1    C38   1.359779 A    
N8    O24   1.299314 A    
Zn2   O8    2.010450 S    
N7    O22   1.299978 A    
C24   H2    1.078572 S    
C43   H22   1.114219 S    
C7    C8    1.551918 S    
H1    C25   1.083271 S    
N9    O27   1.299869 A    
C36   H8    1.065507 S    
C14   C24   1.383047 A    
C11   N9    1.459989 S    
N8    O25   1.299979 A    
O8    C4    1.295283 A    
C41   H15   1.105674 S    
C41   H16   1.109277 S    
C42   H19   1.107517 S    
C20   C24   1.387022 A    
C37   O18   1.370704 S    
C27   C34   1.407914 A    
C28   C29   1.382129 A    
C40   H14   1.109497 S    
Zn1   O5    1.948865 S    
C30   C31   1.433466 A    
O1    Zn1   1.979343 S    
C20   C21   1.424476 A    
O2    Zn2   1.948863 S    
O6    C3    1.304540 A    
O4    Zn2   2.017324 S    
C15   C26   1.412828 A    
C13   C25   1.397483 A    
C41   H17   1.103905 S    
N10   O28   1.299799 A    
C21   C22   1.410259 A    
O2    C1    1.313984 A    
C15   N4    1.442054 S    
C18   C20   1.415208 A    
C13   C21   1.423878 A    
C28   N2    1.351085 A    
C10   N8    1.456941 S    
C33   C37   1.423342 A    
C13   N11   1.436177 S    
C43   H21   1.108776 S    
N11   O31   1.301653 A    
C17   N5    1.436926 S    
N5    O13   1.301369 A    
C39   H9    1.109166 S    
C27   C38   1.400219 A    
C14   C25   1.395645 A    
C27   N6    1.437535 S    
C32   C36   1.391745 A    
C10   C11   1.532048 S    
C1    C26   1.474029 S    
Zn2   O6    1.979346 S    
C33   C34   1.427845 A    
C42   H20   1.108023 S    
C16   C17   1.397991 A    
C9    N7    1.462107 S    
C30   O20   1.390530 S    
