data_mof_unit_48997.cif
_audit_creation_date              2012-12-10T17:58:21-0500
_audit_creation_method            fapswitch 2.2
_symmetry_space_group_name_H-M    P1
_symmetry_Int_Tables_number       1
_space_group_crystal_system       triclinic
_cell_length_a                    9.564238
_cell_length_b                    10.790834
_cell_length_c                    15.449433
_cell_angle_alpha                 89.092272
_cell_angle_beta                  74.467607
_cell_angle_gamma                 89.799775
_cell_volume                      1536.05103179

loop_
_atom_site_label
_atom_site_type_symbol
_atom_type_description
_atom_site_fract_x
_atom_site_fract_y
_atom_site_fract_z
_atom_type_partial_charge
C1    C     C_R   0.999081 0.262379 0.502171 0.869912
C2    C     C_R   0.116901 0.067443 0.446571 -0.226320
C3    C     C_R   0.001201 0.871516 0.497052 -0.162951
C4    C     C_R   0.998799 0.128484 0.502948 -0.162950
C5    C     C_R   0.551605 0.421539 0.555137 -0.052860
C6    C     C_R   0.448395 0.578461 0.444863 -0.052860
C7    C     C_R   0.403472 0.421028 0.555325 0.487408
C8    C     C_R   0.596528 0.578972 0.444675 0.487408
C9    C     C_R   0.918327 0.498552 0.672193 0.817821
C10   C     C_R   0.081673 0.501448 0.327807 0.817821
C11   C     C_R   0.872850 0.487976 0.770583 -0.076357
C12   C     C_R   0.000919 0.737621 0.497829 0.869913
C13   C     C_R   0.127149 0.512024 0.229417 -0.076358
C14   C     C_R   0.917258 0.428748 0.912309 -0.176813
C15   C     C_R   0.082741 0.571253 0.087691 -0.176813
C16   C     C_R   0.967057 0.443781 0.819403 -0.127956
C17   C     C_R   0.032943 0.556220 0.180597 -0.127956
C18   C     C_R   0.728876 0.514884 0.815473 -0.131899
C19   C     C_R   0.271124 0.485116 0.184526 -0.131899
C20   C     C_R   0.671929 0.486496 0.907095 0.116762
C21   C     C_R   0.328071 0.513505 0.092905 0.116763
C22   C     C_R   0.771492 0.452844 0.956583 0.083507
C23   C     C_R   0.588256 0.490667 0.094838 0.372393
C24   C     C_R   0.228508 0.547157 0.043417 0.083506
C25   C     C_R   0.521491 0.499186 0.951941 -0.060329
C26   C     C_R   0.478508 0.500815 0.048058 -0.060329
C27   C     C_R   0.411743 0.509335 0.905162 0.372393
C28   C     C_R   0.728091 0.454682 0.049802 -0.234063
C29   C     C_R   0.271908 0.545319 0.950198 -0.234062
C30   C     C_R   0.881416 0.060837 0.557233 0.399110
C31   C     C_R   0.118584 0.939163 0.442767 0.399110
C32   C     C_R   0.883099 0.932557 0.553429 -0.226319
Cl1   Cl    Cl    0.570845 0.546535 0.204072 -0.606042
Cl2   Cl    Cl    0.429154 0.453468 0.795928 -0.606045
Cl3   Cl    Cl    0.734997 0.131993 0.634686 -0.550354
Cl4   Cl    Cl    0.265003 0.868007 0.365313 -0.550353
Cl5   Cl    Cl    0.288982 0.315328 0.628292 -0.512304
Cl6   Cl    Cl    0.711018 0.684672 0.371708 -0.512304
Cu1   Cu    Cu3+1 0.140660 0.500020 0.500000 1.050608
Cu2   Cu    Cu3+1 0.859340 0.499980 0.500000 1.050608
H1    H     H_    0.807443 0.440142 0.087598 0.173714
H2    H     H_    0.206290 0.119843 0.403843 0.195087
H3    H     H_    0.589204 0.359068 0.599429 0.242828
H4    H     H_    0.410796 0.640932 0.400571 0.242829
H5    H     H_    0.192556 0.559859 0.912402 0.173714
H6    H     H_    0.335430 0.436256 0.221543 0.193927
H7    H     H_    0.664569 0.563745 0.778457 0.193928
H8    H     H_    0.920958 0.577454 0.213782 0.225864
H9    H     H_    0.079043 0.422548 0.786218 0.225864
H10   H     H_    0.992887 0.399502 0.949746 0.156896
H11   H     H_    0.007113 0.600499 0.050253 0.156897
H12   H     H_    0.793710 0.880157 0.596156 0.195087
N1    N     N_R   0.352080 0.500030 0.499980 -0.246545
N2    N     N_R   0.647920 0.499970 0.500020 -0.246545
O1    O     O_R   0.118740 0.319660 0.500000 -0.546197
O2    O     O_R   0.881260 0.680340 0.500000 -0.546197
O3    O     O_R   0.881170 0.319630 0.500010 -0.556018
O4    O     O_R   0.118830 0.680370 0.499990 -0.556018
O5    O     O_R   0.055570 0.500030 0.629830 -0.548709
O6    O     O_R   0.944430 0.499970 0.370170 -0.548709
O7    O     O_R   0.818000 0.500000 0.629840 -0.570124
O8    O     O_R   0.182000 0.500000 0.370160 -0.570124

loop_
_geom_bond_atom_site_label_1
_geom_bond_atom_site_label_2
_ccdc_geom_bond_type
C2    C4    A    
C21   C26   A    
C11   C18   A    
C29   H5    S    
Cu2   O6    S    
C1    O3    A    
C27   C29   A    
C11   C16   A    
C5    N2    A    
C9    O5    A    
C10   O6    A    
C17   H8    S    
C13   C17   A    
C1    C4    S    
Cu1   O5    S    
C18   H7    S    
C14   C22   A    
C7    Cl5   S    
C19   H6    S    
C12   O4    A    
C6    H4    S    
C23   C28   A    
C10   O8    A    
C3    C31   A    
C9    C11   S    
C12   O2    A    
C8    Cl6   S    
C30   Cl3   S    
C2    H2    S    
C9    O7    A    
C4    C30   A    
C22   C28   A    
C15   C24   A    
C19   C21   A    
Cu1   N1    S    
C15   H11   S    
C27   Cl2   S    
C1    O1    A    
C3    C32   A    
C14   C16   A    
C21   C24   A    
C7    N1    A    
C25   C27   A    
C20   C25   A    
C14   H10   S    
C6    N1    A    
C30   C32   A    
C32   H12   S    
C28   H1    S    
C16   H9    S    
C18   C20   A    
C5    C7    A    
C23   C26   A    
C8    N2    A    
Cu1   Cu2   S    
C15   C17   A    
Cu1   O8    S    
C13   C19   A    
C31   Cl4   S    
C5    H3    S    
C6    C8    A    
Cu2   O3    S    
C23   Cl1   S    
C25   C26   A    
C24   C29   A    
Cu1   O4    S    
C3    C12   S    
Cu1   O1    S    
Cu2   O7    S    
Cu2   N2    S    
C20   C22   A    
C2    C31   A    
Cu2   O2    S    
C10   C13   S    
