data_mof_unit_34344.cif
_audit_creation_date              2012-12-11T19:24:57-0500
_audit_creation_method            fapswitch 2.2
_symmetry_space_group_name_H-M    P1
_symmetry_Int_Tables_number       1
_space_group_crystal_system       triclinic
_cell_length_a                    19.494288
_cell_length_b                    22.547035
_cell_length_c                    8.377816
_cell_angle_alpha                 90.0
_cell_angle_beta                  103.306744
_cell_angle_gamma                 90.088575
_cell_volume                      3583.50216855

loop_
_atom_site_label
_atom_site_type_symbol
_atom_type_description
_atom_site_fract_x
_atom_site_fract_y
_atom_site_fract_z
_atom_type_partial_charge
Ba1   Ba    Ba6+2 0.999900 0.457470 0.844900 1.685123
Ba2   Ba    Ba6+2 0.999900 0.542530 0.344900 1.684702
Ba3   Ba    Ba6+2 0.499900 0.957470 0.844900 1.682082
Ba4   Ba    Ba6+2 0.499900 0.042530 0.344900 1.682696
C1    C     C_3   0.059841 0.181455 0.638722 -0.249020
C2    C     C_R   0.784449 0.675959 0.534990 -0.041061
C3    C     C_2   0.526153 0.364225 0.038550 0.498597
C4    C     C_R   0.284270 0.823867 0.036535 -0.042484
C5    C     C_R   0.284402 0.175920 0.535063 -0.040997
C6    C     C_R   0.741033 0.331200 0.878608 -0.009003
C7    C     C_R   0.741904 0.669053 0.375995 -0.013173
C8    C     C_R   0.241053 0.831168 0.878619 -0.009043
C9    C     C_R   0.241857 0.169011 0.376067 -0.013423
C10   C     C_R   0.191201 0.788622 0.809924 -0.078698
C11   C     C_R   0.192578 0.211824 0.306670 -0.047743
C12   C     C_R   0.691170 0.288661 0.809912 -0.077167
C13   C     C_3   0.059576 0.818727 0.161871 -0.237793
C14   C     C_R   0.692648 0.711881 0.306575 -0.047538
C15   C     C_R   0.838544 0.365056 0.104184 0.036345
C16   C     C_R   0.838622 0.634916 0.603339 0.054914
C17   C     C_R   0.338546 0.865044 0.104200 0.036341
C18   C     C_R   0.338601 0.134897 0.603379 0.055003
C19   C     C_R   0.878972 0.355838 0.263726 -0.302328
C20   C     C_R   0.878886 0.644133 0.763096 -0.289645
C21   C     C_R   0.378977 0.855821 0.263739 -0.302562
C22   C     C_R   0.378864 0.144113 0.763140 -0.289681
C23   C     C_R   0.156944 0.637377 0.085339 0.095644
C24   C     C_3   0.559938 0.681506 0.638907 -0.249087
C25   C     C_R   0.159350 0.363311 0.582749 0.030684
C26   C     C_R   0.657125 0.137295 0.085112 0.092799
C27   C     C_R   0.659323 0.863316 0.582731 0.034218
C28   C     C_R   0.209145 0.680369 0.153818 0.001632
C29   C     C_R   0.207136 0.317642 0.655070 -0.021008
C30   C     C_R   0.709285 0.180307 0.153597 0.001314
C31   C     C_R   0.707170 0.817680 0.654991 -0.020057
C32   C     C_R   0.220118 0.730866 0.060971 0.036604
C33   C     C_R   0.219884 0.268450 0.559805 0.057257
C34   C     C_R   0.720195 0.230839 0.060828 0.037479
C35   C     C_3   0.559767 0.318607 0.162153 -0.238116
C36   C     C_R   0.719953 0.768506 0.559703 0.056714
C37   C     C_R   0.251339 0.674292 0.312567 -0.021991
C38   C     C_R   0.243180 0.319472 0.820052 -0.076229
C39   C     C_R   0.751416 0.174269 0.312402 -0.020840
C40   C     C_R   0.743210 0.819508 0.819961 -0.076335
C41   C     C_3   0.967787 0.243069 0.083386 0.272903
C42   C     C_3   0.997495 0.775245 0.645054 0.221478
C43   C     C_3   0.467968 0.742987 0.083698 0.274245
C44   C     C_3   0.497376 0.275186 0.644817 0.221977
C45   C     C_R   0.801267 0.216388 0.381210 -0.097497
C46   C     C_R   0.180024 0.737981 0.898466 -0.016845
C47   C     C_R   0.793800 0.778119 0.887931 -0.086789
C48   C     C_R   0.301235 0.716391 0.381304 -0.098665
C49   C     C_R   0.293742 0.278065 0.888035 -0.086099
C50   C     C_R   0.813295 0.266278 0.292002 -0.047489
C51   C     C_R   0.810415 0.731457 0.793972 -0.044349
C52   C     C_R   0.313268 0.766279 0.292079 -0.046405
C53   C     C_R   0.310350 0.231403 0.794069 -0.044672
C54   C     C_R   0.772816 0.273630 0.129542 -0.001982
C55   C     C_R   0.771978 0.725441 0.629151 0.015835
C56   C     C_R   0.272779 0.773635 0.129633 -0.001377
C57   C     C_R   0.181386 0.262357 0.395451 0.000795
C58   C     C_R   0.271910 0.225387 0.629249 0.015784
C59   C     C_R   0.864952 0.308713 0.360581 -0.007991
C60   C     C_R   0.863682 0.690320 0.861198 -0.025882
C61   C     C_R   0.364951 0.808702 0.360615 -0.007870
C62   C     C_R   0.363643 0.190287 0.861265 -0.025944
C63   C     C_R   0.117025 0.646099 0.924952 -0.210947
C64   C     C_R   0.121919 0.356035 0.419597 -0.241605
C65   C     C_R   0.617152 0.146045 0.924817 -0.221551
C66   C     C_R   0.621950 0.856074 0.419527 -0.241777
C67   C     C_3   0.928067 0.185038 0.041532 -0.217924
C68   C     C_R   0.680040 0.237991 0.898395 -0.011420
C69   C     C_3   0.946982 0.824235 0.570350 -0.200570
C70   C     C_3   0.428288 0.684936 0.041779 -0.220903
C71   C     C_3   0.446975 0.324256 0.570159 -0.201502
C72   C     C_3   0.241723 0.490552 0.363001 0.677462
C73   C     C_3   0.267635 0.482668 0.871779 0.659503
C74   C     C_3   0.741562 0.990679 0.363957 0.676056
C75   C     C_3   0.767168 0.983271 0.872366 0.648771
C76   C     C_3   0.295943 0.528199 0.480829 -0.196901
C77   C     C_3   0.325207 0.437929 0.855848 -0.380039
C78   C     C_3   0.795437 0.028540 0.482172 -0.198194
C79   C     C_R   0.681459 0.762416 0.395354 0.000461
C80   C     C_3   0.824944 0.938271 0.859717 -0.372049
C81   C     C_3   0.797420 0.537376 0.908753 0.307722
C82   C     C_3   0.797700 0.462324 0.409773 0.305578
C83   C     C_3   0.297397 0.037367 0.908740 0.307715
C84   C     C_3   0.297712 0.962317 0.409788 0.305682
C85   C     C_3   0.731063 0.575304 0.870752 -0.363341
C86   C     C_3   0.731607 0.423885 0.372547 -0.363343
C87   C     C_3   0.231032 0.075285 0.870772 -0.363370
C88   C     C_3   0.231619 0.923878 0.372556 -0.363495
C89   C     C_3   0.025321 0.242540 0.615242 0.292925
C90   C     C_R   0.784276 0.323879 0.036492 -0.042464
C91   C     C_3   0.024071 0.758218 0.124359 0.341172
C92   C     C_3   0.525388 0.742580 0.615476 0.293260
C93   C     C_3   0.524170 0.258138 0.124535 0.340061
C94   C     C_R   0.129901 0.694318 0.829085 -0.015262
C95   C     C_R   0.132257 0.306522 0.325400 0.031827
C96   C     C_R   0.629915 0.194329 0.829031 -0.012341
C97   C     C_R   0.632326 0.806581 0.325317 0.031935
C98   C     C_2   0.026381 0.140494 0.501697 0.512591
C99   C     C_2   0.025665 0.864359 0.038634 0.498930
C100  C     C_2   0.526570 0.640574 0.501725 0.512435
H1    H     H_    0.056885 0.272836 0.708316 0.100022
H2    H     H_    0.374784 0.458417 0.839505 0.175656
H3    H     H_    0.470500 0.374223 0.021255 0.045394
H4    H     H_    0.183165 0.403138 0.168043 0.315480
H5    H     H_    0.229718 0.603412 0.751014 0.329433
H6    H     H_    0.683988 0.903363 0.167291 0.315521
H7    H     H_    0.721545 0.098303 0.753763 0.325250
H8    H     H_    0.829479 0.000560 0.576497 0.140570
H9    H     H_    0.875085 0.958522 0.846653 0.175450
H10   H     H_    0.330476 0.552529 0.414688 0.133511
H11   H     H_    0.306930 0.409637 0.748419 0.106330
H12   H     H_    0.830114 0.052857 0.416364 0.132598
H13   H     H_    0.807604 0.910025 0.751727 0.106774
H14   H     H_    0.818558 0.533914 0.797463 0.006869
H15   H     H_    0.818901 0.465569 0.298521 0.009622
H16   H     H_    0.318519 0.033905 0.797428 0.006969
H17   H     H_    0.054084 0.726096 0.214399 0.095833
H18   H     H_    0.318919 0.965559 0.298546 0.009694
H19   H     H_    0.836747 0.558820 0.009402 0.058414
H20   H     H_    0.837085 0.441335 0.510968 0.061098
H21   H     H_    0.336730 0.058818 0.009366 0.058416
H22   H     H_    0.337093 0.941331 0.510997 0.061226
H23   H     H_    0.691473 0.555532 0.767540 0.151303
H24   H     H_    0.692125 0.442862 0.267958 0.159195
H25   H     H_    0.191434 0.055503 0.767593 0.151328
H26   H     H_    0.192143 0.942849 0.267946 0.159072
H27   H     H_    0.743230 0.620773 0.836017 0.050013
H28   H     H_    0.556887 0.772858 0.708705 0.100216
H29   H     H_    0.744271 0.378248 0.340292 0.053617
H30   H     H_    0.243181 0.120754 0.836002 0.050047
H31   H     H_    0.244285 0.878238 0.340333 0.053525
H32   H     H_    0.708291 0.578074 0.980488 0.130788
H33   H     H_    0.708491 0.421657 0.481855 0.125086
H34   H     H_    0.208277 0.078058 0.980533 0.130806
H35   H     H_    0.208493 0.921658 0.481852 0.125142
H36   H     H_    0.026456 0.259264 0.491050 -0.081675
H37   H     H_    0.026794 0.744134 0.998985 -0.142012
H38   H     H_    0.526596 0.759358 0.491375 -0.081817
H39   H     H_    0.554060 0.226006 0.214726 0.096560
H40   H     H_    0.526990 0.244007 0.999262 -0.140289
H41   H     H_    0.117031 0.186161 0.643192 0.065635
H42   H     H_    0.116426 0.814545 0.161948 0.063527
H43   H     H_    0.617139 0.686245 0.643560 0.065623
H44   H     H_    0.616662 0.314321 0.162804 0.063413
H45   H     H_    0.054432 0.162194 0.757302 0.113858
H46   H     H_    0.055702 0.833567 0.285894 0.111092
H47   H     H_    0.554469 0.662196 0.757388 0.113880
H48   H     H_    0.555698 0.333534 0.285963 0.111493
H49   H     H_    0.875032 0.188432 0.068045 0.110208
H50   H     H_    0.268939 0.560131 0.544734 0.069556
H51   H     H_    0.915683 0.837825 0.659445 0.090885
H52   H     H_    0.375363 0.688202 0.069023 0.108850
H53   H     H_    0.415526 0.337764 0.659026 0.090438
H54   H     H_    0.745108 0.369537 0.804393 0.104868
H55   H     H_    0.746182 0.630920 0.301295 0.106399
H56   H     H_    0.245153 0.869487 0.804361 0.104931
H57   H     H_    0.246154 0.130888 0.301348 0.106397
H58   H     H_    0.161202 0.796589 0.686519 0.094528
H59   H     H_    0.163394 0.204366 0.182208 0.106040
H60   H     H_    0.661131 0.296650 0.686556 0.094074
H61   H     H_    0.339519 0.409970 0.967389 0.130545
H62   H     H_    0.663470 0.704425 0.182108 0.106003
H63   H     H_    0.830447 0.208556 0.505364 0.123798
H64   H     H_    0.820079 0.784151 0.015188 0.144919
H65   H     H_    0.330456 0.708542 0.505415 0.121777
H66   H     H_    0.320057 0.284121 0.015259 0.145146
H67   H     H_    0.246039 0.637550 0.388496 0.084634
H68   H     H_    0.235413 0.354258 0.899671 0.155579
H69   H     H_    0.746068 0.137553 0.388323 0.087152
H70   H     H_    0.735268 0.854185 0.899717 0.155500
H71   H     H_    0.919376 0.387696 0.316734 0.067373
H72   H     H_    0.768219 0.060489 0.545744 0.077891
H73   H     H_    0.919806 0.612739 0.815564 0.062818
H74   H     H_    0.419391 0.887674 0.316732 0.067611
H75   H     H_    0.419806 0.112734 0.815580 0.063153
H76   H     H_    0.078829 0.612790 0.870101 0.063446
H77   H     H_    0.085315 0.390200 0.363581 0.052846
H78   H     H_    0.578957 0.112734 0.869978 0.063465
H79   H     H_    0.585348 0.890241 0.363508 0.053367
H80   H     H_    0.937034 0.278351 0.006015 0.084232
H81   H     H_    0.965615 0.737173 0.672313 -0.001557
H82   H     H_    0.437102 0.778290 0.006636 0.083712
H83   H     H_    0.837971 0.910242 0.971157 0.131340
H84   H     H_    0.465406 0.237101 0.671613 -0.000991
H85   H     H_    0.971829 0.252864 0.215067 -0.056216
H86   H     H_    0.031968 0.792318 0.759999 0.033632
H87   H     H_    0.472135 0.752689 0.215480 -0.056111
H88   H     H_    0.531757 0.292152 0.760012 0.032662
H89   H     H_    0.921894 0.175036 0.909237 0.178997
H90   H     H_    0.910710 0.808043 0.456292 0.180008
H91   H     H_    0.421836 0.675099 0.909286 0.177726
H92   H     H_    0.410836 0.308177 0.455774 0.180637
H93   H     H_    0.957299 0.148350 0.115515 0.173281
H94   H     H_    0.330071 0.500137 0.574706 0.138417
H95   H     H_    0.976741 0.863225 0.541057 0.146820
H96   H     H_    0.457717 0.648197 0.115180 0.174268
H97   H     H_    0.476836 0.363271 0.541421 0.146418
H98   H     H_    0.196151 0.478776 0.414961 -0.067988
H99   H     H_    0.244065 0.469610 0.973969 0.102139
H100  H     H_    0.695865 0.978766 0.415266 -0.065069
H101  H     H_    0.743056 0.970794 0.974091 0.101333
H102  H     H_    0.970785 0.129570 0.481525 0.044091
H103  H     H_    0.970008 0.874254 0.021895 0.044749
H104  H     H_    0.470976 0.629624 0.481361 0.043830
O1    O     O_2   0.860260 0.414960 0.826400 -0.474044
O2    O     O_3   0.038889 0.759438 0.535135 -0.588606
O3    O     O_3   0.535085 0.737587 0.050499 -0.594189
O4    O     O_3   0.538894 0.259452 0.535104 -0.588911
O5    O     O_3   0.081330 0.529680 0.090830 -0.481693
O6    O     O_3   0.081330 0.470320 0.590830 -0.457741
O7    O     O_3   0.581330 0.029680 0.090830 -0.481649
O8    O     O_3   0.581330 0.970320 0.590830 -0.458861
O9    O     O_3   0.918600 0.470180 0.098890 -0.497668
O10   O     O_3   0.918600 0.529820 0.598890 -0.498291
O11   O     O_3   0.418600 0.970180 0.098890 -0.497424
O12   O     O_2   0.860260 0.585040 0.326400 -0.470690
O13   O     O_3   0.418600 0.029820 0.598890 -0.498241
O14   O     O_3   0.975750 0.362410 0.628650 -0.487818
O15   O     O_3   0.975750 0.637590 0.128650 -0.492872
O16   O     O_3   0.475750 0.862410 0.628650 -0.487489
O17   O     O_3   0.475750 0.137590 0.128650 -0.492205
O18   O     O_2   0.862245 0.313071 0.694158 -0.485538
O19   O     O_2   0.861654 0.685330 0.194469 -0.470304
O20   O     O_2   0.362276 0.813045 0.694229 -0.485988
O21   O     O_2   0.361723 0.185386 0.194641 -0.470244
O22   O     O_3   0.779241 0.481063 0.955244 -0.625821
O23   O     O_2   0.360260 0.914960 0.826400 -0.473942
O24   O     O_3   0.779232 0.518723 0.454780 -0.628268
O25   O     O_3   0.279234 0.981054 0.955258 -0.625860
O26   O     O_3   0.279238 0.018717 0.454774 -0.628263
O27   O     O_3   0.956068 0.238745 0.637430 -0.611953
O28   O     O_3   0.953782 0.761291 0.139551 -0.600033
O29   O     O_3   0.456099 0.738736 0.637411 -0.612129
O30   O     O_3   0.453834 0.261308 0.139340 -0.600142
O31   O     O_2   0.139400 0.414340 0.863230 -0.495602
O32   O     O_2   0.139400 0.585660 0.363230 -0.502686
O33   O     O_2   0.639400 0.914340 0.863230 -0.496600
O34   O     O_2   0.360260 0.085040 0.326400 -0.470611
O35   O     O_2   0.639400 0.085660 0.363230 -0.502878
O36   O     O_3   0.023740 0.362300 0.060930 -0.488638
O37   O     O_3   0.023740 0.637700 0.560930 -0.456010
O38   O     O_3   0.523740 0.862300 0.060930 -0.488320
O39   O     O_3   0.523740 0.137700 0.560930 -0.457233
O40   O     O_2   0.131220 0.307748 0.988955 -0.472189
O41   O     O_2   0.137692 0.686505 0.498889 -0.495430
O42   O     O_2   0.631300 0.807872 0.988972 -0.472906
O43   O     O_2   0.637692 0.186507 0.498866 -0.492743
O44   O     O_2   0.061311 0.119206 0.412347 -0.569169
O45   O     O_3   0.214863 0.488301 0.724505 -0.679648
O46   O     O_2   0.060382 0.890852 0.957307 -0.578457
O47   O     O_2   0.561575 0.619336 0.412470 -0.569311
O48   O     O_2   0.561110 0.390590 0.957536 -0.578701
O49   O     O_2   0.351030 0.437640 0.272779 -0.272250
O50   O     O_2   0.300643 0.384883 0.473176 -0.381844
O51   O     O_3   0.230162 0.385723 0.173967 -0.530976
O52   O     O_2   0.339407 0.557186 0.104605 -0.265764
O53   O     O_2   0.367470 0.564445 0.836821 -0.339249
O54   O     O_3   0.250327 0.608778 0.869755 -0.553656
O55   O     O_2   0.851481 0.938193 0.275597 -0.272718
O56   O     O_3   0.220458 0.519741 0.212219 -0.630435
O57   O     O_2   0.800858 0.885375 0.475546 -0.381409
O58   O     O_3   0.731066 0.885590 0.175627 -0.530940
O59   O     O_2   0.837250 0.059143 0.103513 -0.269330
O60   O     O_2   0.868010 0.064184 0.838199 -0.332744
O61   O     O_3   0.750571 0.110100 0.862765 -0.548758
O62   O     O_3   0.715005 0.988080 0.723920 -0.686774
O63   O     O_3   0.720436 0.019704 0.212919 -0.632749
O64   O     O_3   0.034965 0.237554 0.050620 -0.594273
P1    P     P_3+3 0.853370 0.434890 0.996520 0.975807
P2    P     P_3+3 0.084620 0.694732 0.608489 0.965897
P3    P     P_3+3 0.581915 0.803459 0.108350 0.963987
P4    P     P_3+3 0.584614 0.194742 0.608456 0.965768
P5    P     P_3+3 0.912634 0.693084 0.079371 0.957046
P6    P     P_3+3 0.913378 0.306302 0.578937 0.941469
P7    P     P_3+3 0.412649 0.193093 0.079392 0.957241
P8    P     P_3+3 0.413392 0.806290 0.578963 0.941132
P9    P     P_3+3 0.853370 0.565110 0.496520 0.980290
P10   P     P_3+3 0.353370 0.934890 0.996520 0.975992
P11   P     P_3+3 0.353370 0.065110 0.496520 0.980417
P12   P     P_3+3 0.146350 0.434230 0.693140 0.971671
P13   P     P_3+3 0.146350 0.565770 0.193140 0.999519
P14   P     P_3+3 0.646350 0.934230 0.693140 0.968220
P15   P     P_3+3 0.646350 0.065770 0.193140 0.995314
P16   P     P_3+3 0.081845 0.303405 0.108388 0.964101
S1    S     S_3+6 0.283890 0.423323 0.323871 -0.120708
S2    S     S_3+6 0.308949 0.554066 0.923196 -0.085883
S3    S     S_3+6 0.784208 0.923587 0.325767 -0.120295
S4    S     S_3+6 0.808320 0.054975 0.921635 -0.086601

loop_
_geom_bond_atom_site_label_1
_geom_bond_atom_site_label_2
_ccdc_geom_bond_type
C24   C92   S    
Ba3   P14   S    
C7    C14   A    
C80   H9    S    
Ba4   O8    S    
C83   C87   S    
C3    O48   D    
C41   C67   S    
C92   O29   S    
O23   P10   D    
C88   H26   S    
C13   H46   S    
C12   C68   A    
C83   H21   S    
C53   C62   A    
C20   H73   S    
C43   H87   S    
C86   H33   S    
O17   P7    S    
C33   C58   A    
C71   H97   S    
C66   C97   A    
C7    H55   S    
C74   S3    S    
Ba4   O39   S    
C15   P1    S    
C95   P16   S    
Ba1   O31   S    
O10   P9    S    
O9    P1    S    
C93   O30   S    
C37   H67   S    
H4    O51   S    
Ba3   O16   S    
C100  O47   D    
C96   P4    S    
O3    P3    S    
C29   C38   A    
C28   C32   A    
C11   H59   S    
O59   S4    D    
Ba2   O37   S    
C40   H70   S    
C69   H95   S    
C45   H63   S    
C51   C55   A    
C63   H76   S    
C38   C49   A    
C68   C96   A    
C75   C80   S    
C72   H98   S    
C5    C18   A    
C35   C93   S    
C19   H71   S    
C50   C59   A    
O51   S1    S    
Ba3   O7    S    
C52   C61   A    
C87   H34   S    
C25   C29   A    
Ba4   P11   S    
C1    H45   S    
H7    O61   S    
C98   O44   D    
C43   O3    S    
O18   P6    D    
C5    C9    A    
Ba4   O7    S    
C93   H39   S    
C84   H22   S    
C94   P2    S    
C63   C94   A    
C89   H1    S    
C71   H53   S    
C34   C54   A    
C16   P9    S    
C78   H72   S    
C27   C66   A    
C44   O4    S    
O7    P15   S    
C80   H13   S    
Ba4   O17   S    
C35   H44   S    
Ba2   O9    S    
O6    P12   S    
C28   C37   A    
C81   H19   S    
O12   P9    D    
C13   C91   S    
Ba3   O38   S    
O8    P14   S    
O24   P9    S    
O60   S4    D    
C91   H37   S    
C79   C97   A    
C45   C50   A    
C6    H54   S    
C37   C48   A    
Ba1   P1    S    
O45   P12   S    
C65   H78   S    
C92   H28   S    
C42   O2    S    
C71   H92   S    
C91   H17   S    
C19   C59   A    
O25   P10   S    
C72   O56   S    
C80   H83   S    
C20   C60   A    
C36   C55   A    
Ba3   O33   S    
C69   H90   S    
C51   C60   A    
Ba2   O12   S    
C44   C71   S    
C69   H51   S    
C47   H64   S    
C57   C95   A    
C42   H86   S    
C73   H99   S    
Ba4   O34   S    
C67   H93   S    
Ba2   P9    S    
C34   C68   A    
O63   P15   S    
Ba3   P10   S    
C14   H62   S    
Ba1   O10   S    
O52   S2    D    
C64   H77   S    
C46   C94   A    
Ba4   P15   S    
C1    H41   S    
O32   P13   D    
C26   C30   A    
O49   S1    D    
C5    C58   A    
C75   O62   S    
C16   C20   A    
O13   P11   S    
O29   P8    S    
C21   C61   A    
O43   P4    D    
O61   S4    S    
C84   H18   S    
O30   P7    S    
C82   C86   S    
Ba3   O23   S    
C2    C7    A    
O40   P16   D    
C86   H29   S    
C81   C85   S    
C21   H74   S    
C39   C45   A    
C47   C51   A    
C53   C58   A    
Ba3   O8    S    
C22   H75   S    
Ba1   O1    S    
C35   H48   S    
O21   P7    D    
C29   C33   A    
O54   S2    S    
O37   P2    S    
C22   C62   A    
C10   H58   S    
C15   C19   A    
C17   P10   S    
C93   H40   S    
Ba1   O36   S    
C77   H61   S    
C23   P13   S    
C25   C64   A    
C98   H102  S    
C24   C100  S    
C33   C57   A    
C23   C63   A    
C73   C77   S    
C60   P5    S    
C4    C8    A    
Ba4   O11   S    
C76   H94   S    
O53   S2    D    
C77   H11   S    
C61   P8    S    
C50   C54   A    
C14   C79   A    
C11   C57   A    
Ba1   O14   S    
C70   H52   S    
C62   P7    S    
C44   H84   S    
C84   C88   S    
C74   O63   S    
C8    H56   S    
C43   H82   S    
C9    H57   S    
C31   C40   A    
O19   P5    D    
C72   S1    S    
C82   H15   S    
C15   C90   A    
C38   H68   S    
C49   H66   S    
O11   P10   S    
Ba2   P13   S    
O15   P5    S    
O50   S1    D    
C41   H85   S    
C32   C56   A    
C76   H10   S    
Ba2   O6    S    
O1    P1    D    
C9    C11   A    
C73   O45   S    
C82   H20   S    
C26   P15   S    
O33   P14   D    
C3    H3    S    
C27   P14   S    
O14   P6    S    
C91   O28   S    
O56   P13   S    
O62   P14   S    
O39   P4    S    
Ba3   Ba4   S    
C1    C98   S    
O34   P11   D    
H6    O58   S    
C26   C65   A    
C32   C46   A    
C40   C47   A    
O42   P3    D    
C85   H23   S    
C41   O64   S    
C17   C21   A    
C70   H91   S    
O38   P3    S    
C24   H43   S    
C49   C53   A    
Ba4   O35   S    
C23   C28   A    
C30   C34   A    
O27   P6    S    
O55   S3    D    
C2    C55   A    
Ba2   O5    S    
C81   O22   S    
C72   C76   S    
C43   C70   S    
C99   H103  S    
C74   C78   S    
C4    C17   A    
C48   H65   S    
Ba1   P12   S    
C1    C89   S    
C59   P6    S    
O36   P16   S    
C87   H25   S    
O64   P16   S    
C84   O26   S    
O31   P12   D    
C75   S4    S    
C85   H27   S    
C86   H24   S    
C18   P11   S    
C83   O25   S    
C82   O24   S    
C73   S2    S    
C89   O27   S    
C31   C36   A    
C8    C10   A    
C64   C95   A    
C78   H12   S    
C83   H16   S    
C12   H60   S    
C89   H36   S    
C75   H101  S    
C4    C56   A    
Ba1   O5    S    
C39   H69   S    
Ba2   O32   S    
C10   C46   A    
C87   H30   S    
O5    P13   S    
C2    C16   A    
C25   P12   S    
C76   H50   S    
Ba1   Ba2   S    
Ba2   O15   S    
O2    P2    S    
C85   H32   S    
C13   H42   S    
C27   C31   A    
O22   P1    S    
C100  H104  S    
C42   H81   S    
C13   C99   S    
C81   H14   S    
O28   P5    S    
C44   H88   S    
O16   P8    S    
C67   H89   S    
O4    P4    S    
C92   H38   S    
C88   H31   S    
C65   C96   A    
C52   C56   A    
C66   H79   S    
C74   H100  S    
C70   H96   S    
C24   H47   S    
Ba3   O13   S    
O26   P11   S    
C18   C22   A    
O35   P15   D    
Ba1   O6    S    
O57   S3    D    
C99   O46   D    
C3    C35   S    
O41   P2    D    
C97   P3    S    
O58   S3    S    
C6    C12   A    
C67   H49   S    
H5    O54   S    
C77   H2    S    
C88   H35   S    
C30   C39   A    
O20   P8    D    
C42   C69   S    
C54   C90   A    
C48   C52   A    
C41   H80   S    
C78   H8    S    
C36   C79   A    
C6    C90   A    
