data_mof_unit_46712.cif
_audit_creation_date              2012-12-10T19:04:43-0500
_audit_creation_method            fapswitch 2.2
_symmetry_space_group_name_H-M    P1
_symmetry_Int_Tables_number       1
_space_group_crystal_system       triclinic
_cell_length_a                    15.873734
_cell_length_b                    10.825734
_cell_length_c                    9.554524
_cell_angle_alpha                 90.229447
_cell_angle_beta                  89.970046
_cell_angle_gamma                 90.117213
_cell_volume                      1641.8786563

loop_
_atom_site_label
_atom_site_type_symbol
_atom_type_description
_atom_site_fract_x
_atom_site_fract_y
_atom_site_fract_z
_atom_type_partial_charge
C1    C     C_R   0.498277 0.262379 0.499706 0.797169
C2    C     C_3   0.083094 0.498754 0.500459 0.088707
C3    C     C_3   0.972174 0.581688 0.598264 -0.211603
C4    C     C_3   0.916828 0.502200 0.499686 0.089160
C5    C     C_3   0.028116 0.611308 0.470931 0.334210
C6    C     C_3   0.972112 0.534614 0.371674 -0.246286
C7    C     C_1   0.174718 0.499103 0.500301 -0.050781
C8    C     C_1   0.825223 0.501676 0.499794 -0.053087
C9    C     C_R   0.487369 0.064401 0.624725 0.126410
C10   C     C_R   0.489631 0.129352 0.499040 -0.098202
C11   C     C_R   0.479991 0.063904 0.372688 -0.218111
C12   C     C_R   0.339877 0.499863 0.500014 0.825876
C13   C     C_R   0.480274 0.935086 0.373022 -0.219189
C14   C     C_R   0.490155 0.870911 0.499724 -0.097841
C15   C     C_R   0.487603 0.937262 0.625182 0.136143
C16   C     C_3   0.544650 0.932548 0.749272 -0.486633
C17   C     C_3   0.544208 0.072686 0.748753 -0.455952
C18   C     C_R   0.572952 0.518375 0.073666 0.266489
C19   C     C_R   0.429694 0.469312 0.074135 -0.089551
C20   C     C_R   0.429670 0.469408 0.925632 -0.084992
C21   C     C_R   0.573064 0.517785 0.926448 0.263879
C22   C     C_3   0.629418 0.627886 0.920946 -0.511522
C23   C     C_R   0.498555 0.737726 0.500106 0.797247
C24   C     C_3   0.628796 0.629063 0.079915 -0.499708
C25   C     C_R   0.660107 0.500282 0.499994 0.826327
C26   C     C_3   0.971800 0.389653 0.529218 0.334339
C27   C     C_3   0.027736 0.419271 0.401889 -0.211071
C28   C     C_1   0.250223 0.499476 0.500132 -0.185176
C29   C     C_1   0.749733 0.501030 0.499909 -0.190724
C30   C     C_3   0.027803 0.466341 0.628475 -0.245736
Cu1   Cu    Cu3+1 0.500000 0.499980 0.640670 0.941214
Cu2   Cu    Cu3+1 0.500000 0.500020 0.359330 0.940089
H1    H     H_    0.051108 0.351677 0.323367 0.140467
H2    H     H_    0.607320 0.892525 0.723959 0.194368
H3    H     H_    0.512042 0.113461 0.841334 0.198890
H4    H     H_    0.606543 0.113932 0.723281 0.198356
H5    H     H_    0.372343 0.445612 0.128707 0.147160
H6    H     H_    0.372297 0.445832 0.870938 0.147892
H7    H     H_    0.692137 0.605383 0.875910 0.197916
H8    H     H_    0.598060 0.709149 0.874200 0.211129
H9    H     H_    0.691251 0.607571 0.126277 0.199168
H10   H     H_    0.596758 0.711205 0.125390 0.211173
H11   H     H_    0.948740 0.564805 0.267825 0.142600
H12   H     H_    0.948769 0.649242 0.676798 0.140039
H13   H     H_    0.051152 0.436159 0.732336 0.142764
H14   H     H_    0.476465 0.111504 0.273400 0.166230
H15   H     H_    0.476890 0.886532 0.273860 0.164975
H16   H     H_    0.512738 0.892893 0.842450 0.198397
N1    N     N_R   0.500530 0.500930 0.147930 -0.186501
N2    N     N_R   0.500530 0.500890 0.852020 -0.185401
O1    O     O_R   0.500000 0.319640 0.618810 -0.578787
O2    O     O_R   0.500010 0.319680 0.381230 -0.583821
O3    O     O_R   0.379070 0.499970 0.618770 -0.583776
O4    O     O_R   0.379080 0.500010 0.381190 -0.586355
O5    O     O_R   0.499990 0.680320 0.618770 -0.575312
O6    O     O_R   0.500000 0.680360 0.381190 -0.584363
O7    O     O_R   0.620920 0.499990 0.618810 -0.579683
O8    O     O_R   0.620930 0.500030 0.381230 -0.574600
N3    N     N_2   0.937852 0.268931 0.561480 -0.425817
H17   H     H_    0.894019 0.271272 0.641108 0.247169
C31   C     C_3   0.000072 0.173018 0.579345 -0.702305
H18   H     H_    0.967827 0.083418 0.597390 0.228108
H19   H     H_    0.040859 0.194050 0.670885 0.221491
H20   H     H_    0.039515 0.164100 0.483829 0.232953
N4    N     N_2   0.062081 0.732002 0.438577 -0.424915
H21   H     H_    0.105601 0.729677 0.358507 0.248653
C32   C     C_3   0.999942 0.828069 0.421588 -0.701871
H22   H     H_    0.032220 0.917558 0.402800 0.228715
H23   H     H_    0.961127 0.837260 0.517749 0.232200
H24   H     H_    0.958537 0.806994 0.330829 0.221603

loop_
_geom_bond_atom_site_label_1
_geom_bond_atom_site_label_2
_ccdc_geom_bond_type
C14   C23   S    
C15   C16   S    
C3    C30   S    
C4    C26   S    
C23   O5    A    
C2    C27   S    
C19   H5    S    
C17   H4    S    
C31   H20   S    
C18   C21   A    
C11   C13   A    
C26   N3    S    
C19   N1    A    
C30   H13   S    
C6    C27   S    
Cu2   O8    S    
C2    C30   S    
C32   H24   S    
C22   H8    S    
C16   H16   S    
C5    N4    S    
Cu1   O5    S    
C9    C15   A    
C23   O6    A    
C12   O4    A    
C21   C22   S    
C27   H1    S    
C25   O8    A    
C24   H9    S    
C1    O1    A    
Cu1   O7    S    
C26   C27   S    
C31   H18   S    
C12   O3    A    
C25   O7    A    
C12   C28   S    
C18   C24   S    
C22   H7    S    
C24   H10   S    
C9    C17   S    
C21   N2    A    
C26   C30   S    
C6    H11   S    
C25   C29   S    
C5    C6    S    
C3    H12   S    
C1    O2    A    
C22   C24   S    
Cu2   N1    S    
N3    C31   S    
C2    C5    S    
N4    C32   S    
C10   C11   A    
C8    C29   T    
Cu1   N2    S    
C32   H22   S    
C3    C5    S    
N3    H17   S    
C20   H6    S    
C3    C4    S    
C4    C6    S    
N4    H21   S    
C9    C10   A    
Cu2   O4    S    
C4    C8    S    
C31   H19   S    
C14   C15   A    
Cu2   O2    S    
C11   H14   S    
C20   N2    A    
C17   H3    S    
C2    C7    S    
C16   H2    S    
C13   C14   A    
C13   H15   S    
C1    C10   S    
Cu2   O6    S    
Cu1   Cu2   S    
Cu1   O3    S    
C7    C28   T    
C19   C20   A    
C18   N1    A    
Cu1   O1    S    
C16   C17   S    
C32   H23   S    
