data_mof_unit_32611.cif
_audit_creation_date              2012-10-26T19:02:56-0400
_audit_creation_method            fapswitch 2.2
_symmetry_space_group_name_H-M    P1
_symmetry_Int_Tables_number       1
_space_group_crystal_system       triclinic
_cell_length_a                    15.079186
_cell_length_b                    11.061756
_cell_length_c                    9.912131
_cell_angle_alpha                 111.560219
_cell_angle_beta                  99.278281
_cell_angle_gamma                 90.613043
_cell_volume                      1513.1523183

loop_
_atom_site_label
_atom_site_type_symbol
_atom_type_description
_atom_site_fract_x
_atom_site_fract_y
_atom_site_fract_z
_atom_type_partial_charge
C1    C     C_R   0.493437 0.254022 0.440353 0.556072
C2    C     C_2   0.502314 0.477519 0.914310 -0.010554
C3    C     C_R   0.328713 0.501058 0.500515 0.547554
C4    C     C_R   0.671318 0.500409 0.499999 0.546893
C5    C     C_R   0.802030 0.511872 0.380985 -0.137649
C6    C     C_R   0.198142 0.492747 0.621213 -0.137138
C7    C     C_R   0.768239 0.501541 0.500444 -0.014636
C8    C     C_R   0.231951 0.503535 0.501916 -0.014214
C9    C     C_R   0.827265 0.492929 0.620905 -0.141677
C10   C     C_R   0.173146 0.517207 0.384296 -0.141777
C11   C     C_R   0.919830 0.493449 0.622210 0.011976
C12   C     C_R   0.506604 0.745980 0.559655 0.555924
C13   C     C_R   0.080607 0.516553 0.382949 0.012850
C14   C     C_R   0.953660 0.504064 0.502018 0.061091
C15   C     C_R   0.046722 0.504740 0.502503 0.061103
C16   C     C_R   0.894518 0.513856 0.381255 0.013003
C17   C     C_R   0.105813 0.493636 0.622538 0.012542
C18   C     C_R   0.979061 0.483276 0.741428 -0.134366
C19   C     C_R   0.021439 0.527282 0.264004 -0.134468
C20   C     C_3   0.608075 0.654435 0.970012 -0.115974
C21   C     C_3   0.642299 0.759570 0.921799 -0.354012
C22   C     C_3   0.392794 0.343957 0.030452 -0.115097
C23   C     C_R   0.071555 0.483043 0.741420 -0.134239
C24   C     C_3   0.317968 0.298992 0.091680 -0.352229
C25   C     C_R   0.928844 0.525535 0.262954 -0.134432
C26   C     C_2   0.489914 0.114280 0.406868 -0.133328
C27   C     C_2   0.510228 0.885731 0.593191 -0.133838
C28   C     C_2   0.501665 0.069683 0.516228 -0.160857
C29   C     C_2   0.498579 0.930356 0.483858 -0.159228
C30   C     C_2   0.514790 0.497383 0.079835 -0.009592
Cu1   Cu    Cu3+1 0.515770 0.521810 0.644910 0.925468
Cu2   Cu    Cu3+1 0.484230 0.478190 0.355090 0.925729
H1    H     H_    0.756507 0.519555 0.288380 0.115529
H2    H     H_    0.513713 0.136244 0.630970 0.150621
H3    H     H_    0.522336 0.952516 0.707763 0.091388
H4    H     H_    0.477792 0.047470 0.292307 0.096533
H5    H     H_    0.458544 0.396685 0.833360 0.127244
H6    H     H_    0.570612 0.560843 0.156704 0.126984
H7    H     H_    0.671223 0.719659 0.820454 0.190745
H8    H     H_    0.588846 0.825763 0.912950 0.156642
H9    H     H_    0.697725 0.820980 0.009398 0.083614
H10   H     H_    0.579606 0.711046 0.069539 0.101056
H11   H     H_    0.667294 0.605615 0.002665 0.104058
H12   H     H_    0.243514 0.482622 0.712528 0.121043
H13   H     H_    0.342978 0.258788 0.175907 0.192195
H14   H     H_    0.273534 0.378521 0.131923 0.148964
H15   H     H_    0.275131 0.218867 0.000094 0.084085
H16   H     H_    0.355042 0.381575 0.949942 0.096257
H17   H     H_    0.427364 0.257045 0.970685 0.111178
H18   H     H_    0.801194 0.484610 0.713157 0.124689
H19   H     H_    0.199255 0.529695 0.294344 0.115980
H20   H     H_    0.953832 0.475121 0.834364 0.103166
H21   H     H_    0.046737 0.536321 0.171536 0.102929
H22   H     H_    0.116265 0.474595 0.834269 0.102377
H23   H     H_    0.884110 0.533359 0.169770 0.101182
H24   H     H_    0.486560 0.863806 0.369115 0.155128
N1    N     N_2   0.460520 0.445420 0.137370 -0.218266
N2    N     N_2   0.539480 0.554580 0.862630 -0.217511
O1    O     O_R   0.508410 0.332340 0.577400 -0.503396
O2    O     O_R   0.491590 0.667660 0.422600 -0.496094
O3    O     O_R   0.481780 0.295500 0.332650 -0.501975
O4    O     O_R   0.518220 0.704500 0.667350 -0.503216
O5    O     O_R   0.383570 0.518390 0.622380 -0.499275
O6    O     O_R   0.616430 0.481610 0.377620 -0.506973
O7    O     O_R   0.356940 0.481550 0.377630 -0.508351
O8    O     O_R   0.643060 0.518450 0.622370 -0.509431

loop_
_geom_bond_atom_site_label_1
_geom_bond_atom_site_label_2
_ccdc_geom_bond_type
C2    H5    S    
Cu1   O8    S    
C22   H16   S    
C2    N2    D    
C11   C18   A    
C29   H24   S    
C3    O5    A    
C27   C29   D    
C12   O4    A    
C4    O6    A    
C20   H10   S    
Cu1   Cu2   S    
C21   H7    S    
C2    C30   S    
C24   H14   S    
C27   H3    S    
C19   H21   S    
C22   N1    S    
C1    O1    A    
C18   H20   S    
C6    H12   S    
C26   C28   D    
C4    O8    A    
C9    C11   A    
Cu1   O4    S    
Cu2   O6    S    
C3    O7    A    
C21   H8    S    
C17   C23   A    
C22   H17   S    
C21   H9    S    
C24   H13   S    
Cu2   N1    S    
Cu1   N2    S    
C26   H4    S    
C28   C29   S    
Cu2   O3    S    
C22   C24   S    
C13   C15   A    
C1    C26   S    
C19   C25   A    
C11   C14   A    
C14   C16   A    
Cu2   O2    S    
C12   C27   S    
C28   H2    S    
C18   C23   A    
C12   O2    A    
C30   N1    D    
Cu1   O5    S    
C10   H19   S    
C20   H11   S    
C20   C21   S    
C30   H6    S    
C23   H22   S    
C15   C17   A    
C3    C8    S    
Cu1   O1    S    
C16   C25   A    
C7    C9    A    
C6    C17   A    
C13   C19   A    
C5    C7    A    
C5    C16   A    
C6    C8    A    
C4    C7    S    
C14   C15   A    
C24   H15   S    
C20   N2    S    
C8    C10   A    
C9    H18   S    
C25   H23   S    
C1    O3    A    
Cu2   O7    S    
C10   C13   A    
C5    H1    S    
