data_mof_unit_64238.cif
_audit_creation_date              2012-12-10T19:10:31-0500
_audit_creation_method            fapswitch 2.2
_symmetry_space_group_name_H-M    P1
_symmetry_Int_Tables_number       1
_space_group_crystal_system       triclinic
_cell_length_a                    30.378257
_cell_length_b                    30.379582
_cell_length_c                    35.479791
_cell_angle_alpha                 90.03927
_cell_angle_beta                  90.026337
_cell_angle_gamma                 90.009864
_cell_volume                      32743.5335152

loop_
_atom_site_label
_atom_site_type_symbol
_atom_type_description
_atom_site_fract_x
_atom_site_fract_y
_atom_site_fract_z
_atom_type_partial_charge
C1    C     C_R   0.086420 0.500005 0.499997 1.031371
C2    C     C_R   0.499996 0.913579 0.500042 1.031956
C3    C     C_R   0.913581 0.499997 0.499990 1.031486
C4    C     C_R   0.500006 0.086419 0.499963 1.031635
C5    C     C_R   0.586419 0.000003 0.000013 1.032029
C6    C     C_R   0.999995 0.413582 0.999999 1.031834
C7    C     C_R   0.413584 0.999982 0.999908 1.031863
C8    C     C_R   0.000003 0.586418 0.000014 1.031768
C9    C     C_R   0.134836 0.500024 0.499977 -0.227819
C10   C     C_R   0.499985 0.865162 0.500113 -0.227526
C11   C     C_R   0.865166 0.499991 0.499957 -0.227817
C12   C     C_R   0.500027 0.134831 0.499906 -0.229016
C13   C     C_R   0.634833 0.000013 0.999997 -0.229024
C14   C     C_R   0.999974 0.365170 0.000011 -0.228614
C15   C     C_R   0.365176 0.999895 0.999784 -0.219484
C16   C     C_R   0.000007 0.634829 0.000047 -0.229147
C17   C     C_R   0.226574 0.500071 0.499945 0.091123
C18   C     C_R   0.499954 0.773422 0.500165 0.090674
C19   C     C_R   0.773430 0.499979 0.499932 0.090745
C20   C     C_R   0.500071 0.226567 0.499857 0.089314
C21   C     C_R   0.726570 0.000033 0.999940 0.089027
C22   C     C_R   0.999927 0.273439 0.000053 0.089631
C23   C     C_R   0.273448 0.999651 0.999757 0.086764
C24   C     C_R   0.000012 0.726561 0.000073 0.088675
C25   C     C_R   0.296756 0.485230 0.467699 0.239295
C26   C     C_R   0.484865 0.703223 0.467934 0.312162
C27   C     C_R   0.703194 0.514725 0.467709 0.238327
C28   C     C_R   0.515377 0.296778 0.467806 0.337862
C29   C     C_R   0.296791 0.514971 0.532196 0.312296
C30   C     C_R   0.484815 0.296754 0.532010 0.313889
C31   C     C_R   0.703271 0.485270 0.532264 0.312243
C32   C     C_R   0.515029 0.703215 0.532284 0.239327
C33   C     C_R   0.796763 0.984890 0.967807 0.312578
C34   C     C_R   0.985166 0.203216 0.967761 0.338169
C35   C     C_R   0.203195 0.015187 0.967902 0.316756
C36   C     C_R   0.014704 0.796697 0.967705 0.338019
C37   C     C_R   0.796778 0.015194 0.032124 0.338197
C38   C     C_R   0.985251 0.796814 0.032275 0.312297
C39   C     C_R   0.203345 0.983863 0.031853 0.246877
C40   C     C_R   0.014611 0.203272 0.032357 0.312677
C41   C     C_R   0.342244 0.478233 0.470554 0.206475
C42   C     C_R   0.477947 0.657724 0.470775 0.236198
C43   C     C_R   0.657718 0.521746 0.470583 0.204751
C44   C     C_R   0.522235 0.342291 0.470733 0.307330
C45   C     C_R   0.342284 0.521924 0.529348 0.236140
C46   C     C_R   0.477902 0.342252 0.529143 0.229665
C47   C     C_R   0.657773 0.478293 0.529454 0.230173
C48   C     C_R   0.521986 0.657726 0.529367 0.205530
C49   C     C_R   0.842258 0.977960 0.970707 0.229070
C50   C     C_R   0.978203 0.157724 0.970582 0.301619
C51   C     C_R   0.157728 0.022172 0.970931 0.226183
C52   C     C_R   0.021661 0.842206 0.970484 0.302236
C53   C     C_R   0.842282 0.022094 0.029264 0.302198
C54   C     C_R   0.978232 0.842284 0.029390 0.229151
C55   C     C_R   0.157745 0.977291 0.029045 0.278897
C56   C     C_R   0.021623 0.157785 0.029528 0.235236
C57   C     C_R   0.365476 0.500052 0.499965 -0.333081
C58   C     C_R   0.499979 0.634519 0.500049 -0.333515
C59   C     C_R   0.634529 0.500014 0.500022 -0.333636
C60   C     C_R   0.500045 0.365475 0.499951 -0.370643
C61   C     C_R   0.865476 0.000023 0.999987 -0.371475
C62   C     C_R   0.999945 0.134536 0.000041 -0.371739
C63   C     C_R   0.134540 0.999846 0.000032 -0.356868
C64   C     C_R   0.999963 0.865463 0.999944 -0.371008
C65   C     C_R   0.274200 0.500096 0.499946 -0.237872
C66   C     C_R   0.499937 0.725794 0.500131 -0.237538
C67   C     C_R   0.725806 0.499976 0.499964 -0.236205
C68   C     C_R   0.500088 0.274196 0.499888 -0.275025
C69   C     C_R   0.774198 0.000045 0.999956 -0.273405
C70   C     C_R   0.999902 0.225815 0.000056 -0.274283
C71   C     C_R   0.225826 0.999531 0.999840 -0.250003
C72   C     C_R   0.000008 0.774185 0.000022 -0.273137
C73   C     C_R   0.499998 0.586477 0.500013 1.060639
C74   C     C_R   0.586481 0.500001 0.500009 1.058353
C75   C     C_R   0.500007 0.413522 0.499986 1.065624
C76   C     C_R   0.413521 0.500011 0.499990 1.060863
C77   C     C_R   0.999991 0.086483 0.000013 1.065847
C78   C     C_R   0.086483 0.999968 0.000013 1.062038
C79   C     C_R   0.999990 0.913517 0.999982 1.064748
C80   C     C_R   0.913522 0.000007 0.999995 1.063479
C81   C     C_R   1.000000 0.499986 0.426876 1.047200
C82   C     C_R   0.499988 0.999905 0.426873 1.047505
C83   C     C_R   0.000005 0.500014 0.573123 1.047472
C84   C     C_R   0.500009 0.000013 0.573125 1.047292
C85   C     C_R   0.500014 0.999988 0.926874 1.047281
C86   C     C_R   0.999991 0.499995 0.926876 1.047187
C87   C     C_R   0.500011 0.000030 0.073124 1.045144
C88   C     C_R   0.000009 0.499999 0.073124 1.047117
C89   C     C_R   0.993632 0.539855 0.173571 0.330646
C90   C     C_R   0.539877 0.005510 0.173626 0.327956
C91   C     C_R   0.006323 0.460226 0.173559 0.330416
C92   C     C_R   0.460293 0.992595 0.173472 0.311083
C93   C     C_R   0.993561 0.460138 0.826421 0.330295
C94   C     C_R   0.539834 0.993298 0.826453 0.330506
C95   C     C_R   0.006476 0.539735 0.826445 0.330302
C96   C     C_R   0.460354 0.006890 0.826401 0.330175
C97   C     C_R   0.493306 0.039862 0.673563 0.330297
C98   C     C_R   0.039850 0.506367 0.673578 0.330033
C99   C     C_R   0.506883 0.960382 0.673573 0.329360
C100  C     C_R   0.960229 0.493576 0.673551 0.330077
C101  C     C_R   0.493209 0.959398 0.326612 0.330989
C102  C     C_R   0.039736 0.493445 0.326427 0.329653
C103  C     C_R   0.506733 0.038889 0.326235 0.328933
C104  C     C_R   0.960178 0.506571 0.326435 0.329533
C105  C     C_R   0.994642 0.540424 0.133900 0.312285
C106  C     C_R   0.540442 0.005051 0.133939 0.312427
C107  C     C_R   0.005404 0.459628 0.133885 0.312585
C108  C     C_R   0.459576 0.994997 0.133868 0.267933
C109  C     C_R   0.994503 0.459576 0.866095 0.312517
C110  C     C_R   0.540403 0.994236 0.866127 0.312269
C111  C     C_R   0.005466 0.540348 0.866116 0.312493
C112  C     C_R   0.459714 0.005767 0.866067 0.313188
C113  C     C_R   0.494299 0.040423 0.633892 0.312131
C114  C     C_R   0.040417 0.505459 0.633903 0.312231
C115  C     C_R   0.505803 0.959734 0.633905 0.310292
C116  C     C_R   0.959626 0.494605 0.633881 0.312056
C117  C     C_R   0.494210 0.959102 0.366285 0.311206
C118  C     C_R   0.040342 0.494382 0.366102 0.310285
C119  C     C_R   0.505678 0.039798 0.365904 0.313334
C120  C     C_R   0.959599 0.505525 0.366104 0.310481
C121  C     C_R   0.000029 0.500018 0.114345 -0.398091
C122  C     C_R   0.499999 0.000129 0.114346 -0.381040
C123  C     C_R   0.999975 0.499974 0.885653 -0.398318
C124  C     C_R   0.500041 0.999969 0.885648 -0.398128
C125  C     C_R   0.500032 0.000056 0.614348 -0.397629
C126  C     C_R   0.000014 0.500042 0.614345 -0.398363
C127  C     C_R   0.499952 0.999600 0.385646 -0.398351
C128  C     C_R   0.999979 0.499952 0.385652 -0.397027
C129  C     C_R   0.999959 0.500048 0.192835 -0.238868
C130  C     C_R   0.500089 0.998741 0.192827 -0.222094
C131  C     C_R   0.000034 0.499925 0.807162 -0.238813
C132  C     C_R   0.500109 0.000132 0.807157 -0.239097
C133  C     C_R   0.500114 0.000142 0.692838 -0.239510
C134  C     C_R   0.000047 0.499945 0.692836 -0.239055
C135  C     C_R   0.499979 0.998992 0.307152 -0.238971
C136  C     C_R   0.999950 0.500031 0.307160 -0.239595
C137  C     C_1   0.999937 0.500062 0.233149 0.257137
C138  C     C_1   0.500023 0.998565 0.233139 0.254876
C139  C     C_1   0.000052 0.499907 0.766847 0.256958
C140  C     C_1   0.500131 0.000171 0.766845 0.256924
C141  C     C_1   0.500131 0.000175 0.733150 0.256200
C142  C     C_1   0.000056 0.499914 0.733150 0.256719
C143  C     C_1   0.499995 0.998685 0.266836 0.256542
C144  C     C_1   0.999935 0.500058 0.266846 0.255999
C145  C     C_R   0.204157 0.539800 0.498292 -0.074430
C146  C     C_R   0.539690 0.795817 0.498266 -0.067940
C147  C     C_R   0.795829 0.460234 0.498373 -0.075416
C148  C     C_R   0.460361 0.204171 0.497526 -0.068797
C149  C     C_R   0.204186 0.460317 0.501591 -0.068498
C150  C     C_R   0.539761 0.204156 0.502182 -0.060259
C151  C     C_R   0.795833 0.539732 0.501468 -0.067486
C152  C     C_R   0.460236 0.795835 0.502086 -0.074918
C153  C     C_R   0.704163 0.039742 0.997884 -0.061077
C154  C     C_R   0.039687 0.295824 0.998469 -0.069027
C155  C     C_R   0.295938 0.960044 0.997056 -0.051725
C156  C     C_R   0.960264 0.704154 0.998450 -0.068606
C157  C     C_R   0.704172 0.960313 0.002019 -0.068505
C158  C     C_R   0.039756 0.704167 0.001703 -0.061085
C159  C     C_R   0.295758 0.039386 0.002417 -0.081703
C160  C     C_R   0.960193 0.295855 0.001616 -0.061260
C161  C     C_R   0.158629 0.540394 0.498211 0.389349
C162  C     C_R   0.540319 0.841346 0.498120 0.386043
C163  C     C_R   0.841357 0.459622 0.498295 0.389553
C164  C     C_R   0.459733 0.158641 0.497390 0.387269
C165  C     C_R   0.158656 0.459678 0.501711 0.385763
C166  C     C_R   0.540348 0.158628 0.502364 0.382411
C167  C     C_R   0.841361 0.540355 0.501578 0.385619
C168  C     C_R   0.459638 0.841364 0.502180 0.389527
C169  C     C_R   0.658633 0.040344 0.997783 0.382631
C170  C     C_R   0.040327 0.341351 0.998353 0.387211
C171  C     C_R   0.341464 0.959560 0.996883 0.391093
C172  C     C_R   0.959644 0.658629 0.998338 0.387514
C173  C     C_R   0.658642 0.959691 0.002179 0.387320
C174  C     C_R   0.040370 0.658640 0.001791 0.382069
C175  C     C_R   0.341290 0.040112 0.002576 0.393538
C176  C     C_R   0.959598 0.341380 0.001689 0.382047
H1    H     H_    0.222392 0.570439 0.496790 0.197553
H2    H     H_    0.570302 0.777565 0.496586 0.199761
H3    H     H_    0.777581 0.429595 0.496957 0.197995
H4    H     H_    0.429777 0.222421 0.495493 0.199821
H5    H     H_    0.222443 0.429695 0.503068 0.199436
H6    H     H_    0.570360 0.222394 0.504204 0.208863
H7    H     H_    0.777589 0.570367 0.502869 0.199725
H8    H     H_    0.429613 0.777598 0.503796 0.197565
H9    H     H_    0.722403 0.070351 0.996057 0.209663
H10   H     H_    0.070313 0.277567 0.997045 0.199557
H11   H     H_    0.277764 0.929434 0.994748 0.206931
H12   H     H_    0.929631 0.722394 0.996974 0.199869
H13   H     H_    0.722421 0.929712 0.003834 0.199932
H14   H     H_    0.070391 0.722416 0.003173 0.210119
H15   H     H_    0.277442 0.069905 0.004711 0.195650
H16   H     H_    0.929548 0.277623 0.003054 0.209786
O1    O     O_R   0.065400 0.463120 0.500070 -0.560194
O2    O     O_R   0.463120 0.934600 0.500070 -0.560224
O3    O     O_R   0.934600 0.536880 0.500070 -0.560234
O4    O     O_R   0.536880 0.065400 0.500070 -0.560808
O5    O     O_R   0.065400 0.536880 0.499930 -0.560434
O6    O     O_R   0.463120 0.065400 0.499930 -0.560446
O7    O     O_R   0.934600 0.463120 0.499930 -0.560412
O8    O     O_R   0.536880 0.934600 0.499930 -0.560381
O9    O     O_R   0.565400 0.963120 0.000070 -0.559999
O10   O     O_R   0.963120 0.434600 0.000070 -0.560508
O11   O     O_R   0.434600 0.036880 0.000070 -0.557933
O12   O     O_R   0.036880 0.565400 0.000070 -0.560411
O13   O     O_R   0.565400 0.036880 0.999930 -0.560675
O14   O     O_R   0.963120 0.565400 0.999930 -0.560418
O15   O     O_R   0.434600 0.963120 0.999930 -0.564685
O16   O     O_R   0.036880 0.434600 0.999930 -0.560328
O17   O     O_R   0.999940 0.463120 0.444630 -0.578410
O18   O     O_R   0.463120 0.000060 0.444630 -0.578071
O19   O     O_R   0.000060 0.536880 0.444630 -0.578283
O20   O     O_R   0.536880 0.999940 0.444630 -0.578670
O21   O     O_R   0.999940 0.536880 0.555370 -0.578275
O22   O     O_R   0.463120 0.999940 0.555370 -0.578567
O23   O     O_R   0.000060 0.463120 0.555370 -0.578497
O24   O     O_R   0.536880 0.000060 0.555370 -0.578145
O25   O     O_R   0.499940 0.963120 0.944630 -0.577450
O26   O     O_R   0.963120 0.500060 0.944630 -0.578171
O27   O     O_R   0.500060 0.036880 0.944630 -0.578854
O28   O     O_R   0.036880 0.499940 0.944630 -0.578398
O29   O     O_R   0.499940 0.036880 0.055370 -0.576682
O30   O     O_R   0.963120 0.499940 0.055370 -0.578411
O31   O     O_R   0.500060 0.963120 0.055370 -0.582559
O32   O     O_R   0.036880 0.500060 0.055370 -0.578025
O33   O     O_R   0.499910 0.565560 0.468780 -0.566383
O34   O     O_R   0.565560 0.500090 0.468780 -0.571868
O35   O     O_R   0.500090 0.434440 0.468780 -0.566573
O36   O     O_R   0.434440 0.499910 0.468780 -0.569939
O37   O     O_R   0.499910 0.434440 0.531220 -0.567312
O38   O     O_R   0.565560 0.499910 0.531220 -0.567110
O39   O     O_R   0.500090 0.565560 0.531220 -0.570423
O40   O     O_R   0.434440 0.500090 0.531220 -0.567384
O41   O     O_R   0.999910 0.065560 0.968780 -0.567579
O42   O     O_R   0.065560 0.000090 0.968780 -0.568701
O43   O     O_R   0.000090 0.934440 0.968780 -0.567770
O44   O     O_R   0.934440 0.999910 0.968780 -0.569078
O45   O     O_R   0.999910 0.934440 0.031220 -0.567549
O46   O     O_R   0.065560 0.999910 0.031220 -0.569767
O47   O     O_R   0.000090 0.065560 0.031220 -0.568360
O48   O     O_R   0.934440 0.000090 0.031220 -0.567740
Zn1   Zn    Zn3+2 0.000000 0.450720 0.500000 1.250065
Zn2   Zn    Zn3+2 0.450720 1.000000 0.500000 1.250090
Zn3   Zn    Zn3+2 0.000000 0.549280 0.500000 1.250609
Zn4   Zn    Zn3+2 0.549280 1.000000 0.500000 1.250469
Zn5   Zn    Zn3+2 0.500000 0.950720 0.000000 1.250469
Zn6   Zn    Zn3+2 0.950720 0.500000 0.000000 1.251334
Zn7   Zn    Zn3+2 0.500000 0.049280 0.000000 1.249539
Zn8   Zn    Zn3+2 0.049280 0.500000 0.000000 1.251382
Zn9   Zn    Zn3+2 0.500000 0.500000 0.458280 1.282214
Zn10  Zn    Zn3+2 0.500000 0.500000 0.541720 1.287214
Zn11  Zn    Zn3+2 1.000000 1.000000 0.958280 1.283331
Zn12  Zn    Zn3+2 0.000000 1.000000 0.041720 1.281347
Cl1   Cl    Cl    0.984121 0.588055 0.200453 -0.361486
Cl2   Cl    Cl    0.588087 0.014572 0.200609 -0.366254
Cl3   Cl    Cl    0.015719 0.412036 0.200435 -0.363770
Cl4   Cl    Cl    0.412394 0.980798 0.200037 -0.392910
Cl5   Cl    Cl    0.983986 0.411953 0.799526 -0.364611
Cl6   Cl    Cl    0.587930 0.983281 0.799605 -0.361909
Cl7   Cl    Cl    0.016128 0.587884 0.799583 -0.364609
Cl8   Cl    Cl    0.412316 0.017106 0.799504 -0.363990
Cl9   Cl    Cl    0.483223 0.087956 0.700430 -0.363235
Cl10  Cl    Cl    0.088052 0.515818 0.700479 -0.363946
Cl11  Cl    Cl    0.517036 0.912345 0.700450 -0.354793
Cl12  Cl    Cl    0.912058 0.483983 0.700408 -0.362926
Cl13  Cl    Cl    0.483205 0.911112 0.299961 -0.357111
Cl14  Cl    Cl    0.087867 0.483750 0.299538 -0.355209
Cl15  Cl    Cl    0.516872 0.086758 0.299143 -0.370085
Cl16  Cl    Cl    0.912042 0.516413 0.299568 -0.356431
S1    S     S_3+6 0.990310 0.590668 0.107756 0.105419
O49   O     O_2   0.030141 0.594610 0.082911 -0.292888
O50   O     O_2   0.949858 0.588336 0.083432 -0.272513
O51   O     O_3   0.987250 0.636455 0.134243 -0.400160
H17   H     H_    0.979535 0.660263 0.116365 0.418852
S2    S     S_3+6 0.590685 0.009634 0.107817 0.103881
O52   O     O_2   0.594908 0.969727 0.083062 -0.289878
O53   O     O_2   0.588112 0.049958 0.083397 -0.276864
O54   O     O_3   0.636423 0.013164 0.134322 -0.401038
H18   H     H_    0.660112 0.021421 0.116507 0.417990
S3    S     S_3+6 0.009822 0.409369 0.107715 0.104937
O55   O     O_2   0.969944 0.405291 0.082906 -0.293133
O56   O     O_2   0.050209 0.411795 0.083354 -0.272683
O57   O     O_3   0.013089 0.363614 0.134173 -0.401090
H19   H     H_    0.020891 0.339826 0.116282 0.418771
S4    S     S_3+6 0.409069 0.992750 0.107887 0.113264
O58   O     O_2   0.407433 0.031437 0.081566 -0.323306
O59   O     O_2   0.408559 0.951240 0.084851 -0.214229
O60   O     O_3   0.363234 0.993777 0.134437 -0.375435
H20   H     H_    0.357717 0.025339 0.139664 0.397882
S5    S     S_3+6 0.990009 0.409346 0.892240 0.104897
O61   O     O_2   0.029857 0.405265 0.917077 -0.293021
O62   O     O_2   0.949600 0.411819 0.916573 -0.272639
O63   O     O_3   0.986731 0.363570 0.865754 -0.401202
H21   H     H_    0.978847 0.339808 0.883618 0.418027
S6    S     S_3+6 0.590617 0.989508 0.892308 0.105300
O64   O     O_2   0.594907 0.029364 0.917118 -0.293723
O65   O     O_2   0.587951 0.949139 0.916664 -0.271850
O66   O     O_3   0.636367 0.985991 0.865854 -0.400593
H22   H     H_    0.660094 0.977996 0.883737 0.418851
S7    S     S_3+6 0.009915 0.590612 0.892278 0.105075
O67   O     O_2   0.970087 0.594670 0.917115 -0.292427
O68   O     O_2   0.050353 0.588218 0.916611 -0.273038
O69   O     O_3   0.013097 0.636361 0.865805 -0.401053
H23   H     H_    0.021192 0.660115 0.883642 0.418115
S8    S     S_3+6 0.409452 0.010355 0.892158 0.104330
O70   O     O_2   0.405278 0.970525 0.916961 -0.294038
O71   O     O_2   0.411935 0.050774 0.916519 -0.273736
O72   O     O_3   0.363729 0.013636 0.865616 -0.401022
H24   H     H_    0.339960 0.021663 0.883437 0.418604
S9    S     S_3+6 0.489619 0.090631 0.607745 0.105258
O73   O     O_2   0.529429 0.094829 0.582909 -0.292565
O74   O     O_2   0.449188 0.088041 0.583413 -0.273070
O75   O     O_3   0.486270 0.136395 0.634236 -0.400366
H25   H     H_    0.478221 0.160122 0.616388 0.418744
S10   S     S_3+6 0.090655 0.509934 0.607755 0.104895
O76   O     O_2   0.094744 0.470065 0.582937 -0.292763
O77   O     O_2   0.088184 0.550318 0.583402 -0.273331
O78   O     O_3   0.136429 0.513248 0.634235 -0.400418
H26   H     H_    0.160202 0.521068 0.616356 0.418799
S11   S     S_3+6 0.510435 0.909471 0.607775 0.106494
O79   O     O_2   0.470608 0.905236 0.582927 -0.294692
O80   O     O_2   0.550852 0.912001 0.583457 -0.272363
O81   O     O_3   0.513781 0.863762 0.634284 -0.390326
H27   H     H_    0.522081 0.840047 0.616488 0.424857
S12   S     S_3+6 0.909361 0.490232 0.607717 0.105269
O82   O     O_2   0.905382 0.530049 0.582869 -0.292740
O83   O     O_2   0.911691 0.449775 0.583396 -0.272960
O84   O     O_3   0.863595 0.487149 0.634188 -0.399819
H28   H     H_    0.839803 0.479247 0.616327 0.419016
S13   S     S_3+6 0.489549 0.909056 0.392653 0.104988
O85   O     O_2   0.529478 0.904933 0.417386 -0.292971
O86   O     O_2   0.449242 0.911871 0.417083 -0.273586
O87   O     O_3   0.485952 0.863135 0.366381 -0.399482
H29   H     H_    0.477649 0.839591 0.384318 0.419033
S14   S     S_3+6 0.090587 0.489788 0.392257 0.106489
O88   O     O_2   0.094815 0.529672 0.417048 -0.294494
O89   O     O_2   0.088021 0.449429 0.416635 -0.272445
O90   O     O_3   0.136325 0.486331 0.365780 -0.390171
H30   H     H_    0.160127 0.478671 0.383697 0.424873
S15   S     S_3+6 0.510322 0.090225 0.391814 0.104874
O91   O     O_2   0.470615 0.094505 0.416764 -0.292884
O92   O     O_2   0.550861 0.087946 0.416034 -0.272516
O93   O     O_3   0.513423 0.135781 0.365091 -0.402145
H31   H     H_    0.521375 0.159699 0.382813 0.417808
S16   S     S_3+6 0.909362 0.510007 0.392251 0.106091
O94   O     O_2   0.905319 0.470213 0.417119 -0.295398
O95   O     O_2   0.911790 0.550480 0.416550 -0.271769
O96   O     O_3   0.863588 0.513139 0.365759 -0.391242
H32   H     H_    0.839834 0.521144 0.383602 0.424835
Cl17  Cl    Cl    0.134715 0.593301 0.495470 -0.393499
Cl18  Cl    Cl    0.593210 0.865239 0.494964 -0.390139
Cl19  Cl    Cl    0.865252 0.406695 0.495711 -0.393403
Cl20  Cl    Cl    0.406911 0.134725 0.493511 -0.392043
Cl21  Cl    Cl    0.134772 0.406753 0.504460 -0.391418
Cl22  Cl    Cl    0.593157 0.134706 0.506229 -0.388082
Cl23  Cl    Cl    0.865259 0.593292 0.504157 -0.390155
Cl24  Cl    Cl    0.406767 0.865283 0.505369 -0.393514
Cl25  Cl    Cl    0.634718 0.093196 0.994383 -0.387295
Cl26  Cl    Cl    0.093263 0.365232 0.995716 -0.391656
Cl27  Cl    Cl    0.365490 0.906860 0.992400 -0.381532
Cl28  Cl    Cl    0.906717 0.634727 0.995626 -0.390053
Cl29  Cl    Cl    0.634738 0.906832 0.005619 -0.389249
Cl30  Cl    Cl    0.093291 0.634747 0.004498 -0.384511
Cl31  Cl    Cl    0.365116 0.092928 0.006855 -0.399816
Cl32  Cl    Cl    0.906678 0.365291 0.004291 -0.386022
S17   S     S_3+6 0.267971 0.478073 0.424061 0.117987
O97   O     O_2   0.245765 0.433876 0.423811 -0.205343
O98   O     O_2   0.233325 0.513021 0.419686 -0.283553
O99   O     O_3   0.301968 0.481417 0.386817 -0.375334
H33   H     H_    0.312638 0.512235 0.386887 0.381238
S18   S     S_3+6 0.477266 0.732025 0.424399 0.105035
O100  O     O_2   0.433192 0.754501 0.424690 -0.258555
O101  O     O_2   0.512606 0.766235 0.419831 -0.274105
O102  O     O_3   0.480111 0.697802 0.387235 -0.405685
H34   H     H_    0.472541 0.716231 0.365144 0.413560
S19   S     S_3+6 0.731886 0.521711 0.424039 0.114923
O103  O     O_2   0.754117 0.565893 0.423702 -0.203680
O104  O     O_2   0.766501 0.486727 0.419683 -0.286450
O105  O     O_3   0.697795 0.518254 0.386834 -0.377998
H35   H     H_    0.687085 0.487452 0.386973 0.374996
S20   S     S_3+6 0.523455 0.267947 0.424316 0.113177
O106  O     O_2   0.567704 0.245823 0.424884 -0.231251
O107  O     O_2   0.488422 0.233455 0.419516 -0.281470
O108  O     O_3   0.520603 0.302104 0.387141 -0.425612
H36   H     H_    0.528862 0.283807 0.365135 0.407911
S21   S     S_3+6 0.268027 0.522288 0.575792 0.104291
O109  O     O_2   0.245552 0.566362 0.575745 -0.258205
O110  O     O_2   0.233816 0.486923 0.580214 -0.275274
O111  O     O_3   0.302294 0.519198 0.612906 -0.407072
H37   H     H_    0.283889 0.526622 0.635053 0.412862
S22   S     S_3+6 0.476894 0.267908 0.575484 0.107179
O112  O     O_2   0.432814 0.245438 0.574901 -0.257591
O113  O     O_2   0.512178 0.233685 0.580250 -0.273591
O114  O     O_3   0.479489 0.302080 0.612698 -0.406360
H38   H     H_    0.471714 0.283631 0.634720 0.412996
S23   S     S_3+6 0.732114 0.478207 0.575868 0.104713
O115  O     O_2   0.754601 0.434139 0.575940 -0.257522
O116  O     O_2   0.766325 0.513605 0.580166 -0.274450
O117  O     O_3   0.697915 0.481500 0.612992 -0.406247
H39   H     H_    0.716364 0.474211 0.635151 0.413690
S24   S     S_3+6 0.522547 0.731982 0.575891 0.118198
O118  O     O_2   0.566766 0.754147 0.575887 -0.204783
O119  O     O_2   0.487665 0.766657 0.580491 -0.283358
O120  O     O_3   0.519464 0.697978 0.613140 -0.375069
H40   H     H_    0.488635 0.687337 0.613250 0.381053
S25   S     S_3+6 0.767946 0.977163 0.924261 0.103516
O121  O     O_2   0.745456 0.933091 0.924624 -0.255657
O122  O     O_2   0.733741 0.012482 0.919592 -0.276206
O123  O     O_3   0.802161 0.979900 0.887118 -0.413117
H41   H     H_    0.783725 0.972249 0.865030 0.412679
S26   S     S_3+6 0.977970 0.231974 0.924153 0.112703
O124  O     O_2   0.933770 0.254206 0.924056 -0.230194
O125  O     O_2   0.013176 0.266371 0.919863 -0.281094
O126  O     O_3   0.981439 0.197722 0.887044 -0.427062
H42   H     H_    0.973685 0.215996 0.864906 0.408620
S27   S     S_3+6 0.231925 0.023471 0.924410 0.102470
O127  O     O_2   0.254461 0.067511 0.925246 -0.256472
O128  O     O_2   0.266084 0.988186 0.919316 -0.277976
O129  O     O_3   0.197647 0.021265 0.887254 -0.412792
H43   H     H_    0.216046 0.029223 0.865247 0.412430
S28   S     S_3+6 0.021849 0.767800 0.924128 0.112662
O130  O     O_2   0.066065 0.745599 0.924045 -0.230240
O131  O     O_2   0.986662 0.733363 0.919893 -0.280822
O132  O     O_3   0.018291 0.801918 0.886972 -0.426981
H44   H     H_    0.026037 0.783574 0.864858 0.408648
S29   S     S_3+6 0.767969 0.022988 0.075640 0.112688
O133  O     O_2   0.745769 0.067201 0.075291 -0.230368
O134  O     O_2   0.733541 0.987868 0.080244 -0.281140
O135  O     O_3   0.802163 0.019988 0.112813 -0.427041
H45   H     H_    0.783862 0.028060 0.134857 0.408453
S30   S     S_3+6 0.978147 0.768120 0.075920 0.104161
O136  O     O_2   0.934114 0.745548 0.075976 -0.255585
O137  O     O_2   0.013594 0.733997 0.080320 -0.275591
O138  O     O_3   0.981309 0.802463 0.112987 -0.412280
H46   H     H_    0.974009 0.784082 0.135169 0.412964
S31   S     S_3+6 0.232464 0.974645 0.075079 0.150164
O139  O     O_2   0.253242 0.929779 0.074103 -0.146311
O140  O     O_2   0.268292 0.008291 0.080070 -0.260601
O141  O     O_3   0.198952 0.977907 0.112657 -0.400422
H47   H     H_    0.188947 0.008936 0.113186 0.377672
S32   S     S_3+6 0.021656 0.232107 0.075984 0.103113
O142  O     O_2   0.065717 0.254625 0.076111 -0.256813
O143  O     O_2   0.986244 0.266290 0.080259 -0.276398
O144  O     O_3   0.018369 0.197904 0.113095 -0.413572
H48   H     H_    0.025663 0.216351 0.135265 0.411868
S33   S     S_3+6 0.368521 0.438960 0.440306 0.142853
O145  O     O_2   0.388759 0.462448 0.407322 -0.165728
O146  O     O_2   0.404200 0.414749 0.460987 -0.298894
O147  O     O_3   0.332565 0.401349 0.424152 -0.390701
H49   H     H_    0.322739 0.385137 0.446861 0.367204
S34   S     S_3+6 0.438526 0.631385 0.440691 0.141038
O148  O     O_2   0.461853 0.611347 0.407512 -0.139408
O149  O     O_2   0.414586 0.595562 0.461397 -0.315232
O150  O     O_3   0.400681 0.667266 0.424873 -0.418706
H50   H     H_    0.384720 0.677087 0.447724 0.367016
S35   S     S_3+6 0.631423 0.561004 0.440360 0.142866
O151  O     O_2   0.611093 0.537499 0.407382 -0.170255
O152  O     O_2   0.595815 0.585275 0.461080 -0.296049
O153  O     O_3   0.667389 0.598553 0.424190 -0.389014
H51   H     H_    0.677286 0.614777 0.446897 0.367681
S36   S     S_3+6 0.561632 0.368722 0.440757 0.128113
O154  O     O_2   0.538228 0.388865 0.407648 -0.190727
O155  O     O_2   0.585543 0.404295 0.461852 -0.311727
O156  O     O_3   0.599474 0.332711 0.425112 -0.450648
H52   H     H_    0.617432 0.349464 0.406763 0.399492
S37   S     S_3+6 0.368611 0.561221 0.559560 0.140922
O157  O     O_2   0.388693 0.537756 0.592640 -0.140223
O158  O     O_2   0.404401 0.585294 0.538918 -0.314616
O159  O     O_3   0.332705 0.598955 0.575544 -0.419046
H53   H     H_    0.322854 0.615017 0.552760 0.366948
S38   S     S_3+6 0.438390 0.368587 0.559107 0.151745
O160  O     O_2   0.461616 0.388558 0.592389 -0.135937
O161  O     O_2   0.414570 0.404462 0.538360 -0.304597
O162  O     O_3   0.400434 0.332722 0.574749 -0.413157
H54   H     H_    0.384552 0.322946 0.551829 0.368150
S39   S     S_3+6 0.631509 0.439174 0.559812 0.154557
O163  O     O_2   0.611480 0.462845 0.592820 -0.136777
O164  O     O_2   0.595688 0.414955 0.539278 -0.294689
O165  O     O_3   0.667453 0.401552 0.575911 -0.411194
H55   H     H_    0.677288 0.385364 0.553176 0.371670
S40   S     S_3+6 0.561441 0.631397 0.559392 0.143627
O166  O     O_2   0.538161 0.611151 0.592481 -0.165547
O167  O     O_2   0.585473 0.595718 0.538549 -0.297786
O168  O     O_3   0.599198 0.667303 0.575377 -0.389510
H56   H     H_    0.615271 0.677123 0.552592 0.367679
S41   S     S_3+6 0.868578 0.938479 0.940696 0.150356
O169  O     O_2   0.888620 0.961738 0.907504 -0.141308
O170  O     O_2   0.904397 0.914580 0.961463 -0.304856
O171  O     O_3   0.832681 0.900602 0.924896 -0.411979
H57   H     H_    0.822859 0.884686 0.947759 0.368196
S42   S     S_3+6 0.939142 0.131379 0.940168 0.141303
O172  O     O_2   0.962935 0.111125 0.907307 -0.190325
O173  O     O_2   0.914825 0.095906 0.960990 -0.290505
O174  O     O_3   0.901646 0.167503 0.924121 -0.443249
H58   H     H_    0.883943 0.150816 0.905515 0.405615
S43   S     S_3+6 0.131373 0.061965 0.941262 0.147412
O175  O     O_2   0.111321 0.039048 0.907857 -0.141012
O176  O     O_2   0.095550 0.085633 0.962210 -0.306386
O177  O     O_3   0.167244 0.100025 0.925817 -0.413023
H59   H     H_    0.177085 0.115687 0.948828 0.366837
S44   S     S_3+6 0.060571 0.868497 0.939950 0.141887
O178  O     O_2   0.036607 0.888618 0.907126 -0.190612
O179  O     O_2   0.084956 0.904066 0.960652 -0.288632
O180  O     O_3   0.098036 0.832363 0.923853 -0.442908
H60   H     H_    0.115597 0.848990 0.905143 0.405609
S45   S     S_3+6 0.868676 0.061410 0.059403 0.140970
O181  O     O_2   0.888863 0.037912 0.092439 -0.190356
O182  O     O_2   0.904211 0.085443 0.038418 -0.291739
O183  O     O_3   0.832613 0.099139 0.075162 -0.443441
H61   H     H_    0.849328 0.117011 0.093632 0.405383
S46   S     S_3+6 0.938967 0.868574 0.059618 0.150717
O184  O     O_2   0.962481 0.888743 0.092664 -0.140319
O185  O     O_2   0.914782 0.904287 0.038968 -0.303932
O186  O     O_3   0.901332 0.832613 0.075660 -0.412145
H62   H     H_    0.885245 0.822682 0.052894 0.368057
S47   S     S_3+6 0.131093 0.937978 0.058988 0.131324
O187  O     O_2   0.111232 0.961420 0.092208 -0.219949
O188  O     O_2   0.095253 0.914455 0.037915 -0.286653
O189  O     O_3   0.166731 0.899708 0.074461 -0.424340
H63   H     H_    0.149764 0.881727 0.092648 0.411044
S48   S     S_3+6 0.060719 0.131544 0.059956 0.141894
O190  O     O_2   0.037012 0.111528 0.092928 -0.145668
O191  O     O_2   0.084965 0.095718 0.039483 -0.312083
O192  O     O_3   0.098327 0.167508 0.076111 -0.419440
H64   H     H_    0.114545 0.177327 0.053402 0.367334

loop_
_geom_bond_atom_site_label_1
_geom_bond_atom_site_label_2
_ccdc_geom_bond_type
C81   O17   A    
C37   C69   A    
C76   O36   A    
S29   O133  D    
C62   C77   S    
S43   O175  D    
C14   C170  A    
S40   O166  D    
C42   C58   A    
O90   H30   S    
O6    Zn2   S    
C13   C173  A    
C45   C57   A    
O57   H19   S    
C57   C76   S    
S20   O107  D    
S28   O130  D    
O25   Zn5   S    
C112  C124  A    
C23   C155  A    
C138  C143  T    
C139  C142  T    
C98   C114  A    
C61   C80   S    
S37   O159  S    
C89   C129  A    
C154  C170  A    
C42   S34   S    
S2    O52   D    
C75   O37   A    
C7    O11   A    
C158  C174  A    
S8    O72   S    
C100  Cl12  S    
S12   O82   D    
C114  S10   S    
C39   S31   S    
C103  Cl15  S    
C4    C12   S    
C5    C13   S    
C108  S4    S    
C51   C63   A    
C33   C69   A    
C166  Cl22  S    
C46   C60   A    
C7    C15   S    
O28   Zn8   S    
C99   Cl11  S    
C8    C16   S    
C11   C167  A    
C18   C152  A    
O99   H33   S    
C24   C158  A    
C35   S27   S    
S28   O132  S    
C34   C50   A    
O156  H52   S    
C91   C107  A    
C8    O12   A    
C17   C149  A    
C140  C141  T    
O18   Zn2   S    
C25   C41   A    
C36   S28   S    
O93   H31   S    
S22   O113  D    
O29   Zn7   S    
S10   O76   D    
C28   C44   A    
C3    O3    A    
C29   C45   A    
C13   C169  A    
C87   O31   A    
C1    O1    A    
C120  S16   S    
C146  C162  A    
C83   O23   A    
C51   S43   S    
C175  Cl31  S    
O177  H59   S    
C86   O28   A    
C93   Cl5   S    
C81   O19   A    
S36   O155  D    
C52   S44   S    
C81   C128  S    
C35   C51   A    
S29   O135  S    
C56   C62   A    
S25   O123  S    
S42   O172  D    
C83   C126  S    
O108  H36   S    
C130  C138  S    
S40   O168  S    
S39   O163  D    
O36   Zn9   S    
C4    O4    A    
S4    O58   D    
O46   Zn12  S    
S27   O128  D    
S38   O160  D    
C20   C68   S    
S4    O60   S    
O13   Zn7   S    
C87   C122  S    
S19   O103  D    
O189  H63   S    
C91   C129  A    
O114  H38   S    
O22   Zn2   S    
O147  H49   S    
C75   O35   A    
C116  C126  A    
C155  H11   S    
S25   O121  D    
S14   O90   S    
C91   Cl3   S    
S12   O84   S    
C151  C167  A    
O171  H57   S    
C112  S8    S    
S3    O56   D    
S33   O145  D    
S30   O137  D    
C3    C11   S    
C47   C59   A    
C147  H3    S    
C129  C137  S    
S48   O191  D    
S35   O152  D    
C21   C153  A    
O105  H35   S    
S17   O97   D    
C33   C49   A    
C162  Cl18  S    
S20   O106  D    
S21   O110  D    
C168  Cl24  S    
O34   Zn9   S    
S34   O149  D    
S11   O80   D    
C80   O44   A    
C97   C133  A    
S47   O189  S    
S18   O100  D    
C53   S45   S    
C154  H10   S    
C145  C161  A    
C174  Cl30  S    
C28   C68   A    
C113  S9    S    
C158  H14   S    
C5    O9    A    
C114  C126  A    
S34   O150  S    
C150  C166  A    
O75   H25   S    
C146  H2    S    
C86   O26   A    
S46   O185  D    
C53   C61   A    
C92   C108  A    
C2    C10   S    
O111  H37   S    
C55   C63   A    
C76   O40   A    
C19   C151  A    
C88   O32   A    
C27   S19   S    
O8    Zn4   S    
C6    O16   A    
C36   C52   A    
C43   C59   A    
O35   Zn9   S    
C37   C53   A    
C135  C143  S    
C90   Cl2   S    
O54   H18   S    
S13   O86   D    
O15   Zn5   S    
C100  C134  A    
S14   O89   D    
C82   O20   A    
C101  C135  A    
C49   S41   S    
C38   C72   A    
S45   O182  D    
O153  H51   S    
C148  C164  A    
C149  C165  A    
O87   H29   S    
C7    O15   A    
S17   O99   S    
O17   Zn1   S    
S14   O88   D    
C109  C123  A    
C43   S35   S    
C156  C172  A    
C21   C69   S    
C64   C79   S    
C40   S32   S    
S33   O147  S    
O16   Zn8   S    
S41   O169  D    
C6    C14   S    
C98   Cl10  S    
O168  H56   S    
C78   O42   A    
C106  C122  A    
C11   C163  A    
S5    O61   D    
S36   O154  D    
C9    C161  A    
S26   O124  D    
C173  Cl29  S    
S20   O108  S    
C117  S13   S    
C10   C168  A    
C56   S48   S    
C137  C144  T    
C29   C65   A    
S47   O187  D    
C73   O39   A    
O135  H45   S    
C24   C72   S    
S19   O105  S    
C16   C174  A    
O3    Zn3   S    
C39   C71   A    
C104  C136  A    
O47   Zn12  S    
O1    Zn1   S    
C30   C46   A    
C1    O5    A    
S24   O118  D    
C46   S38   S    
S38   O162  S    
S40   O167  D    
O42   Zn11  S    
O180  H60   S    
C151  H7    S    
C97   Cl9   S    
C18   C66   S    
C167  Cl23  S    
S44   O180  S    
S28   O131  D    
C79   O43   A    
C74   O34   A    
C147  C163  A    
C20   C148  A    
C94   Cl6   S    
C22   C160  A    
S37   O158  D    
C20   C150  A    
S43   O177  S    
S2    O53   D    
O165  H55   S    
S7    O69   S    
C30   C68   A    
C131  C139  S    
C35   C71   A    
C24   C156  A    
S15   O93   S    
O11   Zn7   S    
O159  H53   S    
C10   C162  A    
C89   C105  A    
C79   O45   A    
C31   C47   A    
S31   O140  D    
O174  H58   S    
C47   S39   S    
C22   C70   S    
C36   C72   A    
C93   C109  A    
O183  H61   S    
C82   O18   A    
C63   C78   S    
C119  C127  A    
O24   Zn4   S    
C149  H5    S    
C26   S18   S    
O126  H42   S    
C163  Cl19  S    
S2    O54   S    
S29   O134  D    
C100  C116  A    
C115  S11   S    
C150  H6    S    
C109  S5    S    
O31   Zn5   S    
C110  S6    S    
C26   C42   A    
O14   Zn6   S    
S41   O171  S    
C99   C115  A    
S6    O64   D    
S23   O117  S    
S10   O77   D    
S5    O63   S    
S32   O142  D    
O66   H22   S    
O141  H47   S    
C14   C176  A    
C152  C168  A    
C134  C142  S    
O32   Zn8   S    
C39   C55   A    
C40   C56   A    
C32   S24   S    
S3    O55   D    
O45   Zn12  S    
C19   C67   S    
C34   C70   A    
S10   O78   S    
C165  Cl21  S    
O81   H27   S    
C172  Cl28  S    
S35   O151  D    
C148  H4    S    
C33   S25   S    
S1    O49   D    
C95   C131  A    
C32   C48   A    
S42   O173  D    
S24   O120  S    
C118  S14   S    
C55   S47   S    
C156  H12   S    
C105  S1    S    
O10   Zn6   S    
C103  C119  A    
C49   C61   A    
C111  C123  A    
O72   H24   S    
C159  H15   S    
O9    Zn5   S    
C90   C106  A    
S6    O66   S    
C52   C64   A    
C31   S23   S    
O96   H32   S    
C18   C146  A    
C94   C110  A    
C19   C147  A    
C2    O2    A    
S42   O174  S    
C17   C145  A    
S7    O67   D    
C23   C71   S    
C12   C164  A    
C119  S15   S    
S15   O91   D    
C38   C54   A    
S16   O96   S    
O192  H64   S    
C1    C9    S    
C27   C67   A    
C8    O14   A    
C117  C127  A    
C59   C74   S    
C160  H16   S    
C40   C70   A    
C92   Cl4   S    
O48   Zn12  S    
C111  S7    S    
O27   Zn7   S    
C107  C121  A    
C87   O29   A    
O7    Zn1   S    
C32   C66   A    
S21   O109  D    
C84   C125  S    
C101  Cl13  S    
O5    Zn3   S    
C169  Cl25  S    
C88   C121  S    
S47   O188  D    
S18   O101  D    
S23   O115  D    
C120  C128  A    
C48   C58   A    
S22   O112  D    
C132  C140  S    
C164  Cl20  S    
C60   C75   S    
C133  C141  S    
S32   O144  S    
C25   S17   S    
C101  C117  A    
C9    C165  A    
C41   C57   A    
O84   H28   S    
C136  C144  S    
S39   O165  S    
O30   Zn6   S    
C80   O48   A    
C26   C66   A    
C44   C60   A    
S4    O59   D    
S44   O179  D    
C171  Cl27  S    
C102  C136  A    
S18   O102  S    
C31   C67   A    
S11   O79   D    
C90   C130  A    
C27   C43   A    
O123  H41   S    
S41   O170  D    
S1    O51   S    
C153  C169  A    
C77   O47   A    
C93   C131  A    
C45   S37   S    
C157  C173  A    
C104  C120  A    
C161  Cl17  S    
S6    O65   D    
S23   O116  D    
S13   O85   D    
C92   C130  A    
O120  H40   S    
C106  S2    S    
O43   Zn11  S    
C74   O38   A    
C107  S3    S    
S22   O114  S    
C78   O46   A    
S9    O73   D    
S44   O178  D    
C95   Cl7   S    
C96   C112  A    
S45   O181  D    
C176  Cl32  S    
C54   C64   A    
O4    Zn4   S    
C2    O8    A    
O26   Zn6   S    
O63   H21   S    
C94   C132  A    
C6    O10   A    
S17   O98   D    
C12   C166  A    
S38   O161  D    
S25   O122  D    
C113  C125  A    
C99   C133  A    
C85   C124  S    
O186  H62   S    
S3    O57   S    
S33   O146  D    
C103  C135  A    
S30   O136  D    
C85   O25   A    
O60   H20   S    
S48   O190  D    
S35   O153  S    
C3    O7    A    
C28   S20   S    
C152  H8    S    
S26   O125  D    
O37   Zn10  S    
C102  C118  A    
C96   Cl8   S    
C96   C132  A    
S21   O111  S    
S34   O148  D    
S11   O81   S    
C89   Cl1   S    
C160  C176  A    
O150  H50   S    
C118  C128  A    
C83   O21   A    
C84   O22   A    
S19   O104  D    
O23   Zn1   S    
C15   C171  A    
O21   Zn3   S    
C25   C65   A    
S26   O126  S    
S24   O119  D    
O132  H44   S    
C44   S36   S    
S46   O186  S    
O162  H54   S    
C23   C159  A    
S8    O71   D    
S46   O184  D    
C16   C172  A    
S27   O127  D    
S30   O138  S    
S36   O156  S    
O19   Zn3   S    
C77   O41   A    
S37   O157  D    
S27   O129  S    
C105  C121  A    
S43   O176  D    
S16   O94   D    
S7    O68   D    
O12   Zn8   S    
C170  Cl26  S    
S12   O83   D    
S8    O70   D    
S15   O92   D    
S16   O95   D    
C37   S29   S    
C50   C62   A    
S13   O87   S    
C38   S30   S    
O40   Zn10  S    
O51   H17   S    
O44   Zn11  S    
C97   C113  A    
C116  S12   S    
O129  H43   S    
C22   C154  A    
S9    O75   S    
C50   S42   S    
O69   H23   S    
S45   O183  S    
O33   Zn9   S    
O2    Zn2   S    
C21   C157  A    
C29   S21   S    
C104  Cl16  S    
C108  C122  A    
C30   S22   S    
C41   S33   S    
C98   C134  A    
C17   C65   S    
S39   O164  D    
C115  C125  A    
C15   C175  A    
S31   O141  S    
S1    O50   D    
C85   O27   A    
O144  H48   S    
O20   Zn4   S    
C95   C111  A    
O102  H34   S    
C73   O33   A    
C54   S46   S    
S9    O74   D    
C153  H9    S    
S48   O192  S    
C4    O6    A    
S5    O62   D    
S32   O143  D    
C88   O30   A    
C34   S26   S    
O78   H26   S    
C157  H13   S    
C82   C127  S    
C5    O13   A    
S31   O139  D    
O41   Zn11  S    
C155  C171  A    
O138  H46   S    
C102  Cl14  S    
C145  H1    S    
C86   C123  S    
O117  H39   S    
C159  C175  A    
C48   S40   S    
C110  C124  A    
O38   Zn10  S    
O39   Zn10  S    
C84   O24   A    
C58   C73   S    
