data_mof_unit_63797.cif
_audit_creation_date              2012-12-10T20:53:19-0500
_audit_creation_method            fapswitch 2.2
_symmetry_space_group_name_H-M    P1
_symmetry_Int_Tables_number       1
_space_group_crystal_system       triclinic
_cell_length_a                    15.849067
_cell_length_b                    15.086364
_cell_length_c                    10.66848
_cell_angle_alpha                 90.984388
_cell_angle_beta                  90.026627
_cell_angle_gamma                 90.036997
_cell_volume                      2550.50741408

loop_
_atom_site_label
_atom_site_type_symbol
_atom_type_description
_atom_site_fract_x
_atom_site_fract_y
_atom_site_fract_z
_atom_type_partial_charge
C1    C     C_R   0.338882 0.499959 0.500103 0.895317
C2    C     C_1   0.500083 0.192928 0.500033 0.395049
C3    C     C_R   0.501445 0.499005 0.261721 0.998457
C4    C     C_R   0.507213 0.500711 0.737873 0.986044
C5    C     C_2   0.556910 0.435591 0.933020 0.387850
C6    C     C_2   0.561805 0.444348 0.068957 0.377698
C7    C     C_2   0.526996 0.504480 0.868482 -0.504752
C8    C     C_2   0.504595 0.495170 0.129134 -0.455589
C9    C     C_R   0.956303 0.580306 0.511146 -0.158482
C10   C     C_R   0.043795 0.580273 0.511316 -0.156499
C11   C     C_R   0.913122 0.499998 0.498069 0.149278
C12   C     C_R   0.661117 0.500000 0.499751 0.920496
C13   C     C_R   0.086838 0.499932 0.498416 0.151726
C14   C     C_R   0.956158 0.419665 0.484982 -0.138929
C15   C     C_R   0.043655 0.419632 0.485156 -0.158762
C16   C     C_1   0.824338 0.500000 0.498559 -0.030118
C17   C     C_1   0.175630 0.499888 0.499051 -0.046609
C18   C     C_1   0.250474 0.499899 0.499606 -0.138466
C19   C     C_1   0.749502 0.500013 0.499123 -0.102191
C20   C     C_R   0.493345 0.952004 0.386834 0.282214
C21   C     C_R   0.507004 0.954768 0.613268 0.277199
C22   C     C_R   0.500138 0.905128 0.500053 -0.333662
C23   C     C_R   0.507015 0.048587 0.612884 0.578831
C24   C     C_R   0.493373 0.045826 0.387212 0.572409
C25   C     C_R   0.500170 0.095087 0.500047 -0.391354
C26   C     C_1   0.500060 0.807079 0.500035 0.344558
Cl1   Cl    Cl    0.589371 0.333960 0.862720 -0.408850
Cl2   Cl    Cl    0.642167 0.386335 0.148977 -0.481658
Cl3   Cl    Cl    0.484673 0.894392 0.242274 -0.429125
Cl4   Cl    Cl    0.515715 0.900681 0.757820 -0.425117
F1    F     F_    0.486732 0.089016 0.276965 -0.556312
F2    F     F_    0.513727 0.094481 0.723113 -0.544674
H1    H     H_    0.519332 0.569268 0.913125 0.166514
H2    H     H_    0.455109 0.531032 0.081372 0.133689
H3    H     H_    0.077760 0.642359 0.521568 0.159454
H4    H     H_    0.922446 0.642413 0.521293 0.160441
H5    H     H_    0.922187 0.357572 0.474899 0.168168
H6    H     H_    0.077513 0.357514 0.475185 0.161065
N1    N     N_1   0.500000 0.270550 0.500000 -0.070175
N2    N     N_1   0.500000 0.729450 0.500000 -0.083066
O1    O     O_R   0.378020 0.573650 0.500040 -0.611166
O2    O     O_R   0.621980 0.573650 0.499960 -0.620261
O3    O     O_R   0.378020 0.426320 0.500100 -0.616183
O4    O     O_R   0.621980 0.426320 0.499900 -0.582815
O5    O     O_R   0.500000 0.573650 0.319080 -0.605097
O6    O     O_R   0.500000 0.573650 0.680920 -0.611241
O7    O     O_R   0.500000 0.426320 0.319140 -0.569527
O8    O     O_R   0.500000 0.426320 0.680860 -0.562367
Zn1   Zn    Zn3+2 0.500000 0.598370 0.500000 1.036738
Zn2   Zn    Zn3+2 0.500000 0.401630 0.500000 1.089852

loop_
_geom_bond_atom_site_label_1
_geom_bond_atom_site_label_2
_ccdc_geom_bond_type
C9    H4    S    
C6    C8    D    
C15   H6    S    
C10   H3    S    
O5    Zn1   S    
O7    Zn2   S    
C9    C11   A    
C21   Cl4   S    
C13   C17   S    
C23   F2    S    
N1    Zn2   S    
O8    Zn2   S    
C17   C18   T    
C24   F1    S    
C3    O5    A    
C12   O4    A    
C8    H2    S    
C21   C22   A    
C14   H5    S    
C7    H1    S    
O6    Zn1   S    
C26   N2    T    
C1    C18   S    
C16   C19   T    
C12   C19   S    
C1    O1    A    
C1    O3    A    
C2    C25   S    
C20   Cl3   S    
C13   C15   A    
C21   C23   A    
C22   C26   S    
C5    C6    S    
C4    O6    A    
C11   C14   A    
C11   C16   S    
O2    Zn1   S    
O4    Zn2   S    
N2    Zn1   S    
O3    Zn2   S    
C23   C25   A    
C24   C25   A    
C4    O8    A    
C3    C8    S    
C9    C10   A    
C3    O7    A    
C5    C7    D    
C14   C15   A    
C12   O2    A    
C4    C7    S    
C5    Cl1   S    
C2    N1    T    
O1    Zn1   S    
C6    Cl2   S    
C20   C24   A    
C20   C22   A    
C10   C13   A    
