data_mof_unit_68184.cif
_audit_creation_date              2012-12-11T16:30:36-0500
_audit_creation_method            fapswitch 2.2
_symmetry_space_group_name_H-M    P1
_symmetry_Int_Tables_number       1
_space_group_crystal_system       monoclinic
_cell_length_a                    7.192408
_cell_length_b                    13.958716
_cell_length_c                    17.098635
_cell_angle_alpha                 90.0
_cell_angle_beta                  90.191169
_cell_angle_gamma                 90.0
_cell_volume                      1716.63835192

loop_
_atom_site_label
_atom_site_type_symbol
_atom_type_description
_atom_site_fract_x
_atom_site_fract_y
_atom_site_fract_z
_atom_type_partial_charge
O1    O     O_R   0.611670 0.415650 0.164070 -0.472861
O2    O     O_R   0.388330 0.915650 0.835930 -0.472861
O3    O     O_R   0.940950 0.405490 0.337780 -0.507921
O4    O     O_R   0.059050 0.905490 0.662220 -0.507921
O5    O     O_R   0.111350 0.584350 0.338470 -0.527844
O6    O     O_R   0.888650 0.084350 0.661530 -0.527844
C1    C     C_R   0.771217 0.384764 0.367353 0.833902
C2    C     C_R   0.228783 0.884764 0.632647 0.833902
O7    O     O_R   0.941380 0.404630 0.164680 -0.519743
O8    O     O_R   0.058620 0.904630 0.835320 -0.519743
O9    O     O_R   0.111780 0.583470 0.164130 -0.555688
O10   O     O_R   0.888220 0.083470 0.835870 -0.555688
C3    C     C_R   0.775032 0.381809 0.136443 0.755848
C4    C     C_R   0.224967 0.881809 0.863557 0.755849
O11   O     O_R   0.611240 0.416530 0.338400 -0.536627
O12   O     O_R   0.388760 0.916530 0.661600 -0.536627
O13   O     O_3   0.778020 0.558680 0.251290 -0.411679
O14   O     O_3   0.221980 0.058680 0.748710 -0.411679
V1    V     V_3+5 0.052840 0.489110 0.251260 1.620985
V2    V     V_3+5 0.947160 0.989110 0.748740 1.620985
O15   O     O_R   0.441500 0.594510 0.164760 -0.520532
O16   O     O_R   0.558500 0.094510 0.835240 -0.520532
C5    C     C_R   0.273067 0.613332 0.134753 0.813082
C6    C     C_R   0.726933 0.113332 0.865246 0.813082
O17   O     O_R   0.441080 0.595370 0.337860 -0.563904
O18   O     O_R   0.558920 0.095370 0.662140 -0.563904
C7    C     C_R   0.272915 0.620418 0.364575 0.686709
C8    C     C_R   0.727085 0.120418 0.635425 0.686709
V3    V     V_3+5 0.552850 0.510890 0.251270 1.581760
V4    V     V_3+5 0.447150 0.010890 0.748730 1.581759
O19   O     O_3   0.277800 0.441320 0.251250 -0.325008
O20   O     O_3   0.722200 0.941320 0.748750 -0.325008
C9    C     C_3   0.065292 0.703689 0.466910 -0.321465
C10   C     C_3   0.934708 0.203689 0.533090 -0.321465
H1    H     H_    0.970627 0.731660 0.421007 0.184199
H2    H     H_    0.029373 0.231660 0.578993 0.184199
H3    H     H_    0.007017 0.635448 0.482561 0.253338
H4    H     H_    0.992983 0.135448 0.517439 0.253338
C11   C     C_3   0.056344 0.765897 0.541360 -0.283918
C12   C     C_3   0.943656 0.265897 0.458640 -0.283918
H5    H     H_    0.001012 0.726741 0.590282 0.246642
H6    H     H_    0.998988 0.226741 0.409718 0.246642
H7    H     H_    0.939389 0.816130 0.534095 0.206340
H8    H     H_    0.060611 0.316130 0.465905 0.206340
H9    H     H_    0.256275 0.820539 0.356279 0.219182
H10   H     H_    0.743725 0.320539 0.643721 0.219182
C13   C     C_3   0.326542 0.798429 0.411308 -0.356694
C14   C     C_3   0.673458 0.298429 0.588692 -0.356695
C15   C     C_3   0.393975 0.661323 0.502494 -0.360329
C16   C     C_3   0.606025 0.161323 0.497506 -0.360329
C17   C     C_3   0.265573 0.694072 0.434044 -0.047959
C18   C     C_3   0.734427 0.194072 0.565956 -0.047959
H11   H     H_    0.534477 0.642970 0.479887 0.168294
H12   H     H_    0.465523 0.142970 0.520113 0.168294
H13   H     H_    0.337575 0.594675 0.528403 0.198220
H14   H     H_    0.662425 0.094675 0.471597 0.198220
C19   C     C_3   0.245396 0.817042 0.559363 -0.186631
C20   C     C_3   0.754603 0.317042 0.440637 -0.186632
C21   C     C_3   0.289452 0.872414 0.480946 0.329250
C22   C     C_3   0.710548 0.372414 0.519054 0.329250
C23   C     C_3   0.414552 0.742723 0.564680 0.302587
C24   C     C_3   0.585448 0.242723 0.435320 0.302587
H15   H     H_    0.538847 0.783516 0.544697 0.060680
H16   H     H_    0.461153 0.283516 0.455302 0.060680
H17   H     H_    0.477660 0.798266 0.397576 0.116444
H18   H     H_    0.522340 0.298266 0.602424 0.116444
H19   H     H_    0.416435 0.916864 0.489498 0.052805
H20   H     H_    0.583565 0.416864 0.510502 0.052805
C25   C     C_R   0.232278 0.948012 0.033755 0.209626
C26   C     C_R   0.767722 0.448012 0.966244 0.209625
C27   C     C_R   0.299961 0.977295 0.107047 -0.028626
C28   C     C_R   0.700039 0.477295 0.892953 -0.028625
C29   C     C_R   0.354887 0.911185 0.162616 -0.052150
C30   C     C_R   0.645113 0.411185 0.837383 -0.052150
C31   C     C_R   0.331799 0.814260 0.148990 -0.186946
C32   C     C_R   0.668201 0.314260 0.851010 -0.186946
C33   C     C_R   0.274981 0.779180 0.074933 0.017617
C34   C     C_R   0.725019 0.279180 0.925067 0.017618
C35   C     C_R   0.239953 0.847401 0.012845 0.133874
C36   C     C_R   0.760047 0.347401 0.987155 0.133875
C37   C     C_R   0.264785 0.677872 0.062901 -0.124330
C38   C     C_R   0.735215 0.177872 0.937099 -0.124330
C39   C     C_R   0.232530 0.642040 0.984609 -0.069707
C40   C     C_R   0.767470 0.142040 0.015391 -0.069706
C41   C     C_R   0.199244 0.711235 0.923096 -0.102960
C42   C     C_R   0.800756 0.211235 0.076903 -0.102960
C43   C     C_R   0.221922 0.813045 0.934188 -0.063575
C44   C     C_R   0.778078 0.313045 0.065811 -0.063574
C45   C     C_R   0.227590 0.540036 0.963573 0.348599
C46   C     C_R   0.772410 0.040036 0.036427 0.348600
C47   C     C_R   0.163332 0.510613 0.889815 -0.066287
C48   C     C_R   0.836668 0.010613 0.110185 -0.066288
C49   C     C_R   0.126923 0.579646 0.833562 0.459167
C50   C     C_R   0.873077 0.079646 0.166437 0.459168
C51   C     C_R   0.139455 0.677073 0.850036 -0.249607
C52   C     C_R   0.860545 0.177073 0.149964 -0.249607
H21   H     H_    0.308751 0.052629 0.121948 0.134530
H22   H     H_    0.691249 0.552629 0.878052 0.134530
H23   H     H_    0.408769 0.935349 0.218396 0.214529
H24   H     H_    0.591231 0.435349 0.781604 0.214529
H25   H     H_    0.367702 0.767354 0.196971 0.095570
H26   H     H_    0.632297 0.267354 0.803029 0.095570
H27   H     H_    0.100117 0.726490 0.804333 0.208329
H28   H     H_    0.899883 0.226490 0.195667 0.208329
S1    S     S_3+6 0.090724 0.542321 0.738192 0.083540
O21   O     O_2   0.231873 0.466110 0.719991 -0.336216
O22   O     O_2   0.896970 0.504192 0.729815 -0.281391
O23   O     O_3   0.120166 0.631610 0.677120 -0.458973
H29   H     H_    0.142177 0.598294 0.627067 0.400287
S2    S     S_3+6 0.909276 0.042321 0.261808 0.083540
O24   O     O_2   0.768127 0.966110 0.280009 -0.336216
O25   O     O_2   0.103030 0.004192 0.270185 -0.281391
O26   O     O_3   0.879834 0.131610 0.322880 -0.458973
H30   H     H_    0.857823 0.098294 0.372933 0.400286
C53   C     C_3   0.156798 0.028609 0.982141 -0.698985
H31   H     H_    0.127450 0.093879 0.016926 0.162771
H32   H     H_    0.237813 0.054983 0.932231 0.242675
H33   H     H_    0.032740 0.004097 0.953581 0.222998
C54   C     C_3   0.843202 0.528609 0.017859 -0.698985
H34   H     H_    0.872550 0.593878 0.983074 0.162772
H35   H     H_    0.762187 0.554982 0.067769 0.242675
H36   H     H_    0.967260 0.504096 0.046418 0.222998
S3    S     S_3+6 0.323360 0.447175 0.021728 -0.083644
O27   O     O_2   0.490368 0.493548 0.050088 -0.368840
O28   O     O_2   0.215943 0.418420 0.091390 -0.352469
O29   O     O_3   0.381021 0.345318 0.975764 -0.532781
H37   H     H_    0.362347 0.293079 0.014203 0.353299
S4    S     S_3+6 0.676640 0.947175 0.978272 -0.083644
O30   O     O_2   0.509632 0.993548 0.949912 -0.368840
O31   O     O_2   0.784058 0.918420 0.908610 -0.352469
O32   O     O_3   0.618979 0.845318 0.024236 -0.532781
H38   H     H_    0.637649 0.793079 0.985796 0.353299
C55   C     C_3   0.132953 0.404700 0.870019 -0.507842
H39   H     H_    0.086123 0.362920 0.920961 0.198813
H40   H     H_    0.020924 0.392435 0.827195 0.218375
H41   H     H_    0.261336 0.372951 0.845544 0.246449
C56   C     C_3   0.867047 0.904700 0.129981 -0.507841
H42   H     H_    0.913877 0.862920 0.079038 0.198814
H43   H     H_    0.979076 0.892435 0.172804 0.218374
H44   H     H_    0.738664 0.872951 0.154456 0.246449
S5    S     S_3+6 0.107208 0.954114 0.455082 -0.030326
O33   O     O_2   0.995676 0.979804 0.525730 -0.429810
O34   O     O_2   0.189099 0.043219 0.420502 -0.263066
O35   O     O_3   0.963257 0.900229 0.391726 -0.462245
H45   H     H_    0.839699 0.899433 0.417221 0.352401
S6    S     S_3+6 0.892792 0.454114 0.544918 -0.030326
O36   O     O_2   0.004324 0.479804 0.474270 -0.429809
O37   O     O_2   0.810901 0.543219 0.579498 -0.263066
O38   O     O_3   0.036743 0.400229 0.608273 -0.462245
H46   H     H_    0.160301 0.399433 0.582779 0.352401
S7    S     S_3+6 0.505856 0.700646 0.657580 0.059019
O39   O     O_2   0.498523 0.593299 0.662074 -0.257539
O40   O     O_2   0.705770 0.730881 0.663593 -0.323872
O41   O     O_3   0.395253 0.746623 0.734747 -0.514866
H47   H     H_    0.478627 0.733639 0.779773 0.353117
S8    S     S_3+6 0.494144 0.200646 0.342420 0.059019
O42   O     O_2   0.501477 0.093299 0.337926 -0.257539
O43   O     O_2   0.294230 0.230881 0.336406 -0.323872
O44   O     O_3   0.604746 0.246623 0.265253 -0.514866
H48   H     H_    0.521373 0.233639 0.220227 0.353117

loop_
_geom_bond_atom_site_label_1
_geom_bond_atom_site_label_2
_ccdc_geom_bond_type
C20   C24   S    
O29   H37   S    
O11   V3    S    
O13   V3    S    
S1    O21   D    
O4    C2    A    
V1    O19   S    
S4    O30   D    
C34   C36   A    
C35   C43   A    
S3    O27   D    
C11   H5    S    
C28   H22   S    
S1    O22   D    
O9    V1    S    
C9    C11   S    
C22   S6    S    
C10   C12   S    
S8    O42   D    
C40   C42   A    
C4    C43   S    
O26   H30   S    
C14   C18   S    
O3    C1    A    
S5    O34   D    
C42   C44   A    
S3    O28   D    
C20   C22   S    
C53   H31   S    
C11   C19   S    
O23   H29   S    
C25   C27   A    
S7    O41   S    
C23   H15   S    
C6    C38   S    
S2    O24   D    
O7    C3    A    
S2    O25   D    
C21   H19   S    
O5    C7    A    
S8    O43   D    
O7    V1    S    
O6    C8    A    
C51   H27   S    
C15   C17   S    
C55   H41   S    
C16   C18   S    
S7    O39   D    
O3    V1    S    
O14   V4    S    
C45   C47   A    
C5    C37   S    
C1    C20   S    
C24   H16   S    
C8    C18   S    
C49   S1    S    
C1    O11   A    
C2    O12   A    
O17   V3    S    
C29   C31   A    
C40   C46   A    
C48   C56   S    
C48   C50   A    
C37   C39   A    
C7    C17   S    
C14   C22   S    
S6    O37   D    
H9    C13   S    
C32   H26   S    
C39   C45   A    
S1    O23   S    
H10   C14   S    
C15   C23   S    
C41   C43   A    
C26   C36   A    
C12   C20   S    
C28   C30   A    
O8    C4    A    
S5    O35   S    
O8    V2    S    
C27   C29   A    
O35   H45   S    
S3    O29   S    
C30   H24   S    
C45   S3    S    
C53   H32   S    
C15   H13   S    
O15   V3    S    
C50   S2    S    
C16   H14   S    
C9    C17   S    
C2    C19   S    
C47   C49   A    
S6    O38   S    
C27   H21   S    
C34   C38   A    
C46   C48   A    
O44   H48   S    
C47   C55   S    
C33   C37   A    
C26   C54   S    
C53   H33   S    
O10   V2    S    
O1    V3    S    
C33   C35   A    
C16   H12   S    
C50   C52   A    
C31   C33   A    
S2    O26   S    
C21   S5    S    
O41   H47   S    
C54   H35   S    
C42   C52   A    
C39   C41   A    
O18   V4    S    
C38   C40   A    
O15   C5    A    
C55   H39   S    
C16   C24   S    
O16   C6    A    
C25   C35   A    
O1    C3    A    
C30   C32   A    
O13   V1    S    
O32   H38   S    
S4    O32   S    
C55   H40   S    
S6    O36   D    
V2    O20   S    
C54   H36   S    
C23   S7    S    
C29   H23   S    
C25   C53   S    
O16   V4    S    
C10   H4    S    
C10   C18   S    
S8    O44   S    
C32   C34   A    
C12   H6    S    
S4    O31   D    
C13   C17   S    
C54   H34   S    
C56   H43   S    
C19   C23   S    
O5    V1    S    
O17   C7    A    
O6    V2    S    
C56   H42   S    
O10   C6    A    
O18   C8    A    
O2    V4    S    
C52   H28   S    
V3    O19   S    
O38   H46   S    
V4    O20   S    
C41   C51   A    
C49   C51   A    
C15   H11   S    
C56   H44   S    
C3    C44   S    
O9    C5    A    
C9    H1    S    
C10   H2    S    
C24   S8    S    
O14   V2    S    
S7    O40   D    
O2    C4    A    
C9    H3    S    
C19   C21   S    
C13   C21   S    
O4    V2    S    
C12   H8    S    
C22   H20   S    
C36   C44   A    
C11   H7    S    
C31   H25   S    
C46   S4    S    
C26   C28   A    
C14   H18   S    
S5    O33   D    
O12   V4    S    
C13   H17   S    
