data_mof_unit_28903.cif
_audit_creation_date              2012-12-10T16:48:44-0500
_audit_creation_method            fapswitch 2.2
_symmetry_space_group_name_H-M    P1
_symmetry_Int_Tables_number       1
_space_group_crystal_system       triclinic
_cell_length_a                    17.119465
_cell_length_b                    8.739964
_cell_length_c                    7.407617
_cell_angle_alpha                 102.899273
_cell_angle_beta                  89.794526
_cell_angle_gamma                 91.839784
_cell_volume                      1079.81903589

loop_
_atom_site_label
_atom_site_type_symbol
_atom_type_description
_atom_site_fract_x
_atom_site_fract_y
_atom_site_fract_z
_atom_type_partial_charge
C1    C     C_R   0.500821 0.200428 0.454158 0.794903
C2    C     C_R   0.498702 0.799283 0.546111 0.891517
C3    C     C_2   0.512102 0.035460 0.433006 0.030570
C4    C     C_2   0.487912 0.963888 0.568744 0.039080
C5    C     C_R   0.350826 0.489771 0.526051 0.784286
C6    C     C_R   0.649685 0.501064 0.472674 0.855585
C7    C     C_R   0.266633 0.454995 0.546407 -0.194254
C8    C     C_R   0.735390 0.493470 0.450625 -0.143830
C9    C     C_R   0.226442 0.340334 0.409291 -0.060602
C10   C     C_R   0.784992 0.556690 0.603740 -0.048813
C11   C     C_R   0.146456 0.313055 0.429225 -0.207532
C12   C     C_R   0.863059 0.516921 0.596231 -0.290041
C13   C     C_R   0.105828 0.393838 0.583342 0.066402
C14   C     C_R   0.894672 0.421591 0.437139 0.096438
C15   C     C_R   0.146308 0.496001 0.728819 0.242360
C16   C     C_R   0.847968 0.372999 0.276613 0.212175
C17   C     C_R   0.226960 0.527608 0.710573 0.187889
C18   C     C_R   0.768632 0.411645 0.281684 0.165770
C19   C     C_2   0.019770 0.383349 0.584881 -0.167514
C20   C     C_2   0.978809 0.389648 0.432773 -0.215152
Cu1   Cu    Cu3+1 0.508700 0.517250 0.683000 0.985070
Cu2   Cu    Cu3+1 0.491300 0.482750 0.317000 0.952332
H1    H     H_    0.009040 0.381021 0.302823 0.154157
H2    H     H_    0.990209 0.390594 0.716047 0.175276
H3    H     H_    0.900341 0.568137 0.713456 0.151437
H4    H     H_    0.115149 0.227321 0.323724 0.189011
H5    H     H_    0.437438 0.385110 0.959273 0.230063
H6    H     H_    0.562054 0.616102 0.041153 0.256468
N1    N     N_2   0.478180 0.456750 0.041980 -0.220116
N2    N     N_2   0.521820 0.543250 0.958020 -0.198506
O1    O     O_R   0.505650 0.286040 0.618880 -0.599804
O2    O     O_R   0.494350 0.713960 0.381120 -0.568047
O3    O     O_R   0.490960 0.256910 0.309800 -0.614378
O4    O     O_R   0.509040 0.743090 0.690200 -0.555533
O5    O     O_R   0.394600 0.516230 0.672450 -0.549614
O6    O     O_R   0.605400 0.483770 0.327550 -0.568717
O7    O     O_R   0.379910 0.487100 0.363380 -0.598392
O8    O     O_R   0.620090 0.512900 0.636620 -0.556404
C21   C     C_2   0.266838 0.240184 0.249614 0.347367
H7    H     H_    0.328954 0.221519 0.254382 0.097426
O9    O     O_2   0.230482 0.173904 0.111142 -0.589709
C22   C     C_2   0.760057 0.673673 0.770217 0.374240
H8    H     H_    0.789572 0.681936 0.901721 0.048139
O10   O     O_2   0.710043 0.768022 0.760259 -0.566342
N3    N     N_2   0.724842 0.382288 0.113023 -0.408440
H9    H     H_    0.755094 0.410789 0.003747 0.256839
C23   C     C_3   0.685345 0.230107 0.061024 -0.580214
H10   H     H_    0.728089 0.135615 0.024920 0.237689
H11   H     H_    0.647615 0.226352 0.938357 0.223505
H12   H     H_    0.647591 0.209381 0.175070 0.228350
N4    N     N_2   0.268628 0.629871 0.858466 -0.414471
H13   H     H_    0.250697 0.624820 0.989898 0.262492
C24   C     C_3   0.281034 0.788539 0.835758 -0.613299
H14   H     H_    0.224519 0.847924 0.838559 0.222598
H15   H     H_    0.310720 0.787794 0.702499 0.230584
H16   H     H_    0.318807 0.855286 0.949933 0.249242
N5    N     N_2   0.104116 0.577517 0.885295 -0.450698
H17   H     H_    0.121202 0.693604 0.933062 0.263884
C25   C     C_3   0.094759 0.494286 0.032461 -0.720797
H18   H     H_    0.152126 0.480784 0.095481 0.252001
H19   H     H_    0.067224 0.376073 0.979442 0.235904
H20   H     H_    0.056772 0.562278 0.141084 0.224863
N6    N     N_2   0.879518 0.286207 0.107680 -0.442385
H21   H     H_    0.925093 0.343172 0.055968 0.237163
C26   C     C_3   0.893662 0.122885 0.102810 -0.675507
H22   H     H_    0.903944 0.059938 0.957555 0.232659
H23   H     H_    0.842503 0.065890 0.156872 0.232390
H24   H     H_    0.946030 0.112118 0.186428 0.224808
N7    N     N_2   0.555820 0.955662 0.276662 -0.430151
H25   H     H_    0.549511 0.999050 0.159187 0.269384
C27   C     C_3   0.636847 0.931107 0.315844 -0.687511
H26   H     H_    0.666574 0.874069 0.185805 0.238547
H27   H     H_    0.641195 0.853270 0.414659 0.247441
H28   H     H_    0.667662 0.044750 0.376029 0.210379
N8    N     N_2   0.443726 0.039077 0.726153 -0.445755
H29   H     H_    0.475020 0.113383 0.830397 0.272787
C28   C     C_3   0.366096 0.088033 0.691061 -0.710384
H30   H     H_    0.329910 0.095510 0.816793 0.266867
H31   H     H_    0.337623 0.003694 0.573327 0.216714
H32   H     H_    0.368159 0.205834 0.659476 0.227866

loop_
_geom_bond_atom_site_label_1
_geom_bond_atom_site_label_2
_ccdc_geom_bond_type
N6    C26   S    
Cu2   N1    S    
C5    O7    A    
C10   C22   S    
C19   C20   D    
C1    O1    A    
C17   N4    S    
C1    O3    A    
C21   O9    D    
N3    H9    S    
C24   H16   S    
Cu1   O1    S    
Cu2   O2    S    
C3    N7    S    
N5    C25   S    
H5    N1    S    
C9    C21   S    
C2    O2    A    
N3    C23   S    
N7    C27   S    
C4    N8    S    
Cu1   O8    S    
C7    C17   A    
C6    O8    A    
C16   N6    S    
C28   H30   S    
C2    O4    A    
C28   H31   S    
C25   H18   S    
Cu1   Cu2   S    
C15   N5    S    
C22   O10   D    
C23   H12   S    
C24   H15   S    
C25   H19   S    
C13   C19   S    
N4    H13   S    
C14   C20   S    
C23   H11   S    
C21   H7    S    
C5    C7    S    
C6    C8    S    
Cu1   O4    S    
C11   H4    S    
C26   H23   S    
C24   H14   S    
Cu2   O7    S    
C8    C18   A    
C1    C3    S    
C2    C4    S    
N8    H29   S    
N1    N2    D    
N8    C28   S    
C23   H10   S    
C20   H1    S    
C26   H24   S    
C9    C11   A    
C10   C12   A    
C8    C10   A    
C12   C14   A    
C13   C15   A    
C14   C16   A    
C22   H8    S    
C3    C4    D    
C18   N3    S    
C27   H27   S    
C28   H32   S    
C15   C17   A    
Cu2   O3    S    
C25   H20   S    
C27   H28   S    
Cu1   O5    S    
Cu2   O6    S    
Cu1   N2    S    
C12   H3    S    
H6    N2    S    
C19   H2    S    
C27   H26   S    
C11   C13   A    
N5    H17   S    
C5    O5    A    
C6    O6    A    
N7    H25   S    
N6    H21   S    
C7    C9    A    
C16   C18   A    
C26   H22   S    
N4    C24   S    
