data_mof_unit_7529.cif
_audit_creation_date              2013-03-05T16:10:47-0500
_audit_creation_method            fapswitch 2.2
_symmetry_space_group_name_H-M    P1
_symmetry_Int_Tables_number       1
_space_group_crystal_system       triclinic
_cell_length_a                    22.385991
_cell_length_b                    7.088476
_cell_length_c                    19.464872
_cell_angle_alpha                 90.409757
_cell_angle_beta                  99.385908
_cell_angle_gamma                 90.534305
_cell_volume                      3047.13441903

loop_
_atom_site_label
_atom_site_type_symbol
_atom_site_description
_atom_site_fract_x
_atom_site_fract_y
_atom_site_fract_z
_atom_type_partial_charge
O1    O     O_R   0.443980 0.494320 0.557430 -0.586005
O2    O     O_R   0.556020 0.994320 0.442570 -0.585263
O3    O     O_R   0.441210 0.822520 0.414610 -0.584931
O4    O     O_R   0.558790 0.322520 0.585390 -0.589501
C1    C     C_R   0.426740 0.653695 0.389024 0.929642
C2    C     C_R   0.573580 0.156478 0.610960 0.922457
O5    O     O_R   0.436920 0.823940 0.555180 -0.587747
O6    O     O_R   0.563080 0.323940 0.444820 -0.587824
O7    O     O_R   0.551700 0.995760 0.584140 -0.586679
O8    O     O_R   0.448300 0.495760 0.415860 -0.589443
C3    C     C_R   0.421581 0.655233 0.574850 0.968344
C4    C     C_R   0.578427 0.155576 0.425096 0.969533
O9    O     O_3   0.537660 0.661290 0.509340 -0.276546
O10   O     O_3   0.462340 0.161290 0.490660 -0.275858
V1    V     V_3+5 0.493010 0.935560 0.498270 1.183085
V2    V     V_3+5 0.506990 0.435560 0.501730 1.181932
H1    H     H_    0.706720 0.817559 0.293082 0.125377
H2    H     H_    0.291086 0.316678 0.704980 0.123162
C5    C     C_R   0.768728 0.931774 0.229972 -0.129285
C6    C     C_R   0.229583 0.431347 0.768395 -0.130297
H3    H     H_    0.782583 0.793651 0.214777 0.127661
H4    H     H_    0.214943 0.293335 0.783004 0.127315
C7    C     C_R   0.793844 0.095157 0.205251 0.165831
C8    C     C_R   0.205346 0.594914 0.793743 0.168472
C9    C     C_R   0.775033 0.272376 0.225861 -0.111176
C10   C     C_R   0.225176 0.771985 0.773916 -0.116595
H5    H     H_    0.793832 0.400231 0.207444 0.132313
H6    H     H_    0.207079 0.899966 0.792851 0.131942
C11   C     C_R   0.731799 0.286035 0.270541 -0.140550
C12   C     C_R   0.268567 0.785317 0.729400 -0.148705
H7    H     H_    0.717956 0.424166 0.285739 0.124346
H8    H     H_    0.283220 0.923338 0.714820 0.122494
C13   C     C_R   0.706724 0.122647 0.295329 0.168284
C14   C     C_R   0.292789 0.621746 0.704014 0.172333
C15   C     C_R   0.725498 0.945429 0.274655 -0.136787
C16   C     C_R   0.272976 0.444674 0.723881 -0.146390
C17   C     C_1   0.838948 0.081320 0.159263 0.046619
C18   C     C_1   0.160222 0.581383 0.839728 0.043577
C19   C     C_1   0.661760 0.136445 0.341531 0.013403
C20   C     C_1   0.337962 0.635283 0.658052 0.002345
C21   C     C_1   0.624002 0.146427 0.379846 -0.260585
C22   C     C_1   0.375876 0.645374 0.619925 -0.267804
C23   C     C_1   0.876792 0.071238 0.121091 -0.201090
C24   C     C_1   0.122471 0.571383 0.878031 -0.204731
C25   C     C_R   0.631167 0.195597 0.803561 -0.052137
C26   C     C_R   0.373058 0.565009 0.197972 -0.055315
H9    H     H_    0.546335 0.239059 0.735633 0.108238
H10   H     H_    0.458655 0.568088 0.267694 0.148174
C27   C     C_R   0.615273 0.152587 0.678052 -0.070707
C28   C     C_R   0.385922 0.637717 0.321721 -0.135970
C29   C     C_R   0.910342 0.091497 0.760898 -0.217915
C30   C     C_R   0.090969 0.562146 0.239843 -0.211681
C31   C     C_R   0.873092 0.120107 0.696205 0.325380
C32   C     C_R   0.129428 0.558437 0.304821 0.326564
C33   C     C_R   0.810400 0.130192 0.692330 -0.239604
C34   C     C_R   0.191957 0.576331 0.308308 -0.244411
C35   C     C_R   0.781861 0.102563 0.750851 0.057592
C36   C     C_R   0.218979 0.602549 0.248599 0.056465
C37   C     C_R   0.818605 0.064691 0.816362 0.044099
C38   C     C_R   0.180904 0.608866 0.182275 0.033913
C39   C     C_R   0.717549 0.118801 0.745869 0.090848
C40   C     C_R   0.283449 0.615120 0.253494 0.124867
C41   C     C_R   0.692247 0.134289 0.808009 0.005625
C42   C     C_R   0.309554 0.597255 0.191914 -0.081102
C43   C     C_R   0.727102 0.074784 0.871419 0.299241
C44   C     C_R   0.272158 0.624541 0.126763 0.238148
C45   C     C_R   0.788553 0.027102 0.873918 -0.295972
C46   C     C_R   0.209108 0.645657 0.123220 -0.247098
C47   C     C_R   0.677346 0.119718 0.681076 -0.202436
C48   C     C_R   0.322960 0.644721 0.317799 -0.203633
C49   C     C_R   0.593271 0.197889 0.738898 -0.254846
C50   C     C_R   0.410256 0.590061 0.262655 -0.132802
C51   C     C_R   0.883670 0.066598 0.821731 -0.176439
C52   C     C_R   0.116431 0.580345 0.177794 -0.194778
H11   H     H_    0.692684 0.089893 0.632405 0.104846
H12   H     H_    0.306118 0.676709 0.365410 0.110769
H13   H     H_    0.784686 0.163488 0.642216 0.163049
H14   H     H_    0.219011 0.559289 0.358975 0.160533
O11   O     O_R   0.051730 0.724670 0.084120 -0.569724
O12   O     O_R   0.948270 0.224670 0.915880 -0.598986
O13   O     O_R   0.063080 0.393540 0.944820 -0.588415
O14   O     O_R   0.936920 0.893540 0.055180 -0.589873
C53   C     C_R   0.077275 0.561899 0.923751 0.923307
C54   C     C_R   0.922275 0.061929 0.075757 0.931095
O15   O     O_R   0.058800 0.395030 0.085390 -0.562852
O16   O     O_R   0.941200 0.895030 0.914610 -0.543658
O17   O     O_R   0.943980 0.223310 0.057440 -0.556391
O18   O     O_R   0.056020 0.723310 0.942560 -0.558046
C55   C     C_R   0.074786 0.565744 0.109836 0.988845
C56   C     C_R   0.925038 0.062591 0.890139 0.969507
O19   O     O_3   0.962360 0.556290 0.990650 -0.252931
O20   O     O_3   0.037640 0.056290 0.009350 -0.237751
V3    V     V_3+5 0.006980 0.281990 0.001730 1.275266
V4    V     V_3+5 0.993020 0.781990 0.998270 1.292904
N1    N     N_R   0.898342 0.139452 0.633134 0.231286
O21   O     O_R   0.939267 0.022471 0.619116 -0.357143
O22   O     O_R   0.874563 0.256032 0.585202 -0.358450
N2    N     N_R   0.105913 0.526738 0.368378 0.231214
O23   O     O_R   0.066295 0.392907 0.371637 -0.366914
O24   O     O_R   0.130514 0.611943 0.425629 -0.355683
C57   C     C_2   0.815787 0.905177 0.931690 0.615194
H15   H     H_    0.818096 0.951292 0.985137 0.011893
O25   O     O_2   0.831871 0.745926 0.919604 -0.539430
C58   C     C_2   0.177192 0.744479 0.061738 0.590826
H16   H     H_    0.177392 0.687855 0.010123 0.016143
O26   O     O_2   0.155150 0.899008 0.068442 -0.542701
N3    N     N_R   0.697830 0.028585 0.929769 0.241204
O27   O     O_R   0.717488 0.100754 0.991047 -0.364398
O28   O     O_R   0.653591 0.905885 0.922432 -0.359414
N4    N     N_R   0.298708 0.666407 0.066038 0.212559
O29   O     O_R   0.283675 0.567545 0.009141 -0.418983
O30   O     O_R   0.334991 0.811021 0.066293 -0.367022
C59   C     C_2   0.606084 0.276321 0.863149 0.675768
H17   H     H_    0.557911 0.264546 0.864552 0.001667
O31   O     O_2   0.638068 0.367189 0.908723 -0.498753
C60   C     C_2   0.400987 0.485682 0.139986 0.651627
H18   H     H_    0.373656 0.407152 0.098049 0.061225
O32   O     O_2   0.455202 0.503324 0.139207 -0.545011
C61   C     C_2   0.977380 0.099669 0.764209 0.583677
H19   H     H_    0.997017 0.189208 0.728587 0.061872
O33   O     O_2   0.011213 0.003617 0.805069 -0.580726
C62   C     C_2   0.024099 0.558365 0.239046 0.570271
H20   H     H_    0.005806 0.615433 0.283046 0.071649
O34   O     O_2   0.988823 0.489147 0.190835 -0.583921

loop_
_geom_bond_atom_site_label_1
_geom_bond_atom_site_label_2
_geom_bond_distance
_ccdc_geom_bond_type
C36   C40   1.432675 A    
C44   C46   1.411267 A    
C41   C43   1.417609 A    
C17   C23   1.216781 T    
C57   H15   1.081248 S    
O14   V4    1.972117 S    
C25   C49   1.398731 A    
C31   C33   1.395647 A    
N1    O21   1.301480 A    
O1    C3    1.314546 A    
C54   O17   1.312931 A    
C24   C53   1.453748 S    
O2    C4    1.313157 A    
C2    O7    1.306910 A    
C58   O26   1.220399 D    
C19   C21   1.217208 T    
O5    C3    1.317718 A    
C13   C19   1.458536 S    
C14   C20   1.458332 S    
C52   C55   1.491179 S    
C5    H3    1.083387 S    
C8    C10   1.404935 A    
C51   C56   1.493407 S    
C30   C52   1.423277 A    
C33   H13   1.077619 S    
C35   C37   1.428843 A    
C31   N1    1.439708 S    
C36   C38   1.427511 A    
C11   C13   1.404801 A    
C34   H14   1.078093 S    
C60   H18   1.083870 S    
C40   C48   1.422951 A    
C3    C22   1.453917 S    
C38   C52   1.443875 A    
C39   C41   1.420761 A    
C28   C50   1.391000 A    
N4    O29   1.301463 A    
C40   C42   1.421970 A    
O16   V4    2.014794 S    
C37   C45   1.423183 A    
O15   V3    1.996845 S    
C6    C8    1.404635 A    
C60   O32   1.221481 D    
C43   C45   1.412842 A    
C29   C61   1.492122 S    
N3    O27   1.301508 A    
C37   C51   1.443109 A    
C26   C50   1.400792 A    
C20   C22   1.217090 T    
C53   O18   1.315496 A    
C57   O25   1.220934 D    
C27   C47   1.402927 A    
O12   C56   1.317997 A    
C23   C54   1.453681 S    
N3    O28   1.301405 A    
C30   C62   1.494480 S    
H10   C50   1.084658 S    
C58   H16   1.079940 S    
O13   C53   1.317513 A    
C30   C32   1.409724 A    
O18   V4    1.959903 S    
C61   O33   1.220928 D    
C9    C11   1.406252 A    
C32   C34   1.394850 A    
C12   C14   1.404797 A    
C46   C58   1.475049 S    
O11   V4    1.997047 S    
O4    C2    1.305574 A    
O16   C56   1.314699 A    
O15   C55   1.321738 A    
C7    C17   1.458021 S    
C25   C41   1.427931 A    
C26   C42   1.427875 A    
C29   C31   1.409420 A    
C42   C44   1.416573 A    
O4    V2    2.014593 S    
C5    C7    1.404637 A    
C18   C24   1.216643 T    
C4    C21   1.454115 S    
O19   V3    2.190152 S    
O13   V3    1.969078 S    
C8    C18   1.457784 S    
O6    C4    1.316757 A    
O20   V4    2.170789 S    
O1    V2    1.960077 S    
C44   N4    1.438511 S    
O2    V1    1.957778 S    
H9    C49   1.085089 S    
C6    H4    1.083388 S    
C10   C12   1.406154 A    
O14   C54   1.317544 A    
C33   C35   1.407960 A    
C48   H12   1.079340 S    
C1    C28   1.472919 S    
C62   O34   1.220425 D    
O3    V1    1.996648 S    
C45   C57   1.477610 S    
C59   H17   1.085629 S    
C39   C47   1.425003 A    
C10   H6    1.083385 S    
C29   C51   1.421760 A    
O3    C1    1.310230 A    
C61   H19   1.085069 S    
N1    O22   1.301516 A    
C35   C39   1.432848 A    
C9    H5    1.083387 S    
N2    O24   1.301510 A    
C26   C60   1.486181 S    
O7    V1    1.991248 S    
C1    O8    1.302050 A    
C11   H7    1.083359 S    
C5    C15   1.406209 A    
O19   V4    1.730776 S    
C12   H8    1.083362 S    
O17   V3    1.957606 S    
O5    V1    1.969114 S    
O20   V3    1.744515 S    
C13   C15   1.405141 A    
C34   C36   1.407681 A    
C47   H11   1.079200 S    
C14   C16   1.405070 A    
C7    C9    1.405025 A    
C2    C27   1.476746 S    
C28   C48   1.400396 A    
N4    O30   1.301400 A    
O11   C55   1.311756 A    
C6    C16   1.406137 A    
C25   C59   1.482220 S    
C38   C46   1.423352 A    
O6    V2    1.972153 S    
N2    O23   1.301551 A    
C27   C49   1.391473 A    
O9    V2    1.731051 S    
C62   H20   1.085071 S    
O10   V1    1.744792 S    
C32   N2    1.439555 S    
O8    V2    2.001597 S    
H1    C15   1.083352 S    
O12   V3    1.987171 S    
H2    C16   1.083345 S    
C43   N3    1.438974 S    
C59   O31   1.220871 D    
