data_mof_unit_27175.cif
_audit_creation_date              2012-12-11T14:13:31-0500
_audit_creation_method            fapswitch 2.2
_symmetry_space_group_name_H-M    P1
_symmetry_Int_Tables_number       1
_space_group_crystal_system       triclinic
_cell_length_a                    17.480741
_cell_length_b                    17.196928
_cell_length_c                    17.287858
_cell_angle_alpha                 90.048499
_cell_angle_beta                  90.020652
_cell_angle_gamma                 90.001921
_cell_volume                      5196.98799721

loop_
_atom_site_label
_atom_site_type_symbol
_atom_type_description
_atom_site_fract_x
_atom_site_fract_y
_atom_site_fract_z
_atom_type_partial_charge
C1    C     C_R   0.575653 0.333082 0.144989 -0.233484
C2    C     C_R   0.194805 0.106577 0.603557 -0.217753
C3    C     C_R   0.924564 0.166308 0.645476 -0.234939
C4    C     C_R   0.805237 0.893411 0.603516 -0.218445
C5    C     C_R   0.083618 0.175365 0.360761 -0.226431
C6    C     C_R   0.194373 0.893865 0.394908 -0.219383
C7    C     C_R   0.924350 0.833528 0.354610 -0.234860
C8    C     C_R   0.805359 0.106400 0.395955 -0.218937
C9    C     C_R   0.605409 0.697609 0.100811 0.341407
C10   C     C_R   0.327916 0.581741 0.141669 0.354765
C11   C     C_R   0.393924 0.301185 0.095905 0.343223
C12   C     C_R   0.694764 0.606586 0.103604 -0.218441
C13   C     C_R   0.672551 0.417374 0.141319 0.352448
C14   C     C_R   0.605415 0.302648 0.898139 0.340755
C15   C     C_R   0.327312 0.417717 0.858734 0.353740
C16   C     C_R   0.394597 0.697596 0.899260 0.341052
C17   C     C_R   0.672766 0.582563 0.858861 0.352758
C18   C     C_R   0.105464 0.197586 0.600935 0.341931
C19   C     C_R   0.827502 0.082429 0.641378 0.352912
C20   C     C_R   0.894599 0.802399 0.600708 0.341150
C21   C     C_R   0.172717 0.917531 0.641214 0.352647
C22   C     C_R   0.105224 0.802544 0.398633 0.340496
C23   C     C_R   0.424382 0.666429 0.145430 -0.235747
C24   C     C_R   0.827321 0.917494 0.358752 0.352981
C25   C     C_R   0.894701 0.197501 0.398932 0.348587
C26   C     C_R   0.178892 0.088917 0.365053 0.343838
C27   C     C_R   0.635531 0.362440 0.187420 0.087624
C28   C     C_R   0.680698 0.683163 0.120252 0.083416
C29   C     C_R   0.364665 0.636769 0.187913 0.086153
C30   C     C_R   0.316583 0.313303 0.108781 0.091183
C31   C     C_R   0.635763 0.637201 0.812493 0.086817
C32   C     C_R   0.680609 0.317362 0.878661 0.084307
C33   C     C_R   0.364457 0.363459 0.812074 0.085497
C34   C     C_R   0.303766 0.391093 0.096342 -0.219973
C35   C     C_R   0.319292 0.683149 0.879839 0.083564
C36   C     C_R   0.135736 0.862883 0.687571 0.086980
C37   C     C_R   0.180783 0.183143 0.620274 0.083693
C38   C     C_R   0.864654 0.137020 0.687774 0.086926
C39   C     C_R   0.819307 0.816846 0.620127 0.083501
C40   C     C_R   0.147897 0.149786 0.322770 0.083048
C41   C     C_R   0.180202 0.817241 0.378201 0.083153
C42   C     C_R   0.864376 0.862887 0.312339 0.086761
C43   C     C_R   0.819546 0.182865 0.379046 0.081265
C44   C     C_2   0.712453 0.639378 0.693114 -0.125828
C45   C     C_R   0.575692 0.666492 0.854688 -0.234613
C46   C     C_2   0.256339 0.810557 0.859549 -0.116051
C47   C     C_2   0.287604 0.361024 0.692700 -0.125919
C48   C     C_2   0.744589 0.190418 0.859601 -0.116139
C49   C     C_2   0.711776 0.360160 0.307024 -0.126101
C50   C     C_2   0.265450 0.184134 0.144373 -0.124636
C51   C     C_2   0.288118 0.639318 0.307459 -0.129189
C52   C     C_2   0.743820 0.810530 0.140360 -0.116049
C53   C     C_2   0.215065 0.145767 0.200019 -0.120284
C54   C     C_2   0.755792 0.309960 0.359335 -0.115265
C55   C     C_2   0.787809 0.860745 0.192830 -0.125803
C56   C     C_R   0.694714 0.393736 0.895949 -0.218726
C57   C     C_2   0.243957 0.690046 0.359265 -0.115573
C58   C     C_2   0.212433 0.860697 0.807012 -0.125403
C59   C     C_2   0.756373 0.689452 0.640553 -0.116040
C60   C     C_2   0.788277 0.139757 0.807360 -0.126115
C61   C     C_2   0.243821 0.310621 0.640208 -0.116723
C62   C     C_2   0.657256 0.669218 0.737589 -0.178820
C63   C     C_2   0.262928 0.734170 0.844852 -0.175769
C64   C     C_2   0.343072 0.331508 0.737013 -0.178508
C65   C     C_2   0.736778 0.266355 0.843344 -0.176445
C66   C     C_2   0.656892 0.330218 0.262236 -0.179661
C67   C     C_R   0.424570 0.334205 0.854187 -0.231268
C68   C     C_2   0.254347 0.258465 0.124520 -0.173859
C69   C     C_2   0.343360 0.668860 0.262926 -0.178127
C70   C     C_2   0.737054 0.734222 0.155247 -0.175537
C71   C     C_2   0.180229 0.187181 0.255405 -0.178732
C72   C     C_2   0.763327 0.233827 0.343781 -0.175190
C73   C     C_2   0.843029 0.830957 0.237291 -0.179188
C74   C     C_2   0.236261 0.765998 0.342955 -0.176100
C75   C     C_2   0.157191 0.830909 0.762522 -0.179108
C76   C     C_2   0.762965 0.765855 0.655155 -0.175362
C77   C     C_2   0.843362 0.169318 0.762664 -0.179397
C78   C     C_R   0.305226 0.606585 0.896459 -0.219066
C79   C     C_2   0.237213 0.234290 0.655131 -0.174936
C80   C     C_3   0.571748 0.776021 0.084081 -1.098549
C81   C     C_3   0.245924 0.557537 0.148094 -1.077999
C82   C     C_3   0.431486 0.224908 0.078290 -1.107749
C83   C     C_3   0.755492 0.438455 0.146536 -1.077340
C84   C     C_3   0.572065 0.223612 0.912690 -1.101070
C85   C     C_3   0.244241 0.438371 0.854010 -1.078258
C86   C     C_3   0.428292 0.776011 0.916047 -1.098156
C87   C     C_3   0.755855 0.561951 0.854193 -1.077350
C88   C     C_3   0.071839 0.276117 0.584666 -1.100549
C89   C     C_R   0.075695 0.833534 0.645325 -0.234808
C90   C     C_3   0.744526 0.061503 0.646511 -1.077167
C91   C     C_3   0.928280 0.723996 0.583875 -1.098374
C92   C     C_3   0.255722 0.938446 0.646075 -1.076917
C93   C     C_3   0.071897 0.724017 0.415550 -1.097660
C94   C     C_3   0.744250 0.938155 0.353948 -1.077313
C95   C     C_3   0.927208 0.275977 0.417433 -1.097179
C96   C     C_3   0.261329 0.065496 0.363839 -1.068235
H1    H     H_    0.535855 0.289777 0.164902 0.147781
H2    H     H_    0.251340 0.082567 0.597562 0.140643
H3    H     H_    0.964638 0.208868 0.666335 0.148420
H4    H     H_    0.748691 0.917422 0.597634 0.140459
H5    H     H_    0.047500 0.222329 0.342028 0.147693
H6    H     H_    0.250875 0.918156 0.399280 0.140977
H7    H     H_    0.964267 0.790751 0.333888 0.148295
H8    H     H_    0.748782 0.082451 0.401722 0.140904
H9    H     H_    0.732861 0.580593 0.701718 0.143795
H10   H     H_    0.290219 0.838596 0.903744 0.144320
H11   H     H_    0.266872 0.419684 0.701439 0.143954
H12   H     H_    0.751305 0.582552 0.097745 0.140368
H13   H     H_    0.711884 0.163054 0.905064 0.144234
H14   H     H_    0.731877 0.419121 0.298831 0.144125
H15   H     H_    0.317215 0.153115 0.131340 0.150683
H16   H     H_    0.267786 0.580408 0.299279 0.145854
H17   H     H_    0.710036 0.838461 0.096068 0.144024
H18   H     H_    0.217030 0.082751 0.203533 0.137666
H19   H     H_    0.788785 0.337902 0.404232 0.143482
H20   H     H_    0.767370 0.919524 0.201470 0.143816
H21   H     H_    0.210991 0.662662 0.404495 0.144215
H22   H     H_    0.232903 0.919461 0.798416 0.144315
H23   H     H_    0.464214 0.709359 0.166059 0.148556
H24   H     H_    0.790249 0.661358 0.596416 0.144037
H25   H     H_    0.767818 0.080912 0.799130 0.144217
H26   H     H_    0.209996 0.338441 0.595879 0.144263
H27   H     H_    0.630200 0.723813 0.721881 0.132505
H28   H     H_    0.229079 0.706182 0.800295 0.132713
H29   H     H_    0.370281 0.277010 0.721142 0.132821
H30   H     H_    0.769417 0.293686 0.797524 0.133233
H31   H     H_    0.630175 0.275334 0.277566 0.132230
H32   H     H_    0.198284 0.284343 0.133181 0.131393
H33   H     H_    0.370051 0.723769 0.278361 0.133025
H34   H     H_    0.247775 0.415248 0.086189 0.134039
H35   H     H_    0.770783 0.706352 0.199926 0.132756
H36   H     H_    0.178322 0.250228 0.254444 0.134649
H37   H     H_    0.730305 0.206072 0.298441 0.132804
H38   H     H_    0.870080 0.776352 0.221516 0.132545
H39   H     H_    0.269167 0.793254 0.297288 0.133053
H40   H     H_    0.130105 0.776332 0.778233 0.132480
H41   H     H_    0.729126 0.793898 0.699658 0.132647
H42   H     H_    0.870191 0.224168 0.778071 0.133097
H43   H     H_    0.271059 0.206535 0.699794 0.133148
H44   H     H_    0.574488 0.813247 0.136485 0.257725
H45   H     H_    0.535747 0.709242 0.833990 0.148356
H46   H     H_    0.603027 0.803596 0.035520 0.254004
H47   H     H_    0.511516 0.771211 0.065349 0.264855
H48   H     H_    0.240259 0.507476 0.188065 0.248959
H49   H     H_    0.210813 0.606643 0.169937 0.262958
H50   H     H_    0.223102 0.542648 0.090052 0.249908
H51   H     H_    0.438033 0.190412 0.132075 0.246875
H52   H     H_    0.398045 0.192545 0.034155 0.262613
H53   H     H_    0.489385 0.234224 0.054701 0.269967
H54   H     H_    0.764026 0.486487 0.188458 0.245441
H55   H     H_    0.789275 0.387290 0.165660 0.264507
H56   H     H_    0.751257 0.417737 0.901907 0.140836
H57   H     H_    0.777439 0.454998 0.088605 0.250413
H58   H     H_    0.577226 0.187104 0.859976 0.259424
H59   H     H_    0.602032 0.195782 0.961970 0.254404
H60   H     H_    0.511143 0.226933 0.928843 0.264257
H61   H     H_    0.235213 0.486293 0.812157 0.245424
H62   H     H_    0.210620 0.386993 0.835065 0.264578
H63   H     H_    0.222545 0.454918 0.912068 0.249461
H64   H     H_    0.425617 0.813170 0.863655 0.257850
H65   H     H_    0.396996 0.803665 0.964599 0.253934
H66   H     H_    0.488508 0.771192 0.934820 0.264892
H67   H     H_    0.464889 0.292302 0.832658 0.147703
H68   H     H_    0.764940 0.514096 0.812203 0.245101
H69   H     H_    0.789474 0.613362 0.835445 0.264432
H70   H     H_    0.777522 0.545335 0.912231 0.250450
H71   H     H_    0.075351 0.313296 0.637055 0.258337
H72   H     H_    0.102622 0.303608 0.535729 0.253860
H73   H     H_    0.011360 0.271642 0.566835 0.264024
H74   H     H_    0.735904 0.013552 0.688419 0.245468
H75   H     H_    0.710843 0.112759 0.665635 0.264278
H76   H     H_    0.722552 0.044928 0.588556 0.250447
H77   H     H_    0.925723 0.686836 0.636270 0.257682
H78   H     H_    0.248680 0.582583 0.902358 0.140447
H79   H     H_    0.896892 0.696331 0.535365 0.253982
H80   H     H_    0.988459 0.728848 0.565014 0.264854
H81   H     H_    0.264538 0.986461 0.687953 0.245418
H82   H     H_    0.289477 0.887208 0.665055 0.264333
H83   H     H_    0.277457 0.954964 0.588052 0.250399
H84   H     H_    0.074639 0.686708 0.363206 0.257879
H85   H     H_    0.103394 0.696644 0.464097 0.253824
H86   H     H_    0.011698 0.728620 0.434414 0.264639
H87   H     H_    0.735238 0.985979 0.311982 0.245023
H88   H     H_    0.710624 0.886746 0.335094 0.264421
H89   H     H_    0.035765 0.790763 0.665988 0.148363
H90   H     H_    0.722531 0.954838 0.411959 0.250485
H91   H     H_    0.926197 0.313554 0.365278 0.257962
H92   H     H_    0.894143 0.302996 0.465110 0.252691
H93   H     H_    0.986435 0.271426 0.438866 0.262746
H94   H     H_    0.271243 0.021349 0.318147 0.245014
H95   H     H_    0.297724 0.116881 0.351298 0.263596
H96   H     H_    0.278752 0.043259 0.421458 0.248870
N1    N     N_R   0.574080 0.369570 0.076720 -0.050880
N2    N     N_R   0.130430 0.074080 0.576720 -0.054356
N3    N     N_R   0.925920 0.130430 0.576720 -0.049897
N4    N     N_R   0.869570 0.925920 0.576720 -0.054314
N5    N     N_R   0.074080 0.130430 0.423280 -0.051043
N6    N     N_R   0.130430 0.925920 0.423280 -0.053715
N7    N     N_R   0.925920 0.869570 0.423280 -0.049771
N8    N     N_R   0.869570 0.074080 0.423280 -0.054778
N9    N     N_R   0.574050 0.630410 0.076720 -0.057805
N10   N     N_R   0.369590 0.574050 0.076720 -0.057894
N11   N     N_R   0.425950 0.369590 0.076720 -0.057990
N12   N     N_R   0.630430 0.574080 0.076720 -0.054215
N13   N     N_R   0.630410 0.425950 0.076720 -0.057799
N14   N     N_R   0.574050 0.369590 0.923280 -0.058466
N15   N     N_R   0.369590 0.425950 0.923280 -0.057845
N16   N     N_R   0.425950 0.630410 0.923280 -0.057884
N17   N     N_R   0.630410 0.574050 0.923280 -0.057696
N18   N     N_R   0.074050 0.130410 0.576720 -0.058059
N19   N     N_R   0.869590 0.074050 0.576720 -0.057764
N20   N     N_R   0.925950 0.869590 0.576720 -0.057913
N21   N     N_R   0.130410 0.925950 0.576720 -0.057634
N22   N     N_R   0.074050 0.869590 0.423280 -0.057673
N23   N     N_R   0.425920 0.630430 0.076720 -0.049984
N24   N     N_R   0.869590 0.925950 0.423280 -0.057756
N25   N     N_R   0.925950 0.130410 0.423280 -0.058146
N26   N     N_R   0.130410 0.074050 0.423280 -0.057401
N27   N     N_R   0.369570 0.425920 0.076720 -0.053274
N28   N     N_R   0.574080 0.630430 0.923280 -0.049805
N29   N     N_R   0.630430 0.425920 0.923280 -0.054566
N30   N     N_R   0.425920 0.369570 0.923280 -0.048803
N31   N     N_R   0.369570 0.574080 0.923280 -0.054390
N32   N     N_R   0.074080 0.869570 0.576720 -0.049846
Ni1   Ni    Ni4+2 0.500000 0.370760 0.000000 0.201842
Ni2   Ni    Ni4+2 0.629240 0.500000 0.000000 0.202086
Ni3   Ni    Ni4+2 0.500000 0.629240 0.000000 0.201678
Ni4   Ni    Ni4+2 0.370760 0.500000 0.000000 0.201377
Ni5   Ni    Ni4+2 0.000000 0.870760 0.500000 0.201806
Ni6   Ni    Ni4+2 0.129240 1.000000 0.500000 0.202325
Ni7   Ni    Ni4+2 1.000000 0.129240 0.500000 0.201479
Ni8   Ni    Ni4+2 0.870760 1.000000 0.500000 0.202184

loop_
_geom_bond_atom_site_label_1
_geom_bond_atom_site_label_2
_ccdc_geom_bond_type
C36   C89   A    
C79   H43   S    
C43   C72   S    
C40   C71   S    
C26   N26   A    
C24   C42   A    
N2    Ni6   S    
C25   N25   A    
C2    C37   A    
C8    C43   A    
C14   C84   S    
C25   C43   A    
C89   N32   A    
C82   H51   S    
C95   H91   S    
C21   C36   A    
C23   N23   A    
C44   H9    S    
N16   N31   A    
C50   H15   S    
C37   C79   S    
C59   H24   S    
C94   H88   S    
C12   C28   A    
C19   N19   A    
C23   C29   A    
C96   H95   S    
C18   N18   A    
C18   C37   A    
C17   N17   A    
C16   C35   A    
C23   H23   S    
C56   N29   A    
N21   N32   A    
C87   H70   S    
C55   H20   S    
C44   C59   S    
C49   C54   S    
C58   H22   S    
C66   H31   S    
C91   H77   S    
N9    Ni3   S    
C7    C42   A    
C96   H94   S    
C5    N5    A    
N26   Ni6   S    
N24   Ni8   S    
C71   H36   S    
C84   H58   S    
C81   H48   S    
N4    Ni8   S    
C3    C38   A    
C88   H72   S    
C6    C41   A    
C90   H75   S    
C58   C75   D    
N18   Ni7   S    
C86   H66   S    
N10   N23   A    
C56   H56   S    
C68   H32   S    
C83   H55   S    
C64   H29   S    
C52   C55   S    
C63   H28   S    
C78   N31   A    
C15   C85   S    
C83   H54   S    
C80   H47   S    
C20   N20   A    
C48   H13   S    
C41   C74   S    
C12   H12   S    
C7    H7    S    
C46   C58   S    
C16   C86   S    
N8    N25   A    
C31   C62   S    
C85   H61   S    
C13   N13   A    
C62   H27   S    
C93   H84   S    
C95   H92   S    
C48   C60   S    
C29   C69   S    
N5    Ni7   S    
C11   C82   S    
C26   C96   S    
C20   C91   S    
C5    H5    S    
C60   C77   D    
C50   C53   S    
N1    N13   A    
C49   C66   D    
C30   C34   A    
C32   C65   S    
N3    Ni7   S    
N7    N24   A    
C30   C68   S    
C92   H83   S    
C78   H78   S    
C77   H42   S    
C11   C30   A    
C80   H46   S    
N19   Ni8   S    
C1    H1    S    
N14   N29   A    
C6    N6    A    
C20   C39   A    
N31   Ni4   S    
C24   N24   A    
N10   Ni4   S    
C7    N7    A    
N30   Ni1   S    
C44   C62   D    
C76   H41   S    
N29   Ni2   S    
C54   H19   S    
C18   C88   S    
N28   Ni3   S    
C85   H63   S    
C61   H26   S    
C2    N2    A    
C9    C80   S    
C55   C73   D    
C57   C74   D    
C67   N30   A    
C1    N1    A    
N3    N19   A    
C36   C75   S    
C24   C94   S    
C22   C41   A    
N2    N18   A    
C10   N10   A    
C93   H86   S    
C4    C39   A    
C88   H71   S    
C74   H39   S    
C90   H74   S    
N14   Ni1   S    
C91   H79   S    
N13   Ni2   S    
C86   H65   S    
C11   N11   A    
C39   C76   S    
C75   H40   S    
C8    H8    S    
C12   N12   A    
C9    N9    A    
C45   H45   S    
C51   C57   S    
C92   H82   S    
C25   C95   S    
C47   H11   S    
C4    H4    S    
C31   C45   A    
C48   C65   D    
C22   C93   S    
C21   N21   A    
C8    N8    A    
N27   Ni4   S    
N17   Ni2   S    
N12   Ni2   S    
N5    N26   A    
C53   C71   D    
C47   C64   D    
C53   H18   S    
C33   C67   A    
C57   H21   S    
C4    N4    A    
C42   C73   S    
C88   H73   S    
C10   C81   S    
C34   N27   A    
N17   N28   A    
C89   H89   S    
C28   C70   S    
C94   H90   S    
C14   C32   A    
C16   N16   A    
N11   Ni1   S    
C47   C61   S    
C82   H52   S    
N6    Ni6   S    
C83   H57   S    
C38   C77   S    
N8    Ni8   S    
C13   C83   S    
C35   C78   A    
C81   H49   S    
N11   N27   A    
C46   C63   D    
C65   H30   S    
C96   H96   S    
C27   C66   S    
C22   N22   A    
N7    Ni5   S    
N1    Ni1   S    
N16   Ni3   S    
C19   C90   S    
C80   H44   S    
N32   Ni5   S    
N25   Ni7   S    
N20   Ni5   S    
C84   H60   S    
C10   C29   A    
C26   C40   A    
C72   H37   S    
C87   H69   S    
C86   H64   S    
C2    H2    S    
C61   C79   D    
C33   C64   S    
C17   C31   A    
C14   N14   A    
C46   H10   S    
C17   C87   S    
C70   H35   S    
N9    N12   A    
N23   Ni3   S    
C15   C33   A    
C91   H80   S    
C87   H68   S    
C93   H85   S    
C92   H81   S    
C6    H6    S    
C52   H17   S    
C60   H25   S    
C3    N3    A    
C82   H53   S    
C52   C70   D    
C51   H16   S    
C95   H93   S    
N4    N20   A    
C67   H67   S    
C3    H3    S    
N15   Ni4   S    
C19   C38   A    
C54   C72   D    
C73   H38   S    
C34   H34   S    
N15   N30   A    
C69   H33   S    
C81   H50   S    
C85   H62   S    
C5    C40   A    
C90   H76   S    
C84   H59   S    
C1    C27   A    
C45   N28   A    
C13   C27   A    
C35   C63   S    
C51   C69   D    
C94   H87   S    
N22   Ni5   S    
C50   C68   D    
C59   C76   D    
C32   C56   A    
C15   N15   A    
N21   Ni6   S    
C9    C28   A    
C49   H14   S    
C21   C92   S    
N6    N22   A    
