data_mof_unit_28546.cif
_audit_creation_date              2013-03-05T16:17:28-0500
_audit_creation_method            fapswitch 2.2
_symmetry_space_group_name_H-M    P1
_symmetry_Int_Tables_number       1
_space_group_crystal_system       triclinic
_cell_length_a                    30.854612
_cell_length_b                    33.647455
_cell_length_c                    8.460504
_cell_angle_alpha                 90.0
_cell_angle_beta                  90.304195
_cell_angle_gamma                 90.27822
_cell_volume                      8783.29166137

loop_
_atom_site_label
_atom_site_type_symbol
_atom_site_description
_atom_site_fract_x
_atom_site_fract_y
_atom_site_fract_z
_atom_type_partial_charge
P1    P     P_3+3 0.909970 0.458430 0.077330 0.480333
P2    P     P_3+3 0.909970 0.541570 0.577330 0.473379
P3    P     P_3+3 0.409970 0.958430 0.077330 0.478679
P4    P     P_3+3 0.409970 0.041570 0.577330 0.476104
O1    O     O_2   0.914200 0.445720 0.903420 -0.355023
O2    O     O_2   0.914200 0.554280 0.403420 -0.359376
O3    O     O_2   0.414200 0.945720 0.903420 -0.354664
O4    O     O_2   0.414200 0.054280 0.403420 -0.359101
O5    O     O_3   0.950020 0.480960 0.143730 -0.411666
O6    O     O_3   0.950020 0.519040 0.643730 -0.409790
O7    O     O_3   0.450020 0.980960 0.143730 -0.408827
O8    O     O_3   0.450020 0.019040 0.643730 -0.407864
O9    O     O_3   0.985090 0.412220 0.642040 -0.348035
O10   O     O_3   0.985090 0.587780 0.142040 -0.356278
O11   O     O_3   0.485090 0.912220 0.642040 -0.342032
O12   O     O_3   0.485090 0.087780 0.142040 -0.352151
O13   O     O_2   0.907219 0.387174 0.734542 -0.388830
O14   O     O_2   0.910902 0.616950 0.253224 -0.376852
O15   O     O_2   0.407229 0.886929 0.737060 -0.385456
O16   O     O_2   0.410513 0.116712 0.249121 -0.385054
O17   O     O_3   0.864270 0.488975 0.081434 -0.545891
O18   O     O_3   0.864649 0.510091 0.579372 -0.552741
O19   O     O_3   0.364427 0.989188 0.080818 -0.549203
O20   O     O_3   0.364527 0.010251 0.579776 -0.550506
O21   O     O_3   0.963073 0.330947 0.709661 -0.536394
O22   O     O_3   0.967694 0.670698 0.184339 -0.590299
O23   O     O_3   0.462073 0.830239 0.702962 -0.549249
O24   O     O_3   0.467591 0.170592 0.185930 -0.589494
C1    C     C_3   0.942705 0.265264 0.624772 -0.980751
C2    C     C_3   0.951172 0.733537 0.064493 -0.904738
C3    C     C_3   0.446292 0.764876 0.601850 -0.957589
C4    C     C_3   0.451213 0.234473 0.077528 -0.949397
H1    H     H_    0.952263 0.250461 0.736459 0.261655
H2    H     H_    0.957655 0.748821 0.178608 0.287538
H3    H     H_    0.454861 0.749532 0.713427 0.262429
H4    H     H_    0.460765 0.249958 0.188408 0.278377
H5    H     H_    0.908212 0.274043 0.634236 0.205781
H6    H     H_    0.916113 0.726930 0.056427 0.185970
H7    H     H_    0.411191 0.771675 0.604846 0.203164
H8    H     H_    0.416063 0.227788 0.083358 0.199221
P5    P     P_3+3 0.089830 0.458070 0.612460 0.586364
P6    P     P_3+3 0.089830 0.541930 0.112460 0.560221
P7    P     P_3+3 0.589830 0.958070 0.612460 0.561220
P8    P     P_3+3 0.589830 0.041930 0.112460 0.536841
P9    P     P_3+3 0.053042 0.375503 0.076266 0.573703
P10   P     P_3+3 0.058506 0.619841 0.573353 0.547720
P11   P     P_3+3 0.555276 0.877303 0.078494 0.546358
P12   P     P_3+3 0.558521 0.119723 0.575977 0.547219
O25   O     O_2   0.085560 0.445380 0.786390 -0.309304
O26   O     O_2   0.085560 0.554620 0.286390 -0.305016
O27   O     O_2   0.585560 0.945380 0.786390 -0.304217
O28   O     O_2   0.585560 0.054620 0.286390 -0.310946
O29   O     O_3   0.014550 0.412170 0.047860 -0.365676
O30   O     O_3   0.014550 0.587830 0.547860 -0.385019
O31   O     O_3   0.514550 0.912170 0.047860 -0.370303
O32   O     O_3   0.514550 0.087830 0.547860 -0.389590
O33   O     O_2   0.088699 0.383509 0.954347 -0.224871
O34   O     O_2   0.075779 0.628868 0.405701 -0.295694
O35   O     O_2   0.593012 0.888408 0.968670 -0.263510
O36   O     O_2   0.576038 0.129508 0.409328 -0.282695
O37   O     O_3   0.128166 0.497419 0.605982 -0.539963
O38   O     O_3   0.128479 0.503665 0.121656 -0.543489
O39   O     O_3   0.632628 0.992497 0.638464 -0.577195
O40   O     O_3   0.631216 0.007132 0.145922 -0.601204
O41   O     O_3   0.029819 0.330797 0.012417 -0.452119
O42   O     O_3   0.036499 0.665093 0.636545 -0.531171
O43   O     O_3   0.535689 0.832169 0.004403 -0.473394
O44   O     O_3   0.537443 0.165056 0.642278 -0.514393
C5    C     C_3   0.998925 0.318918 0.125073 0.344125
C6    C     C_3   0.004397 0.676933 0.528210 0.436172
C7    C     C_3   0.500146 0.820598 0.098101 0.375757
C8    C     C_3   0.500275 0.174130 0.553076 0.429052
H9    H     H_    0.968434 0.335890 0.107661 0.105724
H10   H     H_    0.018277 0.679604 0.408210 0.183471
H11   H     H_    0.470515 0.836594 0.058866 0.126667
H12   H     H_    0.506314 0.169610 0.425442 0.184121
H13   H     H_    0.010597 0.323174 0.248389 0.050556
H14   H     H_    0.976765 0.655563 0.527662 0.110924
H15   H     H_    0.505603 0.826569 0.225906 0.041073
H16   H     H_    0.472381 0.155428 0.592522 0.074019
C9    C     C_3   0.989594 0.274818 0.105756 -0.638484
C10   C     C_3   0.987438 0.717660 0.573938 -0.742258
C11   C     C_3   0.492753 0.776101 0.081809 -0.724787
C12   C     C_3   0.489077 0.217718 0.575886 -0.708982
H17   H     H_    0.972033 0.269469 0.993216 0.248546
H18   H     H_    0.014637 0.739329 0.581304 0.282464
H19   H     H_    0.479419 0.769201 0.963204 0.255152
H20   H     H_    0.517740 0.236699 0.549320 0.282448
H21   H     H_    0.020392 0.257866 0.105934 0.263306
H22   H     H_    0.970804 0.716125 0.689654 0.237241
H23   H     H_    0.523724 0.759963 0.099349 0.266127
H24   H     H_    0.478632 0.223157 0.699371 0.244918
C13   C     C_3   0.167160 0.517567 0.191274 0.243026
C14   C     C_3   0.158603 0.498731 0.730868 0.100029
C15   C     C_3   0.649601 0.994316 0.003936 0.074774
C16   C     C_3   0.652721 0.001298 0.493499 -0.014929
H25   H     H_    0.174678 0.547925 0.150705 0.076260
H26   H     H_    0.155208 0.474736 0.817192 0.149976
H27   H     H_    0.635743 0.964888 0.979159 0.235518
H28   H     H_    0.641957 0.030971 0.456699 0.207894
H29   H     H_    0.164011 0.517041 0.321602 0.156577
H30   H     H_    0.151780 0.525896 0.800410 0.075035
H31   H     H_    0.641905 0.014321 0.904409 0.088003
H32   H     H_    0.643839 0.979827 0.399596 0.118148
C17   C     C_3   0.205956 0.492427 0.138480 -0.019691
C18   C     C_3   0.205224 0.501050 0.662339 -0.002615
C19   C     C_3   0.699518 0.990398 0.015939 0.005892
C20   C     C_3   0.702792 0.001817 0.503680 -0.023406
H33   H     H_    0.207395 0.494366 0.008894 0.092706
H34   H     H_    0.203517 0.496389 0.533242 0.132287
H35   H     H_    0.711511 0.987590 0.893599 0.181219
H36   H     H_    0.713853 0.005339 0.380873 0.112100
Ba1   Ba    Ba6+2 0.999930 0.472870 0.844940 1.687069
Ba2   Ba    Ba6+2 0.999930 0.527130 0.344940 1.678114
Ba3   Ba    Ba6+2 0.499930 0.972870 0.844940 1.661191
Ba4   Ba    Ba6+2 0.499930 0.027130 0.344940 1.649810
C21   C     C_3   0.874349 0.525944 0.015897 0.361909
C22   C     C_3   0.875576 0.473329 0.514304 0.368522
C23   C     C_3   0.374831 0.026175 0.016028 0.373472
C24   C     C_3   0.375159 0.973493 0.514141 0.378294
H37   H     H_    0.884384 0.522133 0.891582 0.096914
H38   H     H_    0.886290 0.477362 0.390911 0.096647
H39   H     H_    0.385103 0.022421 0.891971 0.096797
H40   H     H_    0.385664 0.977562 0.390515 0.096415
H41   H     H_    0.900368 0.541003 0.085006 0.124095
H42   H     H_    0.901461 0.458821 0.584978 0.132364
H43   H     H_    0.400801 0.041064 0.085936 0.126850
H44   H     H_    0.401082 0.958834 0.584149 0.130077
C25   C     C_3   0.833893 0.551589 0.019898 -0.813261
C26   C     C_3   0.835556 0.446727 0.515125 -0.808031
C27   C     C_3   0.334517 0.052018 0.019338 -0.829505
C28   C     C_3   0.334976 0.947100 0.515669 -0.827959
H45   H     H_    0.807260 0.536904 0.952720 0.277457
H46   H     H_    0.809265 0.460513 0.444026 0.277716
H47   H     H_    0.308021 0.037650 0.950379 0.277797
H48   H     H_    0.308594 0.961133 0.445802 0.274381
H49   H     H_    0.840405 0.580944 0.965893 0.222930
H50   H     H_    0.843126 0.417311 0.463753 0.216270
H51   H     H_    0.341390 0.081499 0.966956 0.222203
H52   H     H_    0.342202 0.917731 0.463311 0.220625
H53   H     H_    0.823535 0.556124 0.144105 0.262120
H54   H     H_    0.824188 0.442384 0.638299 0.264997
H55   H     H_    0.323773 0.056267 0.143263 0.261891
H56   H     H_    0.323891 0.942631 0.639119 0.265041
O45   O     O_3   0.049930 0.518940 0.045960 -0.340203
O46   O     O_3   0.049930 0.481060 0.545960 -0.346453
O47   O     O_3   0.549930 0.018940 0.045960 -0.357901
O48   O     O_3   0.549930 0.981060 0.545960 -0.358019
P13   P     P_3+3 0.945155 0.625107 0.124670 0.455654
P14   P     P_3+3 0.944373 0.375159 0.623225 0.473797
P15   P     P_3+3 0.445307 0.125232 0.122799 0.450144
P16   P     P_3+3 0.443967 0.875429 0.623119 0.474577
C29   C     C_3   0.971057 0.301734 0.593878 1.126446
C30   C     C_3   0.977296 0.695232 0.053654 0.980182
C31   C     C_3   0.472684 0.803060 0.582153 1.060768
C32   C     C_3   0.476942 0.196136 0.058292 1.014472
H57   H     H_    0.965078 0.311363 0.470687 -0.213823
H58   H     H_    0.971169 0.681417 0.936706 -0.080211
H59   H     H_    0.466992 0.813992 0.460518 -0.160804
H60   H     H_    0.469889 0.183549 0.939831 -0.093341
H61   H     H_    0.945886 0.243667 0.526257 0.260961
H62   H     H_    0.959667 0.753861 0.965846 0.257517
H63   H     H_    0.452454 0.744452 0.501375 0.261868
H64   H     H_    0.457009 0.254607 0.975704 0.260161
H65   H     H_    0.969455 0.264090 0.205464 0.232306
H66   H     H_    0.964005 0.728083 0.483117 0.250447
H67   H     H_    0.469450 0.765771 0.172593 0.244950
H68   H     H_    0.462376 0.225984 0.493921 0.234381
H69   H     H_    0.150131 0.781742 0.081334 0.226049
H70   H     H_    0.146360 0.215245 0.660276 0.226315
H71   H     H_    0.652297 0.282243 0.047489 0.228039
H72   H     H_    0.650815 0.727394 0.770122 0.226001
C33   C     C_R   0.929121 0.406076 0.315561 -0.493359
C34   C     C_R   0.927827 0.592850 0.820027 -0.472067
C35   C     C_R   0.428694 0.906457 0.316092 -0.492793
C36   C     C_R   0.428141 0.093226 0.818191 -0.478808
C37   C     C_R   0.258730 0.696253 0.946814 -0.089559
C38   C     C_R   0.250250 0.296024 0.444584 -0.090977
C39   C     C_R   0.760749 0.193027 0.953809 -0.111154
C40   C     C_R   0.744829 0.790620 0.434835 -0.074101
C41   C     C_R   0.227078 0.668764 0.886907 0.621457
C42   C     C_R   0.217061 0.322746 0.391741 0.616184
C43   C     C_R   0.729291 0.164947 0.896070 0.626228
C44   C     C_R   0.710756 0.817070 0.386947 0.590865
O49   O     O_2   0.238184 0.639975 0.810389 -0.493763
O50   O     O_2   0.225878 0.350772 0.306523 -0.491251
O51   O     O_2   0.740601 0.133814 0.835453 -0.480524
O52   O     O_2   0.716690 0.841656 0.283273 -0.515567
N1    N     N_R   0.183434 0.674594 0.912268 -0.165936
N2    N     N_R   0.174410 0.317257 0.435457 -0.174337
N3    N     N_R   0.685514 0.172384 0.908776 -0.169782
N4    N     N_R   0.670490 0.815267 0.457185 -0.174688
C45   C     C_R   0.169465 0.710705 0.968253 0.684017
C46   C     C_R   0.162226 0.282580 0.509615 0.657280
C47   C     C_R   0.671538 0.209467 0.953619 0.651157
C48   C     C_R   0.661209 0.785388 0.562854 0.705136
O53   O     O_2   0.130747 0.717142 0.976370 -0.483903
O54   O     O_2   0.124050 0.276453 0.536533 -0.492106
O55   O     O_2   0.632827 0.216640 0.952786 -0.483923
O56   O     O_2   0.625146 0.783187 0.619713 -0.477061
C49   C     C_R   0.199382 0.740171 0.017334 -0.175386
C50   C     C_R   0.193349 0.254356 0.556775 -0.163300
C51   C     C_R   0.701427 0.239020 0.002094 -0.164112
C52   C     C_R   0.692950 0.757740 0.608459 -0.176502
C53   C     C_R   0.244252 0.732846 0.010258 0.021008
C54   C     C_R   0.237662 0.261163 0.527363 0.030507
C55   C     C_R   0.746184 0.230794 0.005766 0.018158
C56   C     C_R   0.735092 0.760252 0.545986 0.032629
C57   C     C_R   0.304049 0.688520 0.944073 -0.183778
C58   C     C_R   0.295201 0.302638 0.415930 -0.156895
C59   C     C_R   0.805927 0.184692 0.961156 -0.178430
C60   C     C_R   0.787855 0.793186 0.374898 -0.160935
C61   C     C_R   0.835863 0.214272 0.011929 -0.112020
C62   C     C_R   0.819490 0.764645 0.419174 -0.087002
C63   C     C_R   0.334164 0.717951 0.994439 -0.112853
C64   C     C_R   0.326428 0.274139 0.463910 -0.104337
C65   C     C_R   0.821047 0.252059 0.066578 -0.068046
C66   C     C_R   0.809685 0.734570 0.533066 -0.064379
C67   C     C_R   0.319503 0.754803 0.058736 -0.059273
C68   C     C_R   0.313696 0.239831 0.552037 -0.067375
C69   C     C_R   0.776003 0.260434 0.061494 -0.018520
C70   C     C_R   0.767140 0.732296 0.595585 -0.026049
C71   C     C_R   0.274272 0.762267 0.065782 -0.026932
C72   C     C_R   0.268997 0.232921 0.580485 -0.027552
C73   C     C_R   0.184657 0.776429 0.076782 -0.200681
C74   C     C_R   0.180462 0.220028 0.637465 -0.214059
C75   C     C_R   0.686716 0.276274 0.050907 -0.200058
C76   C     C_R   0.683120 0.728627 0.720954 -0.200641
C77   C     C_R   0.714908 0.305881 0.105932 0.450378
C78   C     C_R   0.714007 0.701745 0.775356 0.558366
C79   C     C_R   0.213037 0.805885 0.131810 0.555774
C80   C     C_R   0.210242 0.192082 0.692464 0.556736
C81   C     C_R   0.760559 0.298349 0.112681 -0.253661
C82   C     C_R   0.756460 0.702190 0.708579 -0.270446
C83   C     C_R   0.258847 0.799097 0.128308 -0.268356
C84   C     C_R   0.255445 0.197810 0.662392 -0.267205
C85   C     C_R   0.791362 0.326986 0.168290 0.585576
C86   C     C_R   0.788557 0.673686 0.749025 0.610474
C87   C     C_R   0.289858 0.827407 0.184508 0.607175
C88   C     C_R   0.287643 0.169922 0.709531 0.609424
N5    N     N_R   0.834881 0.318120 0.177670 -0.169079
N6    N     N_R   0.830269 0.677377 0.694206 -0.174336
N7    N     N_R   0.333592 0.819452 0.180725 -0.171318
N8    N     N_R   0.331043 0.178113 0.689806 -0.172719
C89   C     C_R   0.849762 0.281386 0.130959 0.515939
C90   C     C_R   0.841455 0.707389 0.591243 0.518843
C91   C     C_R   0.348609 0.784025 0.121028 0.517252
C92   C     C_R   0.344379 0.212675 0.617181 0.516197
C93   C     C_2   0.132703 0.635235 0.741598 -0.099845
C94   C     C_2   0.113163 0.346591 0.285198 -0.080128
C95   C     C_2   0.633131 0.134343 0.741091 -0.115318
C96   C     C_2   0.610440 0.844980 0.299210 -0.087021
C97   C     C_3   0.101389 0.603744 0.718056 0.233986
C98   C     C_3   0.076212 0.372117 0.281331 0.079263
C99   C     C_3   0.600982 0.103489 0.720152 0.136224
C100  C     C_3   0.575158 0.872539 0.287269 0.120578
C101  C     C_1   0.105963 0.587302 0.000654 0.024284
C102  C     C_1   0.105822 0.412338 0.499331 0.092788
C103  C     C_1   0.606449 0.087148 0.001954 0.059418
C104  C     C_1   0.605229 0.911979 0.504391 0.077235
C105  C     C_2   0.138485 0.616348 0.026939 0.374057
C106  C     C_2   0.136343 0.381538 0.531037 0.458668
C107  C     C_2   0.640265 0.114856 0.025300 0.416069
C108  C     C_2   0.634031 0.880784 0.542625 0.414264
C109  C     C_2   0.152395 0.642007 0.890056 0.014214
C110  C     C_2   0.142541 0.348804 0.411387 0.087123
C111  C     C_2   0.654067 0.140234 0.887790 0.040714
C112  C     C_2   0.638709 0.846583 0.429708 0.060416
C113  C     C_R   0.887217 0.343240 0.371892 -0.216827
C114  C     C_R   0.883323 0.653243 0.884324 -0.246244
C115  C     C_R   0.385888 0.844294 0.374432 -0.219551
C116  C     C_R   0.384451 0.154305 0.880220 -0.230881
C117  C     C_R   0.920558 0.372764 0.421830 0.127171
C118  C     C_R   0.917590 0.624758 0.930547 0.150144
C119  C     C_R   0.419452 0.873609 0.423468 0.131008
C120  C     C_R   0.418340 0.125456 0.927524 0.146883
C121  C     C_R   0.904530 0.411349 0.186647 0.299579
C122  C     C_R   0.903913 0.587968 0.689132 0.295942
C123  C     C_R   0.404209 0.911676 0.187022 0.301574
C124  C     C_R   0.403854 0.088032 0.688515 0.298765
C125  C     C_R   0.873325 0.382655 0.142048 -0.202263
C126  C     C_R   0.872073 0.615927 0.646898 -0.205448
C127  C     C_R   0.372585 0.883353 0.143357 -0.210497
C128  C     C_R   0.371815 0.115845 0.646563 -0.215549
C129  C     C_R   0.865722 0.348116 0.233346 0.159644
C130  C     C_R   0.862826 0.648916 0.743880 0.176311
C131  C     C_R   0.364571 0.849190 0.235820 0.165518
C132  C     C_R   0.363207 0.149405 0.741389 0.172142
O57   O     O_2   0.779749 0.359883 0.209958 -0.488146
O58   O     O_2   0.779545 0.645031 0.830804 -0.497170
O59   O     O_2   0.278302 0.859192 0.238319 -0.497511
O60   O     O_2   0.277423 0.138127 0.767690 -0.498563
O61   O     O_2   0.888231 0.274302 0.146974 -0.632446
O62   O     O_2   0.879366 0.710603 0.552683 -0.609075
O63   O     O_2   0.387555 0.778085 0.123461 -0.628312
O64   O     O_2   0.383134 0.219861 0.611567 -0.616781
C133  C     C_2   0.081510 0.591847 0.864656 -0.358588
C134  C     C_2   0.084152 0.409971 0.355216 -0.314054
C135  C     C_2   0.581307 0.092472 0.868082 -0.339694
C136  C     C_2   0.585375 0.910226 0.357453 -0.367750
H73   H     H_    0.880286 0.317828 0.445641 0.139074
H74   H     H_    0.874503 0.677110 0.962928 0.133416
H75   H     H_    0.378584 0.819107 0.448846 0.135073
H76   H     H_    0.376648 0.178951 0.956567 0.134028
H77   H     H_    0.143256 0.652803 0.641101 0.190123
H78   H     H_    0.115576 0.322106 0.202008 0.140435
H79   H     H_    0.643379 0.151923 0.640202 0.190425
H80   H     H_    0.612533 0.820155 0.217546 0.156936
H81   H     H_    0.854638 0.387200 0.034942 0.167854
H82   H     H_    0.853565 0.611629 0.539082 0.155643
H83   H     H_    0.353871 0.887895 0.036296 0.164210
H84   H     H_    0.353011 0.111239 0.539621 0.159591
H85   H     H_    0.952929 0.428143 0.350509 0.168602
H86   H     H_    0.952171 0.571328 0.853159 0.164814
H87   H     H_    0.452803 0.928309 0.350452 0.171252
H88   H     H_    0.452572 0.071771 0.851238 0.167132
H89   H     H_    0.046398 0.591445 0.875216 0.164674
H90   H     H_    0.077672 0.437075 0.289468 0.185269
H91   H     H_    0.546257 0.092988 0.880809 0.169165
H92   H     H_    0.582585 0.937195 0.287423 0.171846
S1    S     S_3+6 0.026654 0.288610 0.603685 0.025167
O65   O     O_2   0.037661 0.263761 0.462013 -0.284042
O66   O     O_2   0.053184 0.326163 0.603272 -0.285869
O67   O     O_3   0.036999 0.262775 0.769664 -0.493996
H93   H     H_    0.068905 0.263785 0.782758 0.410464
S2    S     S_3+6 0.033370 0.707118 0.058486 0.025320
O68   O     O_2   0.058541 0.669173 0.070321 -0.277820
O69   O     O_2   0.045015 0.728568 0.908720 -0.229296
O70   O     O_3   0.044734 0.736270 0.215011 -0.519842
H94   H     H_    0.076627 0.735075 0.227729 0.405915
S3    S     S_3+6 0.528883 0.792652 0.595648 0.017570
O71   O     O_2   0.544553 0.776800 0.440219 -0.300909
O72   O     O_2   0.552333 0.830778 0.633463 -0.275976
O73   O     O_3   0.538508 0.758755 0.737845 -0.484792
H95   H     H_    0.559311 0.771467 0.811785 0.409426
S4    S     S_3+6 0.533338 0.207317 0.061800 0.033523
O74   O     O_2   0.558064 0.169259 0.046223 -0.277223
O75   O     O_2   0.544017 0.234398 0.926067 -0.234062
O76   O     O_3   0.546739 0.229602 0.233188 -0.520872
H96   H     H_    0.578796 0.231330 0.232455 0.406324
C137  C     C_2   0.248625 0.507891 0.201367 0.585079
H97   H     H_    0.278299 0.492552 0.171070 0.111080
O77   O     O_2   0.250738 0.537645 0.283692 -0.489521
C138  C     C_2   0.234394 0.468876 0.725945 0.537190
H98   H     H_    0.227531 0.438356 0.696360 0.124505
O78   O     O_2   0.266450 0.476388 0.806084 -0.469465
C139  C     C_2   0.720335 0.027199 0.083446 0.711778
H99   H     H_    0.700537 0.051531 0.123228 0.058380
O79   O     O_2   0.759719 0.030566 0.089921 -0.438077
C140  C     C_2   0.720129 0.962379 0.557147 0.813134
H100  H     H_    0.708191 0.935776 0.499877 0.055038
O80   O     O_2   0.748540 0.959423 0.657676 -0.458973
S5    S     S_3+6 0.200629 0.440937 0.186329 0.008019
O81   O     O_2   0.156378 0.426200 0.141050 -0.210530
O82   O     O_2   0.233701 0.417872 0.094729 -0.194332
O83   O     O_3   0.208505 0.433468 0.380409 -0.576515
H101  H     H_    0.240353 0.434286 0.395300 0.372121
S6    S     S_3+6 0.229225 0.549301 0.688092 0.077290
O84   O     O_2   0.273109 0.550286 0.611991 -0.119818
O85   O     O_2   0.201102 0.580013 0.610809 -0.241694
O86   O     O_3   0.235204 0.559498 0.881332 -0.439447
H102  H     H_    0.206717 0.569678 0.914891 0.318630
S7    S     S_3+6 0.717033 0.945960 0.117601 0.034824
O87   O     O_2   0.680256 0.928144 0.209421 -0.319411
O88   O     O_2   0.732172 0.915844 0.999272 -0.142154
O89   O     O_3   0.758731 0.955547 0.241087 -0.507542
H103  H     H_    0.785234 0.952764 0.176590 0.413298
S8    S     S_3+6 0.726281 0.044166 0.604578 0.077883
O90   O     O_2   0.772031 0.035502 0.655219 -0.123989
O91   O     O_2   0.727494 0.079015 0.494005 -0.191132
O92   O     O_3   0.697784 0.056728 0.764037 -0.552337
H104  H     H_    0.668035 0.059641 0.723527 0.319998
S9    S     S_3+6 0.690053 0.351116 0.166876 0.073841
O93   O     O_2   0.706451 0.384730 0.066219 -0.162948
O94   O     O_2   0.641554 0.349019 0.149983 -0.235893
O95   O     O_3   0.702273 0.360472 0.357332 -0.424471
H105  H     H_    0.693339 0.336185 0.414996 0.337242
S10   S     S_3+6 0.697798 0.670553 0.934939 0.036537
O96   O     O_2   0.654690 0.683236 0.999406 -0.265173
O97   O     O_2   0.694083 0.628391 0.877516 -0.191491
O98   O     O_3   0.734929 0.673380 0.080956 -0.514630
H106  H     H_    0.725180 0.653883 0.161147 0.385091
S11   S     S_3+6 0.188346 0.850136 0.203839 0.050797
O99   O     O_2   0.203760 0.885092 0.108329 -0.214041
O100  O     O_2   0.139768 0.847674 0.191492 -0.241280
O101  O     O_3   0.202008 0.856735 0.394883 -0.472610
H107  H     H_    0.190721 0.883332 0.422622 0.395049
S12   S     S_3+6 0.188298 0.151866 0.804130 0.043679
O102  O     O_2   0.140613 0.157413 0.831981 -0.251587
O103  O     O_2   0.194781 0.113671 0.715268 -0.204506
O104  O     O_3   0.213593 0.149362 0.980516 -0.491832
H108  H     H_    0.202565 0.124637 0.029838 0.392378
C141  C     C_2   0.883018 0.205256 0.004276 0.590284
H109  H     H_    0.904601 0.224970 0.940505 0.040565
O105  O     O_2   0.898013 0.176275 0.071565 -0.526890
C142  C     C_2   0.862614 0.765869 0.341036 0.555559
H110  H     H_    0.875339 0.739150 0.287432 0.052580
O106  O     O_2   0.884431 0.796243 0.339565 -0.532951
C143  C     C_2   0.381265 0.709589 0.977817 0.582647
H111  H     H_    0.401662 0.729761 0.911057 0.046040
O107  O     O_2   0.397539 0.680621 0.041085 -0.528726
C144  C     C_2   0.372393 0.279779 0.415015 0.577312
H112  H     H_    0.389448 0.255691 0.357577 0.039396
O108  O     O_2   0.391685 0.310850 0.441752 -0.526737
C145  C     C_2   0.321146 0.649304 0.893231 0.858757
H113  H     H_    0.345222 0.647748 0.800434 -0.033910
O109  O     O_2   0.310207 0.618873 0.961118 -0.435706
C146  C     C_2   0.310807 0.339359 0.336545 0.835901
H114  H     H_    0.329108 0.337274 0.227717 -0.027833
O110  O     O_2   0.305323 0.371862 0.397271 -0.498860
C147  C     C_2   0.823088 0.144886 0.918808 0.853022
H115  H     H_    0.847242 0.142151 0.826742 -0.030322
O111  O     O_2   0.812124 0.115394 0.992916 -0.433824
C148  C     C_2   0.801020 0.825536 0.265358 0.845424
H116  H     H_    0.813671 0.818296 0.149522 -0.043080
O112  O     O_2   0.800057 0.860215 0.307720 -0.457301
S13   S     S_3+6 0.163015 0.627068 0.214156 -0.006012
O113  O     O_2   0.148899 0.667586 0.267321 -0.269517
O114  O     O_2   0.152213 0.597619 0.340683 -0.253430
O115  O     O_3   0.217139 0.627487 0.192504 -0.510098
H117  H     H_    0.228650 0.639031 0.291994 0.399134
S14   S     S_3+6 0.163633 0.373525 0.713975 -0.000231
O116  O     O_2   0.210787 0.365764 0.684267 -0.311567
O117  O     O_2   0.160424 0.407708 0.824911 -0.267688
O118  O     O_3   0.142305 0.332914 0.800087 -0.480034
H118  H     H_    0.161029 0.327796 0.893291 0.375765
S15   S     S_3+6 0.663373 0.126468 0.212911 -0.007162
O119  O     O_2   0.646815 0.166308 0.264887 -0.278795
O120  O     O_2   0.652837 0.096220 0.336176 -0.278494
O121  O     O_3   0.717616 0.129035 0.198286 -0.511766
H119  H     H_    0.727123 0.146610 0.285956 0.385997
S16   S     S_3+6 0.668179 0.880550 0.711661 0.014130
O122  O     O_2   0.714123 0.872590 0.663453 -0.283652
O123  O     O_2   0.666588 0.919639 0.794596 -0.291717
O124  O     O_3   0.652726 0.844107 0.835296 -0.468634
H120  H     H_    0.673399 0.845553 0.925142 0.396299

loop_
_geom_bond_atom_site_label_1
_geom_bond_atom_site_label_2
_geom_bond_distance
_ccdc_geom_bond_type
C28   H56   1.110750 S    
O25   Ba1   2.849413 S    
S15   O119  1.503478 D    
C93   C97   1.443587 A    
C147  O111  1.221164 D    
C18   C138  1.508633 S    
O118  H118  0.990637 S    
C114  C118  1.481499 S    
P5    O37   1.772168 S    
C104  C108  1.414945 A    
C51   C75   1.398337 A    
P7    O39   1.765237 S    
P8    O40   1.758521 S    
C107  C111  1.505228 S    
P9    O33   1.534968 D    
C101  C105  1.414084 A    
O5    Ba2   2.762556 S    
O115  H117  0.990473 S    
C142  O106  1.221164 D    
C30   H58   1.108137 S    
P6    C101  1.863033 S    
C103  C107  1.408974 A    
C15   H27   1.096453 S    
C47   C51   1.412283 A    
C1    H1    1.107428 S    
C88   N8    1.376865 Am   
C45   C49   1.412282 A    
C2    H6    1.105042 S    
S6    O86   1.679536 S    
C143  O107  1.220925 D    
N4    C112  1.460643 S    
C34   C122  1.337158 D    
C81   C85   1.428095 A    
O17   C21   1.396281 S    
S6    O84   1.502599 D    
C52   C56   1.408362 A    
O67   H93   0.990489 S    
C6    H10   1.107470 S    
P12   O36   1.547518 D    
S2    O68   1.500682 D    
C115  H75   1.079379 S    
P4    O8    1.555323 S    
P15   C120  1.845910 S    
C7    C11   1.519554 S    
O8    Ba3   2.770955 S    
C63   C143  1.488995 S    
C68   C92   1.427511 A    
C148  O112  1.221221 D    
C26   H46   1.110668 S    
P1    Ba1   3.442530 S    
C114  C130  1.350615 D    
S8    O91   1.500496 D    
S8    O90   1.502904 D    
S5    O82   1.503419 D    
O29   Ba1   2.706107 S    
C65   C69   1.419861 A    
C88   O60   1.218390 D    
C39   C55   1.420452 A    
O20   C24   1.396993 S    
C61   C141  1.489439 S    
S9    O95   1.682289 S    
C13   H29   1.107560 S    
O37   C14   1.410458 S    
O10   Ba2   2.705872 S    
Ba3   O48   2.981902 S    
C53   C71   1.430075 A    
O26   Ba2   2.841077 S    
Ba1   O46   2.981902 S    
C49   C73   1.398419 A    
P1    C121  1.841786 S    
C12   H68   1.110478 S    
C17   S5    1.786188 S    
C79   S11   1.784547 S    
P3    C123  1.834868 S    
O44   C8    1.404325 S    
C97   C133  1.442385 A    
S2    O70   1.682419 S    
O32   Ba4   2.702798 S    
C34   H86   1.081785 S    
C8    C12   1.520927 S    
O6    Ba1   2.770955 S    
C25   H45   1.110658 S    
S16   O122  1.502490 D    
C146  O110  1.221233 D    
H70   C74   1.082029 S    
O98   H106  0.990650 S    
P4    C124  1.835558 S    
N5    C89   1.379172 Am   
C2    H62   1.110652 S    
S11   O99   1.503718 D    
C26   H50   1.107422 S    
C95   C111  1.409704 A    
C27   H55   1.110750 S    
O18   C22   1.397432 S    
C64   C144  1.490673 S    
C70   C82   1.431340 A    
C61   C65   1.430807 A    
O1    Ba1   2.840190 S    
N3    C111  1.459868 S    
O22   P13   1.754311 S    
C12   H20   1.112268 S    
P5    Ba1   3.447050 S    
S4    O74   1.499952 D    
Ba4   O47   2.983288 S    
P10   O42   1.754756 S    
C23   H39   1.105423 S    
C11   H23   1.110648 S    
C141  H109  1.083551 S    
O16   P15   1.544716 D    
P13   C118  1.845533 S    
C36   C124  1.336331 D    
P11   C100  1.873877 S    
C85   O57   1.217797 D    
C145  H113  1.085142 S    
P2    Ba2   3.446333 S    
O42   C6    1.405006 S    
C74   C80   1.396016 A    
O30   Ba2   2.702798 S    
O10   P13   1.769301 S    
C78   C82   1.429279 A    
O12   P15   1.770345 S    
C140  H100  1.080103 S    
C6    C10   1.520038 S    
C35   C119  1.458721 S    
P3    O7    1.549460 S    
O4    Ba4   2.848435 S    
P11   O35   1.538152 D    
C44   O52   1.219627 D    
C2    C30   1.526469 S    
C25   H49   1.106223 S    
C14   H30   1.108661 S    
C95   H79   1.086047 S    
S1    O65   1.502734 D    
O38   C13   1.406129 S    
C126  H82   1.082931 S    
C87   N7    1.377505 Am   
C42   N2    1.380432 Am   
N5    C129  1.460118 S    
S10   O96   1.503970 D    
P6    O45   1.553684 S    
S8    O92   1.669759 S    
C40   C44   1.437377 A    
O23   P16   1.756307 S    
C5    H13   1.110965 S    
C133  H89   1.087555 S    
C116  H76   1.080058 S    
C7    H15   1.111594 S    
C34   C118  1.460549 S    
S15   O120  1.493162 D    
C103  C135  1.381577 A    
C57   C63   1.418611 A    
C4    H4    1.110817 S    
C42   O50   1.217651 D    
O41   C5    1.408136 S    
C35   H87   1.082047 S    
Ba3   Ba4   4.607414 S    
C38   C54   1.419762 A    
C80   C84   1.431188 A    
O11   Ba3   2.702516 S    
C38   C58   1.425647 A    
C22   H38   1.104905 S    
C93   C109  1.410419 A    
C40   C60   1.425818 A    
O2    Ba2   2.848435 S    
C4    C32   1.527067 S    
P6    Ba2   3.443156 S    
S16   O124  1.680695 S    
P5    O46   1.559628 S    
C54   C72   1.429719 A    
S12   O102  1.503819 D    
C23   C27   1.521507 S    
C21   C25   1.521431 S    
P6    O38   1.760626 S    
P10   C97   1.879512 S    
P8    O28   1.538731 D    
P9    O29   1.732521 S    
P10   O34   1.547468 D    
N1    C109  1.463768 S    
C102  C106  1.428136 A    
S4    O76   1.681195 S    
P7    C104  1.865092 S    
S13   O114  1.496461 D    
C15   H31   1.103607 S    
C47   O55   1.219674 D    
C137  O77   1.220877 D    
C2    H2    1.110674 S    
C31   H59   1.106290 S    
C32   H60   1.108149 S    
C62   C66   1.429749 A    
C19   S7    1.808446 S    
O73   H95   0.989618 S    
C93   H77   1.086010 S    
C11   H67   1.109578 S    
C105  S13   1.787855 S    
P2    O18   1.750269 S    
C28   H48   1.110680 S    
S1    O67   1.681513 S    
P12   C99   1.868872 S    
S6    O85   1.500335 D    
P8    Ba4   3.443156 S    
P6    O26   1.538731 D    
C57   C145  1.487805 S    
C75   C77   1.397530 A    
N8    C132  1.453649 S    
C123  C127  1.408500 A    
P9    O41   1.747378 S    
S14   O116  1.501924 D    
S7    O89   1.683028 S    
C33   C117  1.460862 S    
C48   C52   1.406504 A    
C13   H25   1.101615 S    
C144  H112  1.084823 S    
C17   H33   1.099423 S    
C69   C81   1.431878 A    
C19   H35   1.105261 S    
C58   C146  1.485673 S    
C64   C68   1.428841 A    
Ba2   O45   2.983288 S    
P2    C122  1.836206 S    
C55   C69   1.431742 A    
C35   C123  1.336613 D    
C16   H28   1.098252 S    
C85   N5    1.378809 Am   
S11   O101  1.682666 S    
C8    H16   1.116193 S    
C113  H73   1.079714 S    
C46   O54   1.217517 D    
S12   O104  1.682705 S    
C37   C41   1.432553 A    
C4    H64   1.110646 S    
C16   C20   1.546903 S    
C26   H54   1.110754 S    
S3    O73   1.684018 S    
N3    C47   1.376122 Am   
C27   H51   1.106463 S    
C20   S8    1.807699 S    
C87   O59   1.218024 D    
C138  H98   1.076733 S    
S14   O118  1.681470 S    
C49   C53   1.408981 A    
C79   C83   1.433318 A    
C12   H24   1.110409 S    
C21   H41   1.110940 S    
C9    H17   1.107303 S    
N7    C131  1.455374 S    
C23   H43   1.110824 S    
C94   C98   1.430975 A    
C11   H19   1.106703 S    
O13   P14   1.542886 D    
C76   C78   1.393541 A    
S5    O81   1.498207 D    
C86   O58   1.218655 D    
C135  H91   1.087596 S    
C50   C74   1.398833 A    
C136  H92   1.087254 S    
N6    C90   1.377522 Am   
P1    O1    1.538643 D    
N4    C48   1.375475 Am   
C1    C29   1.526903 S    
C125  H81   1.082732 S    
O9    P14   1.772384 S    
C100  C136  1.433197 A    
P3    O3    1.538643 D    
S9    O94   1.503782 D    
C18   H34   1.104374 S    
P4    O20   1.750086 S    
C127  H83   1.082836 S    
C25   H53   1.110744 S    
C14   H26   1.093712 S    
O92   H104  0.983412 S    
C46   C50   1.409935 A    
Ba3   O47   2.761221 S    
P8    O47   1.553684 S    
C82   C86   1.422429 A    
Ba1   O45   2.761221 S    
O89   H103  0.990309 S    
N6    C130  1.451778 S    
P7    O48   1.559628 S    
C78   S10   1.782289 S    
C41   N1    1.379678 Am   
C96   C112  1.404285 A    
S7    O87   1.501072 D    
C44   N4    1.381121 Am   
C5    H9    1.112038 S    
C62   C142  1.489294 S    
C48   O56   1.216519 D    
P9    C98   1.876637 S    
C9    H21   1.110673 S    
S16   O123  1.491833 D    
C125  C129  1.414764 A    
C19   C139  1.503471 S    
O12   Ba4   2.705872 S    
O11   P16   1.775002 S    
C33   C121  1.337642 D    
O28   Ba4   2.841077 S    
O23   C31   1.412325 S    
C127  C131  1.412019 A    
C18   S6    1.793972 S    
C128  C132  1.412264 A    
P1    O5    1.549460 S    
C142  H110  1.083224 S    
C94   C110  1.398599 A    
S4    O75   1.502894 D    
C139  H99   1.078777 S    
Ba4   O48   2.769621 S    
C10   H18   1.110511 S    
O21   C29   1.411157 S    
O27   Ba3   2.849413 S    
N8    C92   1.377419 Am   
S3    O71   1.502252 D    
C105  C109  1.507480 S    
C22   C26   1.521604 S    
C63   C67   1.430436 A    
C95   C99   1.442651 A    
O76   H96   0.990566 S    
C37   C53   1.418273 A    
C116  C120  1.483627 S    
P10   O30   1.740348 S    
N2    C110  1.463937 S    
C140  O80   1.222563 D    
O7    Ba4   2.762556 S    
C15   C19   1.549241 S    
C101  C133  1.381456 A    
H71   C75   1.082019 S    
N7    C91   1.377881 Am   
C148  H116  1.084969 S    
C67   C91   1.427379 A    
C17   C137  1.507655 S    
S10   O97   1.503201 D    
S5    O83   1.677730 S    
Ba1   Ba2   4.607414 S    
C10   H66   1.110290 S    
C94   H78   1.086671 S    
C121  C125  1.410201 A    
C83   C87   1.426656 A    
P4    Ba4   3.446333 S    
P16   C119  1.847995 S    
C3    C31   1.527360 S    
C24   H44   1.110252 S    
C115  C131  1.351993 D    
C28   H52   1.107083 S    
C27   H47   1.110671 S    
C10   H22   1.108890 S    
C113  C117  1.486323 S    
S10   O98   1.682742 S    
O101  H107  0.990521 S    
C72   C84   1.431458 A    
P3    Ba3   3.442530 S    
O19   C23   1.396562 S    
H72   C76   1.082706 S    
P7    O27   1.538377 D    
O31   Ba3   2.706107 S    
C58   C64   1.420365 A    
O39   C16   1.408040 S    
C90   O62   1.220310 D    
O43   C7    1.409882 S    
C29   H57   1.106271 S    
C30   S2    1.774155 S    
C5    C9    1.518796 S    
C67   C71   1.420760 A    
C20   H36   1.101561 S    
C146  H114  1.085097 S    
S12   O103  1.503639 D    
C1    H5    1.109178 S    
C147  H115  1.085087 S    
C56   C70   1.429466 A    
C143  H111  1.084161 S    
P8    C103  1.857270 S    
C106  S14   1.779209 S    
P1    O17   1.749398 S    
C144  O108  1.221071 D    
C107  S15   1.779250 S    
C6    H14   1.112638 S    
O70   H94   0.990350 S    
P3    O19   1.749615 S    
P14   C117  1.853598 S    
P4    O4    1.538292 D    
C77   S9    1.784995 S    
S13   O113  1.502835 D    
C128  H84   1.082980 S    
O104  H108  0.990352 S    
C114  H74   1.079480 S    
C137  H97   1.085108 S    
C115  C119  1.484266 S    
C141  O105  1.220918 D    
C73   C79   1.397526 A    
C98   C134  1.438206 A    
C66   C90   1.429398 A    
C113  C129  1.354084 D    
C43   O51   1.219671 D    
C145  O109  1.221033 D    
C32   S4    1.778596 S    
O3    Ba3   2.840190 S    
C39   C59   1.424247 A    
C92   O64   1.219983 D    
C37   C57   1.423853 A    
C60   C148  1.486072 S    
O121  H119  0.990897 S    
C21   H37   1.105608 S    
P7    Ba3   3.447050 S    
P5    O25   1.538377 D    
C89   O61   1.218621 D    
S1    O66   1.502215 D    
C52   C76   1.399161 A    
O14   P13   1.544220 D    
C134  H90   1.087048 S    
C96   C100  1.436597 A    
C13   C17   1.537360 S    
S14   O117  1.488536 D    
S7    O88   1.502275 D    
C33   H85   1.081994 S    
P2    O2    1.538292 D    
C36   C120  1.459215 S    
P11   O43   1.746857 S    
C66   C70   1.419596 A    
C39   C43   1.435105 A    
S15   O121  1.680688 S    
C3    H63   1.110870 S    
C96   H80   1.086385 S    
C1    H61   1.110830 S    
Ba2   O46   2.769621 S    
C41   O49   1.216742 D    
C104  C136  1.384119 A    
C51   C55   1.409934 A    
P12   O44   1.754345 S    
C84   C88   1.425269 A    
O21   P14   1.756319 S    
S11   O100  1.503829 D    
N1    C45   1.376126 Am   
C139  O79   1.220852 D    
C108  C112  1.503621 S    
C20   C140  1.501984 S    
O15   P16   1.542659 D    
C8    H12   1.107397 S    
C38   C42   1.435624 A    
C65   C89   1.428927 A    
S3    O72   1.503342 D    
C71   C83   1.431964 A    
O24   P15   1.753091 S    
C31   S3    1.773778 S    
H69   C73   1.081936 S    
C59   C61   1.419568 A    
C138  O78   1.221595 D    
C36   H88   1.081933 S    
C122  C126  1.408219 A    
O22   C30   1.411664 S    
C77   C81   1.433195 A    
C99   C135  1.441603 A    
P2    O6    1.555323 S    
C68   C72   1.419323 A    
S13   O115  1.680955 S    
C29   S1    1.774939 S    
O95   H105  0.990498 S    
P11   O31   1.741674 S    
C80   S12   1.783222 S    
P12   O32   1.741056 S    
C14   C18   1.555363 S    
C24   C28   1.521665 S    
C124  C128  1.408634 A    
O40   C15   1.400134 S    
C60   C62   1.421449 A    
C43   N3    1.379635 Am   
C106  C110  1.509483 S    
S2    O69   1.502629 D    
C108  S16   1.771890 S    
C116  C132  1.351759 D    
O86   H102  0.987982 S    
C86   N6    1.375383 Am   
C126  C130  1.411480 A    
C16   H32   1.106330 S    
S9    O93   1.503131 D    
C91   O63   1.219186 D    
C7    H11   1.112326 S    
C102  C134  1.389562 A    
C45   O53   1.217431 D    
O83   H101  0.990285 S    
C3    H7    1.108408 S    
C3    H3    1.107385 S    
C4    H8    1.107889 S    
P5    C102  1.881427 S    
C59   C147  1.487124 S    
N2    C46   1.376454 Am   
O124  H120  0.990765 S    
C50   C54   1.408676 A    
O24   C32   1.410320 S    
C9    H65   1.109701 S    
C22   H42   1.110154 S    
C40   C56   1.420801 A    
O9    Ba1   2.702516 S    
C24   H40   1.104974 S    
