data_mof_unit_65401.cif
_audit_creation_date              2013-03-05T16:18:20-0500
_audit_creation_method            fapswitch 2.2
_symmetry_space_group_name_H-M    P1
_symmetry_Int_Tables_number       1
_space_group_crystal_system       triclinic
_cell_length_a                    39.204465
_cell_length_b                    39.19955
_cell_length_c                    32.254969
_cell_angle_alpha                 90.110371
_cell_angle_beta                  90.098469
_cell_angle_gamma                 89.975634
_cell_volume                      49569.182457

loop_
_atom_site_label
_atom_site_type_symbol
_atom_site_description
_atom_site_fract_x
_atom_site_fract_y
_atom_site_fract_z
_atom_type_partial_charge
O1    O     O_R   0.028910 0.549920 0.999960 -0.546323
O2    O     O_R   0.549920 0.971090 0.999960 -0.547207
O3    O     O_R   0.971090 0.450080 0.999960 -0.558569
O4    O     O_R   0.450080 0.028910 0.999960 -0.547091
O5    O     O_R   0.028910 0.450080 0.000040 -0.559097
O6    O     O_R   0.549920 0.028910 0.000040 -0.547550
O7    O     O_R   0.971090 0.549920 0.000040 -0.548059
O8    O     O_R   0.450080 0.971090 0.000040 -0.547099
O9    O     O_R   0.528910 0.049920 0.499960 -0.549499
O10   O     O_R   0.049920 0.471090 0.499960 -0.541248
O11   O     O_R   0.471090 0.950080 0.499960 -0.546143
O12   O     O_R   0.950080 0.528910 0.499960 -0.550145
O13   O     O_R   0.528910 0.950080 0.500040 -0.547459
O14   O     O_R   0.049920 0.528910 0.500040 -0.540557
O15   O     O_R   0.471090 0.049920 0.500040 -0.549560
O16   O     O_R   0.950080 0.471090 0.500040 -0.548609
C1    C     C_R   0.999982 0.565923 0.000053 0.885795
C2    C     C_R   0.565918 0.999996 0.999945 0.881066
C3    C     C_R   0.999997 0.434167 0.999977 0.904464
C4    C     C_R   0.434046 0.000001 0.000058 0.888372
C5    C     C_R   0.499971 0.065988 0.499767 0.887315
C6    C     C_R   0.066118 0.499979 0.500032 0.868659
C7    C     C_R   0.500014 0.934026 0.499964 0.881638
C8    C     C_R   0.934062 0.500014 0.500169 0.892123
O17   O     O_R   0.028910 0.500000 0.940120 -0.557764
O18   O     O_R   0.500000 0.971090 0.940120 -0.564219
O19   O     O_R   0.971090 0.500000 0.940120 -0.565367
O20   O     O_R   0.500000 0.028910 0.940120 -0.557667
O21   O     O_R   0.028910 0.500000 0.059880 -0.564031
O22   O     O_R   0.500000 0.028910 0.059880 -0.567015
O23   O     O_R   0.971090 0.500000 0.059880 -0.563036
O24   O     O_R   0.500000 0.971090 0.059880 -0.558319
O25   O     O_R   0.528910 0.000000 0.440120 -0.556483
O26   O     O_R   0.000000 0.471090 0.440120 -0.563428
O27   O     O_R   0.471090 0.000000 0.440120 -0.563415
O28   O     O_R   0.000000 0.528910 0.440120 -0.560831
O29   O     O_R   0.528910 0.000000 0.559880 -0.556945
O30   O     O_R   0.000000 0.528910 0.559880 -0.566444
O31   O     O_R   0.471090 0.000000 0.559880 -0.565215
O32   O     O_R   0.000000 0.471090 0.559880 -0.556677
C9    C     C_R   0.999964 0.499799 0.920594 0.810376
C10   C     C_R   0.500186 0.999948 0.920595 0.802987
C11   C     C_R   0.000036 0.500038 0.079403 0.814186
C12   C     C_R   0.500157 0.000043 0.079408 0.804794
C13   C     C_R   0.499965 0.999809 0.420593 0.802025
C14   C     C_R   0.000009 0.499991 0.420592 0.803323
C15   C     C_R   0.500033 0.000117 0.579415 0.805326
C16   C     C_R   0.000162 0.500042 0.579408 0.800657
Cu1   Cu    Cu3+1 0.034230 0.500000 0.000000 1.131978
Cu2   Cu    Cu3+1 0.500000 0.965770 0.000000 1.133042
Cu3   Cu    Cu3+1 0.965770 0.500000 0.000000 1.126718
Cu4   Cu    Cu3+1 0.500000 0.034230 0.000000 1.131548
Cu5   Cu    Cu3+1 0.534230 0.000000 0.500000 1.139133
Cu6   Cu    Cu3+1 0.000000 0.465770 0.500000 1.135927
Cu7   Cu    Cu3+1 0.465770 0.000000 0.500000 1.129699
Cu8   Cu    Cu3+1 0.000000 0.534230 0.500000 1.131338
C17   C     C_R   0.977464 0.521304 0.728146 0.221916
C18   C     C_R   0.523191 0.021582 0.728194 0.219196
C19   C     C_R   0.022605 0.478118 0.728030 0.221920
C20   C     C_R   0.480411 0.975865 0.728072 0.219116
C21   C     C_R   0.979193 0.477205 0.271723 0.220707
C22   C     C_R   0.525702 0.981826 0.271952 0.221372
C23   C     C_R   0.020420 0.524226 0.272072 0.220439
C24   C     C_R   0.474687 0.017945 0.271888 0.221179
C25   C     C_R   0.474580 0.017764 0.228049 0.222047
C26   C     C_R   0.021223 0.523662 0.228220 0.221894
C27   C     C_R   0.525654 0.981729 0.228109 0.222617
C28   C     C_R   0.979029 0.477529 0.227889 0.221760
C29   C     C_R   0.480132 0.976264 0.771895 0.222703
C30   C     C_R   0.022692 0.478099 0.771862 0.222193
C31   C     C_R   0.522754 0.021924 0.772062 0.222960
C32   C     C_R   0.977629 0.521366 0.771973 0.221589
C33   C     C_R   0.999757 0.499443 0.706290 -0.196087
C34   C     C_R   0.501857 0.998607 0.706319 -0.193697
C35   C     C_R   0.999852 0.500654 0.293697 -0.197098
C36   C     C_R   0.500424 0.000233 0.293708 -0.196585
C37   C     C_R   0.499884 0.999400 0.206291 -0.195836
C38   C     C_R   0.000223 0.500493 0.206281 -0.197242
C39   C     C_R   0.500823 0.999686 0.793717 -0.196100
C40   C     C_R   0.000454 0.500023 0.793714 -0.196623
C41   C     C_1   0.000268 0.500036 0.661368 0.188582
C42   C     C_1   0.500768 0.999575 0.661395 0.191096
C43   C     C_1   0.999940 0.500357 0.338632 0.191782
C44   C     C_1   0.499964 0.999649 0.338635 0.188022
C45   C     C_1   0.500317 0.000023 0.161366 0.189202
C46   C     C_1   0.000260 0.500360 0.161347 0.190608
C47   C     C_1   0.500882 0.999599 0.838654 0.186958
C48   C     C_1   0.999959 0.499518 0.838637 0.188642
C49   C     C_1   0.999869 0.499533 0.876066 -0.033786
C50   C     C_1   0.500620 0.999764 0.876080 -0.037945
C51   C     C_1   0.000148 0.500197 0.123919 -0.033544
C52   C     C_1   0.500342 0.000148 0.123935 -0.037086
C53   C     C_1   0.499877 0.999594 0.376067 -0.036195
C54   C     C_1   0.999994 0.500082 0.376063 -0.036637
C55   C     C_1   0.500206 0.999981 0.623958 -0.035826
C56   C     C_1   0.000330 0.500143 0.623939 -0.037858
C57   C     C_R   0.975215 0.878560 0.025704 0.215428
C58   C     C_R   0.878001 0.021759 0.026759 0.219929
C59   C     C_R   0.024780 0.122260 0.023417 0.211352
C60   C     C_R   0.122158 0.975316 0.023536 0.208893
C61   C     C_R   0.975452 0.121951 0.975551 0.207713
C62   C     C_R   0.878007 0.976359 0.974229 0.217781
C63   C     C_R   0.020612 0.877414 0.973313 0.216748
C64   C     C_R   0.122147 0.025472 0.977548 0.212772
C65   C     C_R   0.478560 0.377899 0.527789 0.219053
C66   C     C_R   0.377567 0.526131 0.522102 0.210896
C67   C     C_R   0.524849 0.622002 0.523029 0.211236
C68   C     C_R   0.622068 0.478308 0.527380 0.211085
C69   C     C_R   0.473427 0.622359 0.478914 0.209387
C70   C     C_R   0.377861 0.475806 0.476077 0.210187
C71   C     C_R   0.523004 0.377441 0.474245 0.216106
C72   C     C_R   0.622105 0.525149 0.476861 0.215388
C73   C     C_R   0.973245 0.842602 0.024133 0.234586
C74   C     C_R   0.842080 0.022262 0.026104 0.236040
C75   C     C_R   0.025583 0.158199 0.021264 0.239417
C76   C     C_R   0.158073 0.974132 0.021009 0.240287
C77   C     C_R   0.974975 0.157951 0.976544 0.241959
C78   C     C_R   0.842044 0.975195 0.975879 0.235586
C79   C     C_R   0.019843 0.841430 0.973427 0.234570
C80   C     C_R   0.157980 0.027185 0.981155 0.239322
C81   C     C_R   0.477869 0.341860 0.527092 0.236969
C82   C     C_R   0.341570 0.527350 0.518716 0.238082
C83   C     C_R   0.526176 0.657870 0.520677 0.241426
C84   C     C_R   0.658131 0.479983 0.529583 0.236432
C85   C     C_R   0.471946 0.658211 0.483092 0.239634
C86   C     C_R   0.341871 0.474940 0.477536 0.240779
C87   C     C_R   0.524801 0.341517 0.477385 0.236592
C88   C     C_R   0.657760 0.528527 0.481855 0.236492
C89   C     C_R   0.995905 0.823521 0.998468 -0.247591
C90   C     C_R   0.823532 0.998759 0.000960 -0.249587
C91   C     C_R   0.000233 0.176297 0.998889 -0.264917
C92   C     C_R   0.176288 0.000720 0.001178 -0.257954
C93   C     C_R   0.501137 0.323555 0.502083 -0.257435
C94   C     C_R   0.323571 0.500986 0.498189 -0.260925
C95   C     C_R   0.499266 0.676278 0.501712 -0.260376
C96   C     C_R   0.676215 0.504996 0.506602 -0.251320
C97   C     C_R   0.998598 0.896015 0.999818 -0.297796
C98   C     C_R   0.896062 0.999392 0.000129 -0.298195
C99   C     C_R   0.999988 0.103925 0.999844 -0.302339
C100  C     C_R   0.103940 0.000228 0.000240 -0.302398
C101  C     C_R   0.500392 0.395767 0.500317 -0.298073
C102  C     C_R   0.395884 0.500666 0.499687 -0.301034
C103  C     C_R   0.499407 0.603947 0.500347 -0.300695
C104  C     C_R   0.604105 0.500862 0.500765 -0.297505
C105  C     C_R   0.996204 0.766032 0.960377 0.450913
C106  C     C_R   0.766262 0.997209 0.962679 0.447775
C107  C     C_R   0.000004 0.233281 0.961364 0.456530
C108  C     C_R   0.233175 0.004854 0.963516 0.453271
C109  C     C_R   0.999802 0.233039 0.037129 0.454756
C110  C     C_R   0.765929 0.001003 0.038253 0.448186
C111  C     C_R   0.993462 0.766051 0.036013 0.450580
C112  C     C_R   0.233433 0.996643 0.038677 0.454997
C113  C     C_R   0.498796 0.267067 0.462714 0.451938
C114  C     C_R   0.266139 0.498312 0.461004 0.457642
C115  C     C_R   0.495238 0.732836 0.463339 0.455328
C116  C     C_R   0.733050 0.506680 0.468108 0.445518
C117  C     C_R   0.504438 0.733616 0.538388 0.455334
C118  C     C_R   0.266884 0.502646 0.536787 0.456638
C119  C     C_R   0.502151 0.265861 0.538533 0.459863
C120  C     C_R   0.734123 0.504361 0.543805 0.460754
C121  C     C_R   0.000455 0.730651 0.961397 -0.129329
C122  C     C_R   0.730847 0.993742 0.963499 -0.131581
C123  C     C_R   0.997009 0.268731 0.962307 -0.133027
C124  C     C_R   0.268654 0.007514 0.964613 -0.132991
C125  C     C_R   0.002252 0.268541 0.036693 -0.132983
C126  C     C_R   0.730608 0.005262 0.036765 -0.130756
C127  C     C_R   0.989908 0.730668 0.034822 -0.131566
C128  C     C_R   0.268891 0.993723 0.037336 -0.131324
C129  C     C_R   0.500601 0.231498 0.462321 -0.131190
C130  C     C_R   0.230651 0.495304 0.462463 -0.131797
C131  C     C_R   0.493110 0.768371 0.463993 -0.133451
C132  C     C_R   0.768515 0.508968 0.468304 -0.132289
C133  C     C_R   0.507454 0.769038 0.536638 -0.132310
C134  C     C_R   0.231339 0.504943 0.536312 -0.130805
C135  C     C_R   0.499021 0.230338 0.537028 -0.133058
C136  C     C_R   0.769535 0.500447 0.542188 -0.130108
H1    H     H_    0.005273 0.717208 0.932585 0.189890
H2    H     H_    0.717534 0.988814 0.934627 0.189075
H3    H     H_    0.994609 0.281721 0.932890 0.185771
H4    H     H_    0.281861 0.013123 0.935965 0.187932
H5    H     H_    0.004442 0.281386 0.066288 0.186670
H6    H     H_    0.717128 0.010434 0.065402 0.189750
H7    H     H_    0.985356 0.717292 0.063642 0.189532
H8    H     H_    0.282311 0.987989 0.065870 0.188740
H9    H     H_    0.501192 0.218346 0.432764 0.190146
H10   H     H_    0.216687 0.491248 0.433861 0.192126
H11   H     H_    0.487400 0.781463 0.435261 0.187095
H12   H     H_    0.781437 0.512345 0.438970 0.188590
H13   H     H_    0.513377 0.782639 0.565004 0.188524
H14   H     H_    0.217906 0.508842 0.565268 0.192091
H15   H     H_    0.498196 0.216352 0.565911 0.190229
H16   H     H_    0.783317 0.496530 0.570915 0.188890
C137  C     C_R   0.995705 0.712563 0.998200 -0.053488
C138  C     C_R   0.712618 0.999688 0.999970 -0.052504
C139  C     C_R   0.999546 0.287034 0.999622 -0.043716
C140  C     C_R   0.286966 0.000526 0.000892 -0.049092
C141  C     C_R   0.499439 0.212862 0.499215 -0.053650
C142  C     C_R   0.213054 0.499953 0.499636 -0.058356
C143  C     C_R   0.500454 0.786884 0.500061 -0.048988
C144  C     C_R   0.787196 0.504067 0.504774 -0.050855
C145  C     C_R   0.995011 0.784959 0.998263 -0.058854
C146  C     C_R   0.785013 0.998938 0.000651 -0.063611
C147  C     C_R   0.000053 0.214497 0.999106 -0.055038
C148  C     C_R   0.214591 0.000785 0.001156 -0.056273
C149  C     C_R   0.500658 0.285137 0.501145 -0.044980
C150  C     C_R   0.285236 0.500640 0.498630 -0.053598
C151  C     C_R   0.499648 0.714532 0.501170 -0.055314
C152  C     C_R   0.714726 0.505524 0.506321 -0.050862
C153  C     C_R   0.974865 0.656279 0.024278 -0.223223
C154  C     C_R   0.656808 0.023075 0.024700 -0.223163
C155  C     C_R   0.015954 0.343531 0.032143 -0.216364
C156  C     C_R   0.343132 0.977537 0.025928 -0.220982
C157  C     C_R   0.983229 0.343656 0.967621 -0.216697
C158  C     C_R   0.656673 0.976867 0.974712 -0.223213
C159  C     C_R   0.020788 0.657188 0.974131 -0.222492
C160  C     C_R   0.343030 0.022932 0.975119 -0.222326
C161  C     C_R   0.477981 0.157031 0.525880 -0.223215
C162  C     C_R   0.157463 0.525311 0.521217 -0.223874
C163  C     C_R   0.523515 0.843120 0.524713 -0.223153
C164  C     C_R   0.843215 0.480717 0.529897 -0.220182
C165  C     C_R   0.477394 0.842879 0.474703 -0.222639
C166  C     C_R   0.157335 0.474253 0.479071 -0.225369
C167  C     C_R   0.520118 0.156967 0.471090 -0.221251
C168  C     C_R   0.843232 0.523359 0.475668 -0.222192
H17   H     H_    0.956138 0.669489 0.042995 0.158743
H18   H     H_    0.670469 0.041420 0.043568 0.159157
H19   H     H_    0.029174 0.330381 0.057088 0.154084
H20   H     H_    0.329661 0.959472 0.045237 0.158176
H21   H     H_    0.969828 0.330609 0.942690 0.153768
H22   H     H_    0.670228 0.958474 0.955839 0.158894
H23   H     H_    0.038545 0.671214 0.954955 0.160347
H24   H     H_    0.329505 0.041113 0.955968 0.157697
H25   H     H_    0.461122 0.170824 0.546572 0.162483
H26   H     H_    0.171458 0.545376 0.537097 0.164365
H27   H     H_    0.541972 0.829689 0.543611 0.158314
H28   H     H_    0.829630 0.464191 0.551068 0.159552
H29   H     H_    0.459091 0.829253 0.455742 0.158070
H30   H     H_    0.171228 0.454149 0.463202 0.164322
H31   H     H_    0.536634 0.170704 0.449996 0.161842
H32   H     H_    0.829778 0.540891 0.455550 0.158062
C169  C     C_R   0.976361 0.620609 0.025757 0.356791
C170  C     C_R   0.621062 0.022970 0.025427 0.355167
C171  C     C_R   0.016115 0.379319 0.032463 0.352843
C172  C     C_R   0.378927 0.977513 0.026335 0.357133
C173  C     C_R   0.983483 0.379432 0.967335 0.349987
C174  C     C_R   0.620918 0.977031 0.974105 0.353459
C175  C     C_R   0.022050 0.621407 0.974325 0.355146
C176  C     C_R   0.378801 0.022619 0.974219 0.354952
C177  C     C_R   0.478385 0.121260 0.526800 0.352196
C178  C     C_R   0.121685 0.525487 0.521764 0.356394
C179  C     C_R   0.523173 0.878902 0.525488 0.357498
C180  C     C_R   0.879017 0.479519 0.528979 0.353741
C181  C     C_R   0.477277 0.878681 0.474204 0.351660
C182  C     C_R   0.121560 0.474238 0.478470 0.358564
C183  C     C_R   0.520570 0.121131 0.471154 0.353229
C184  C     C_R   0.878922 0.521958 0.473670 0.354254
C185  C     C_R   0.999684 0.603231 0.000229 -0.096634
C186  C     C_R   0.603213 0.999993 0.999827 -0.096354
C187  C     C_R   0.999933 0.397020 0.999884 -0.094844
C188  C     C_R   0.396676 0.000023 0.000188 -0.097373
C189  C     C_R   0.499767 0.103367 0.499331 -0.093905
C190  C     C_R   0.103600 0.499913 0.500076 -0.101242
C191  C     C_R   0.500107 0.896629 0.499921 -0.096809
C192  C     C_R   0.896746 0.500252 0.500736 -0.094736
C193  C     C_R   0.997027 0.674816 0.998675 0.070740
C194  C     C_R   0.674845 0.999922 0.999726 0.071057
C195  C     C_R   0.999531 0.325183 0.999831 0.076608
C196  C     C_R   0.324881 0.000337 0.000671 0.072922
C197  C     C_R   0.499022 0.175100 0.498490 0.067286
C198  C     C_R   0.175403 0.499793 0.500069 0.064700
C199  C     C_R   0.500527 0.824807 0.499709 0.072826
C200  C     C_R   0.825068 0.502768 0.503578 0.071663
O33   O     O_R   0.950050 0.000070 0.965410 -0.547022
O34   O     O_R   0.000070 0.049950 0.965410 -0.546043
O35   O     O_R   0.049950 0.999930 0.965410 -0.550237
O36   O     O_R   0.999930 0.950050 0.965410 -0.551120
O37   O     O_R   0.950050 0.999930 0.034590 -0.549684
O38   O     O_R   0.000070 0.950050 0.034590 -0.546631
O39   O     O_R   0.049950 0.000070 0.034590 -0.545550
O40   O     O_R   0.999930 0.049950 0.034590 -0.550174
O41   O     O_R   0.450050 0.500070 0.465410 -0.547366
O42   O     O_R   0.500070 0.549950 0.465410 -0.547165
O43   O     O_R   0.549950 0.499930 0.465410 -0.546632
O44   O     O_R   0.499930 0.450050 0.465410 -0.546320
O45   O     O_R   0.450050 0.499930 0.534590 -0.549404
O46   O     O_R   0.500070 0.450050 0.534590 -0.551431
O47   O     O_R   0.549950 0.500070 0.534590 -0.552336
O48   O     O_R   0.499930 0.549950 0.534590 -0.547856
C201  C     C_R   0.933717 0.999816 0.999993 0.977001
C202  C     C_R   0.999997 0.066341 0.000011 0.987849
C203  C     C_R   0.066297 0.000066 0.000035 0.986488
C204  C     C_R   0.999659 0.933711 0.999967 0.976738
C205  C     C_R   0.433697 0.500262 0.499961 0.986821
C206  C     C_R   0.499751 0.566300 0.500048 0.989425
C207  C     C_R   0.566296 0.500210 0.500073 0.977593
C208  C     C_R   0.500115 0.433697 0.500010 0.973310
Cu9   Cu    Cu3+1 0.000000 0.000000 0.958960 1.221298
Cu10  Cu    Cu3+1 0.000000 0.000000 0.041040 1.223664
Cu11  Cu    Cu3+1 0.500000 0.500000 0.458960 1.223046
Cu12  Cu    Cu3+1 0.500000 0.500000 0.541040 1.218853
N1    N     N_R   0.953280 0.541830 0.794251 0.174569
O49   O     O_R   0.921215 0.541344 0.783702 -0.239911
O50   O     O_R   0.962861 0.560700 0.825422 -0.307792
N2    N     N_R   0.545968 0.043565 0.794505 0.173361
O51   O     O_R   0.578383 0.043408 0.785554 -0.244109
O52   O     O_R   0.535217 0.062541 0.825020 -0.298269
N3    N     N_R   0.044131 0.454451 0.793979 0.173574
O53   O     O_R   0.045511 0.422630 0.782579 -0.241954
O54   O     O_R   0.061997 0.464448 0.825786 -0.299433
N4    N     N_R   0.460207 0.951523 0.794197 0.176352
O55   O     O_R   0.463065 0.919233 0.785471 -0.241661
O56   O     O_R   0.440138 0.961045 0.824170 -0.304570
N5    N     N_R   0.956412 0.455245 0.205492 0.174076
O57   O     O_R   0.924221 0.453643 0.215377 -0.239324
O58   O     O_R   0.967620 0.436667 0.174869 -0.305757
N6    N     N_R   0.552870 0.965157 0.205956 0.172490
O59   O     O_R   0.584454 0.970122 0.216952 -0.242945
O60   O     O_R   0.546383 0.945462 0.174362 -0.302120
N7    N     N_R   0.044367 0.545696 0.206272 0.175722
O61   O     O_R   0.075897 0.548535 0.218347 -0.237650
O62   O     O_R   0.034169 0.562773 0.173938 -0.310450
N8    N     N_R   0.449775 0.037747 0.205822 0.174118
O63   O     O_R   0.443862 0.069193 0.216616 -0.240002
O64   O     O_R   0.433355 0.024850 0.174372 -0.308719
N9    N     N_R   0.447584 0.034682 0.294054 0.174761
O65   O     O_R   0.415952 0.029741 0.283257 -0.239035
O66   O     O_R   0.454238 0.054554 0.325435 -0.305352
N10   N     N_R   0.039477 0.549772 0.294365 0.175893
O67   O     O_R   0.038212 0.581601 0.282785 -0.237042
O68   O     O_R   0.057898 0.541633 0.326483 -0.310165
N11   N     N_R   0.550415 0.961715 0.294166 0.172755
O69   O     O_R   0.556350 0.930320 0.283165 -0.242081
O70   O     O_R   0.566724 0.974430 0.325810 -0.297985
N12   N     N_R   0.959163 0.452300 0.293687 0.174785
O71   O     O_R   0.959382 0.420525 0.282054 -0.237221
O72   O     O_R   0.940721 0.461230 0.325450 -0.308653
N13   N     N_R   0.457752 0.953318 0.705839 0.173364
O73   O     O_R   0.426238 0.949593 0.717857 -0.236726
O74   O     O_R   0.468240 0.936618 0.673340 -0.309957
N14   N     N_R   0.047070 0.457775 0.705766 0.172171
O75   O     O_R   0.079083 0.458221 0.716554 -0.243636
O76   O     O_R   0.037664 0.439089 0.674357 -0.299943
N15   N     N_R   0.544218 0.045611 0.706082 0.171947
O77   O     O_R   0.545798 0.077300 0.717992 -0.239898
O78   O     O_R   0.561618 0.036042 0.673723 -0.301613
N16   N     N_R   0.955868 0.544794 0.706014 0.174652
O79   O     O_R   0.954444 0.576662 0.717209 -0.238987
O80   O     O_R   0.937868 0.534586 0.674418 -0.308016
N17   N     N_R   0.952127 0.897319 0.052181 0.173351
O81   O     O_R   0.949749 0.890098 0.091368 -0.224345
O82   O     O_R   0.934762 0.923016 0.038057 -0.315108
N18   N     N_R   0.896081 0.045179 0.053482 0.174348
O83   O     O_R   0.890396 0.045412 0.093162 -0.226106
O84   O     O_R   0.919660 0.065053 0.038904 -0.304214
N19   N     N_R   0.049858 0.104658 0.048795 0.174686
O85   O     O_R   0.059827 0.117448 0.083937 -0.219338
O86   O     O_R   0.062817 0.075600 0.037615 -0.319499
N20   N     N_R   0.104543 0.950604 0.049145 0.174460
O87   O     O_R   0.116175 0.943075 0.085833 -0.224686
O88   O     O_R   0.075894 0.936959 0.037568 -0.314970
N21   N     N_R   0.950125 0.103885 0.950918 0.173362
O89   O     O_R   0.940035 0.115769 0.915426 -0.220153
O90   O     O_R   0.937055 0.075238 0.963243 -0.320962
N22   N     N_R   0.896115 0.952940 0.947478 0.174523
O91   O     O_R   0.888099 0.950342 0.908504 -0.224897
O92   O     O_R   0.921914 0.935424 0.961087 -0.313873
N23   N     N_R   0.045092 0.894953 0.947539 0.173559
O93   O     O_R   0.047371 0.888070 0.908225 -0.223680
O94   O     O_R   0.064142 0.919094 0.962555 -0.305882
N24   N     N_R   0.104672 0.049900 0.951286 0.175210
O95   O     O_R   0.117162 0.057856 0.915245 -0.225655
O96   O     O_R   0.075545 0.063097 0.961683 -0.316535
N25   N     N_R   0.455940 0.396001 0.555211 0.171952
O97   O     O_R   0.456959 0.390537 0.594956 -0.228615
O98   O     O_R   0.435123 0.419095 0.541130 -0.299359
N26   N     N_R   0.394980 0.551334 0.547571 0.174792
O99   O     O_R   0.381247 0.562300 0.581725 -0.221300
O100  O     O_R   0.425002 0.562783 0.538116 -0.321492
N27   N     N_R   0.549898 0.604231 0.548014 0.173832
O101  O     O_R   0.557189 0.615082 0.585136 -0.226364
O102  O     O_R   0.564156 0.576212 0.535295 -0.324564
N28   N     N_R   0.604050 0.452093 0.550095 0.169956
O103  O     O_R   0.611788 0.445110 0.588314 -0.220508
O104  O     O_R   0.579163 0.435256 0.532989 -0.320232
N29   N     N_R   0.448053 0.605189 0.453431 0.175391
O105  O     O_R   0.436880 0.619407 0.419624 -0.223664
O106  O     O_R   0.437344 0.574648 0.461875 -0.322240
N30   N     N_R   0.395794 0.450677 0.451373 0.172492
O107  O     O_R   0.385438 0.443348 0.414112 -0.224752
O108  O     O_R   0.423258 0.435896 0.464933 -0.320393
N31   N     N_R   0.544903 0.394790 0.445341 0.173395
O109  O     O_R   0.545542 0.385633 0.406607 -0.228369
O110  O     O_R   0.563429 0.420687 0.456860 -0.298129
N32   N     N_R   0.604596 0.546948 0.447764 0.175625
O111  O     O_R   0.614035 0.547819 0.409218 -0.229205
O112  O     O_R   0.577803 0.564339 0.458661 -0.305058
N33   N     N_R   0.946478 0.825586 0.046513 0.178982
O113  O     O_R   0.946606 0.824676 0.086840 -0.207249
O114  O     O_R   0.921913 0.810630 0.026385 -0.277473
N34   N     N_R   0.824535 0.048372 0.049022 0.174334
O115  O     O_R   0.824167 0.048012 0.089338 -0.207851
O116  O     O_R   0.812117 0.074671 0.029604 -0.272414
N35   N     N_R   0.053695 0.176558 0.039117 0.175859
O117  O     O_R   0.054808 0.183129 0.078632 -0.215981
O118  O     O_R   0.078567 0.186759 0.015507 -0.267922
N36   N     N_R   0.176012 0.944432 0.035365 0.175199
O119  O     O_R   0.181138 0.939224 0.074721 -0.210555
O120  O     O_R   0.188608 0.923019 0.008493 -0.277412
N37   N     N_R   0.947484 0.176194 0.957173 0.177928
O121  O     O_R   0.947003 0.181061 0.917312 -0.215573
O122  O     O_R   0.923627 0.189721 0.979936 -0.275390
N38   N     N_R   0.824414 0.948169 0.954615 0.175272
O123  O     O_R   0.822487 0.947573 0.914369 -0.208278
O124  O     O_R   0.812286 0.922609 0.975624 -0.273630
N39   N     N_R   0.045179 0.823077 0.950189 0.175530
O125  O     O_R   0.044253 0.822371 0.909881 -0.208714
O126  O     O_R   0.070304 0.808251 0.969431 -0.276985
N40   N     N_R   0.175633 0.057341 0.967971 0.174351
O127  O     O_R   0.181878 0.062976 0.928968 -0.211121
O128  O     O_R   0.185779 0.079467 0.995581 -0.271001
N41   N     N_R   0.452158 0.324189 0.550386 0.176743
O129  O     O_R   0.453246 0.323576 0.590684 -0.211055
O130  O     O_R   0.428695 0.306855 0.531112 -0.283057
N42   N     N_R   0.323408 0.557077 0.532796 0.178271
O131  O     O_R   0.315972 0.561123 0.571799 -0.215494
O132  O     O_R   0.311225 0.578481 0.505646 -0.274454
N43   N     N_R   0.556127 0.675560 0.534631 0.173715
O133  O     O_R   0.561925 0.680476 0.573947 -0.211049
O134  O     O_R   0.577937 0.687003 0.507474 -0.273467
N44   N     N_R   0.676296 0.455082 0.553651 0.179488
O135  O     O_R   0.676181 0.456558 0.593971 -0.212644
O136  O     O_R   0.694997 0.432197 0.535245 -0.283090
N45   N     N_R   0.441272 0.676146 0.472339 0.176617
O137  O     O_R   0.434432 0.684102 0.434061 -0.213597
O138  O     O_R   0.421135 0.686889 0.501649 -0.272599
N46   N     N_R   0.324004 0.446087 0.460570 0.174838
O139  O     O_R   0.319385 0.442987 0.420779 -0.214554
O140  O     O_R   0.311110 0.423270 0.485523 -0.277373
N47   N     N_R   0.552778 0.323589 0.458476 0.176022
O141  O     O_R   0.554377 0.319863 0.418436 -0.211016
O142  O     O_R   0.575454 0.308864 0.481738 -0.283049
N48   N     N_R   0.674817 0.557662 0.464633 0.177407
O143  O     O_R   0.677957 0.561357 0.424742 -0.205984
O144  O     O_R   0.688231 0.580321 0.489226 -0.276737
O145  O     O_3   0.992141 0.780491 0.921800 -0.631399
H33   H     H_    0.979681 0.802274 0.924975 0.356339
O146  O     O_3   0.780928 0.000224 0.924092 -0.632577
H34   H     H_    0.802561 0.012963 0.926941 0.354728
O147  O     O_3   0.003694 0.218481 0.922786 -0.633507
H35   H     H_    0.014265 0.195730 0.925966 0.357243
O148  O     O_3   0.218190 0.005369 0.924813 -0.633690
H36   H     H_    0.195672 0.994103 0.926312 0.355588
O149  O     O_3   0.996390 0.217941 0.075511 -0.633648
H37   H     H_    0.986273 0.195015 0.072068 0.356260
O150  O     O_3   0.780115 0.997527 0.077089 -0.631292
H38   H     H_    0.801449 0.984236 0.074538 0.356529
O151  O     O_3   0.996933 0.780430 0.074742 -0.632346
H39   H     H_    0.010345 0.801647 0.072132 0.354246
O152  O     O_3   0.218685 0.996243 0.077455 -0.632268
H40   H     H_    0.196136 0.007499 0.076003 0.356651
O153  O     O_3   0.494636 0.282807 0.424804 -0.635247
H41   H     H_    0.484274 0.305535 0.429070 0.354493
O154  O     O_3   0.280640 0.499816 0.422130 -0.632771
H42   H     H_    0.303354 0.510634 0.424275 0.357921
O155  O     O_3   0.493651 0.717442 0.424876 -0.634725
H43   H     H_    0.504055 0.694505 0.426503 0.354833
O156  O     O_3   0.717717 0.504701 0.429672 -0.635072
H44   H     H_    0.695894 0.492258 0.432379 0.351710
O157  O     O_3   0.505317 0.719135 0.577306 -0.632571
H45   H     H_    0.493886 0.696664 0.576281 0.357679
O158  O     O_3   0.282232 0.501661 0.575299 -0.633619
H46   H     H_    0.305289 0.491677 0.572644 0.355031
O159  O     O_3   0.507491 0.280116 0.577072 -0.633317
H47   H     H_    0.518731 0.302482 0.573651 0.358224
O160  O     O_3   0.719970 0.507964 0.582644 -0.629982
H48   H     H_    0.697746 0.519757 0.579898 0.359039
O161  O     O_3   0.955724 0.602243 0.052322 -0.686188
H49   H     H_    0.941806 0.618241 0.069054 0.350046
O162  O     O_3   0.603093 0.044503 0.051437 -0.687655
H50   H     H_    0.619363 0.058076 0.068259 0.349757
O163  O     O_3   0.031384 0.397569 0.064501 -0.691998
H51   H     H_    0.041226 0.381450 0.085152 0.352694
O164  O     O_3   0.397047 0.956286 0.052528 -0.682851
H52   H     H_    0.380870 0.942975 0.069662 0.351436
O165  O     O_3   0.968353 0.397784 0.935356 -0.698755
H53   H     H_    0.958209 0.381740 0.914775 0.350489
O166  O     O_3   0.602796 0.955523 0.948162 -0.688747
H54   H     H_    0.618969 0.941935 0.931274 0.349400
O167  O     O_3   0.044242 0.603724 0.948892 -0.683605
H55   H     H_    0.057427 0.620167 0.931989 0.350757
O168  O     O_3   0.396782 0.043639 0.947722 -0.685095
H56   H     H_    0.380513 0.056991 0.930689 0.350485
O169  O     O_3   0.458781 0.103293 0.554847 -0.692448
H57   H     H_    0.446291 0.119572 0.572783 0.349779
O170  O     O_3   0.103911 0.549944 0.543853 -0.683218
H58   H     H_    0.120263 0.565318 0.557957 0.349187
O171  O     O_3   0.544586 0.897036 0.551531 -0.682616
H59   H     H_    0.558282 0.880865 0.568287 0.350955
O172  O     O_3   0.897204 0.459001 0.555933 -0.685933
H60   H     H_    0.881085 0.446900 0.574414 0.351585
O173  O     O_3   0.455598 0.896617 0.448349 -0.689516
H61   H     H_    0.442047 0.880316 0.431552 0.349276
O174  O     O_3   0.103667 0.449906 0.456292 -0.681267
H62   H     H_    0.119946 0.434573 0.441996 0.348995
O175  O     O_3   0.540571 0.102989 0.443596 -0.687597
H63   H     H_    0.552691 0.119149 0.425220 0.351237
O176  O     O_3   0.896911 0.541135 0.445174 -0.688591
H64   H     H_    0.880652 0.554014 0.427605 0.350664

loop_
_geom_bond_atom_site_label_1
_geom_bond_atom_site_label_2
_geom_bond_distance
_ccdc_geom_bond_type
C165  C199  1.405008 A    
N8    O64   1.301981 A    
N43   O133  1.301955 A    
C159  C175  1.403468 A    
C75   N35   1.435639 S    
C138  C194  1.480894 S    
O40   Cu10  1.969434 S    
O151  H39   0.987968 S    
O170  H58   0.989655 S    
C29   N4    1.439956 S    
O152  H40   0.988942 S    
C169  O161  1.382861 S    
C39   C47   1.449450 S    
N13   O73   1.303869 A    
N1    O49   1.301919 A    
O39   Cu10  1.969639 S    
C58   C98   1.416526 A    
C113  O153  1.380113 S    
C143  C199  1.486642 S    
N35   O118  1.301807 A    
C115  C151  1.426974 A    
O18   Cu2   1.943056 S    
C3    C187  1.456146 S    
C106  O146  1.377217 S    
C58   C74   1.408532 A    
C32   C40   1.411359 A    
O25   C13   1.296915 A    
C114  C130  1.397221 A    
O32   C16   1.296943 A    
C118  C134  1.396431 A    
N26   O100  1.296891 A    
Cu1   Cu3   2.683942 S    
Cu2   Cu4   2.683605 S    
C107  O147  1.379711 S    
O48   C206  1.286416 A    
C81   N41   1.437218 S    
C109  C147  1.424480 A    
C178  O170  1.382289 S    
C90   C146  1.510146 S    
C85   C95   1.416424 A    
C154  C194  1.404005 A    
C69   C85   1.412745 A    
C170  C186  1.406569 A    
O5    Cu1   1.968020 S    
O33   C201  1.287206 A    
C68   C84   1.417058 A    
C125  C139  1.403337 A    
C33   C41   1.449355 S    
C175  C185  1.407104 A    
C73   N33   1.439550 S    
C66   C102  1.425930 A    
Cu6   Cu8   2.683605 S    
C166  C182  1.402656 A    
N4    O56   1.301526 A    
C25   C37   1.412346 A    
O47   Cu12  1.969639 S    
O154  H42   0.988731 S    
C179  O171  1.382553 S    
N14   O75   1.301952 A    
C154  C170  1.401631 A    
O17   C9    1.296947 A    
C125  H5    1.081674 S    
O157  H45   0.988932 S    
C64   C100  1.424660 A    
C165  H29   1.082494 S    
N6    O59   1.302026 A    
C69   N29   1.453918 S    
C168  C200  1.405166 A    
C106  C122  1.395424 A    
N19   O85   1.298236 A    
C67   N27   1.448451 S    
C18   N15   1.442485 S    
O48   Cu12  1.969434 S    
O46   C208  1.285391 A    
C8    C192  1.463129 S    
C177  O169  1.382201 S    
N34   O116  1.301206 A    
O26   Cu6   1.943056 S    
C184  C192  1.405226 A    
N36   O120  1.303055 A    
C121  H1    1.084257 S    
O27   C13   1.296400 A    
O8    Cu2   1.968084 S    
C68   C104  1.419459 A    
C157  H21   1.086930 S    
N46   O139  1.301314 A    
C168  C184  1.401854 A    
N44   O136  1.301399 A    
O31   C15   1.296985 A    
C144  C200  1.486156 S    
C16   C56   1.436344 S    
C27   C37   1.412294 A    
C62   N22   1.445632 S    
C160  C176  1.402754 A    
C74   C90   1.425113 A    
O44   Cu11  1.969442 S    
N33   O114  1.299807 A    
C182  O174  1.381934 S    
C40   C48   1.449330 S    
C167  H31   1.084156 S    
C100  C203  1.475801 S    
C59   C75   1.411031 A    
C65   N25   1.439463 S    
O38   Cu10  1.968642 S    
C105  C121  1.397271 A    
C6    C190  1.469481 S    
C111  C127  1.394511 A    
O11   C7    1.296655 A    
N41   O130  1.300494 A    
O47   C207  1.285569 A    
O22   C12   1.296113 A    
C44   C53   1.207368 T    
C61   N21   1.454118 S    
O145  H33   0.988767 S    
C164  C200  1.405078 A    
C141  C197  1.480482 S    
O16   Cu6   1.968084 S    
C82   N42   1.438592 S    
N32   O111  1.298326 A    
O4    C4    1.296138 A    
O43   Cu11  1.968925 S    
C48   C49   1.207272 T    
C86   C94   1.413956 A    
C83   C95   1.416585 A    
O6    Cu4   1.968077 S    
N37   O121  1.300253 A    
O35   Cu9   1.968925 S    
C179  C191  1.407036 A    
N29   O106  1.298380 A    
C74   N34   1.437127 S    
C9    C49   1.436259 S    
N7    O62   1.302584 A    
N17   O81   1.299328 A    
C170  O162  1.382554 S    
C126  H6    1.083694 S    
N39   O125  1.300802 A    
C21   N12   1.441161 S    
C13   C53   1.436217 S    
C60   N20   1.450216 S    
N24   O95   1.300742 A    
C61   C99   1.427414 A    
O21   Cu1   1.943012 S    
O153  H41   0.988483 S    
N43   O134  1.305348 A    
C163  C199  1.404902 A    
O23   C11   1.296888 A    
N38   O123  1.300355 A    
C167  C197  1.403567 A    
C98   C201  1.476347 S    
N47   O142  1.298244 A    
C85   N45   1.435108 S    
N5    O58   1.302885 A    
O37   C201  1.285636 A    
C172  O164  1.382379 S    
C110  C126  1.395455 A    
N22   O91   1.299080 A    
O13   C7    1.296129 A    
C63   C97   1.416678 A    
C17   C33   1.412208 A    
N9    O66   1.302156 A    
C82   C94   1.414466 A    
O2    Cu2   1.968257 S    
C105  O145  1.377264 S    
C103  C206  1.475799 S    
C183  C189  1.407671 A    
O43   C207  1.287771 A    
N30   O107  1.299578 A    
O7    C1    1.295049 A    
C14   C54   1.436282 S    
N39   O126  1.300784 A    
O28   C14   1.295810 A    
O26   C14   1.297284 A    
O29   C15   1.296575 A    
C117  O157  1.379058 S    
O29   Cu5   1.943012 S    
C26   N7    1.440738 S    
C181  C191  1.407106 A    
N2    O52   1.303096 A    
C37   C45   1.449456 S    
O173  H61   0.990984 S    
C180  O172  1.382491 S    
C127  C137  1.395800 A    
C59   C99   1.426664 A    
C161  C177  1.402656 A    
C116  C152  1.428512 A    
C57   C97   1.418087 A    
C45   C52   1.207357 T    
O19   Cu3   1.943016 S    
O42   Cu11  1.968640 S    
C119  C149  1.425451 A    
N40   O128  1.303708 A    
C24   C36   1.412181 A    
C165  C181  1.403543 A    
C72   C88   1.413078 A    
C108  C124  1.395292 A    
C163  H27   1.082477 S    
C109  C125  1.395133 A    
C23   N10   1.440154 S    
O34   Cu9   1.968640 S    
C153  C169  1.400367 A    
N12   O71   1.300194 A    
C101  C208  1.486918 S    
N45   O138  1.301953 A    
C116  C132  1.393299 A    
C83   N43   1.435250 S    
C109  O149  1.379965 S    
C10   C50   1.435945 S    
O15   Cu7   1.968011 S    
C97   C204  1.478295 S    
C157  C173  1.402511 A    
O165  H53   0.996018 S    
C120  C152  1.427974 A    
O34   C202  1.286738 A    
N16   O80   1.301129 A    
O164  H52   0.991214 S    
C76   C92   1.417787 A    
C66   C82   1.416049 A    
C76   N36   1.436926 S    
O163  H51   0.996167 S    
C121  C137  1.396688 A    
C114  C150  1.427664 A    
C27   N6    1.439190 S    
N20   O88   1.298183 A    
C168  H32   1.082518 S    
C156  C196  1.405239 A    
C70   C86   1.412269 A    
C113  C149  1.428257 A    
N41   O129  1.300692 A    
N42   O131  1.301235 A    
N19   O86   1.297749 A    
O32   Cu6   1.942254 S    
N15   O78   1.302350 A    
O45   Cu12  1.968931 S    
C123  H3    1.081615 S    
C29   C39   1.411601 A    
C1    C185  1.462479 S    
C139  C195  1.495430 S    
C108  C148  1.426240 A    
C129  C141  1.398385 A    
C173  O165  1.390592 S    
N31   O110  1.301706 A    
O22   Cu4   1.943053 S    
C42   C55   1.207825 T    
C126  C138  1.396427 A    
O23   Cu3   1.942300 S    
N34   O115  1.300590 A    
C119  O159  1.377614 S    
C12   C52   1.436227 S    
O174  H62   0.990377 S    
C124  C140  1.399266 A    
C86   N46   1.437462 S    
O38   C204  1.286384 A    
O12   C8    1.295401 A    
O1    C1    1.295813 A    
O14   C6    1.299529 A    
C118  O158  1.379942 S    
C106  C146  1.428907 A    
C107  C123  1.394808 A    
N33   O113  1.301311 A    
C23   C35   1.412656 A    
C20   C29   1.413646 A    
C79   C89   1.425223 A    
C28   N5    1.437779 S    
C132  C144  1.398168 A    
C19   C33   1.411482 A    
C77   C91   1.418924 A    
O33   Cu9   1.969639 S    
C30   N3    1.440308 S    
C122  H2    1.083851 S    
C140  C196  1.486494 S    
C180  C192  1.406791 A    
O148  H36   0.988577 S    
C115  O155  1.379868 S    
O30   Cu8   1.943053 S    
C19   N14   1.439114 S    
C182  C190  1.411641 A    
O147  H35   0.988685 S    
O166  H54   0.991086 S    
N48   O143  1.301160 A    
N48   O144  1.300387 A    
C81   C93   1.413305 A    
N28   O103  1.298669 A    
C133  C143  1.399467 A    
C162  C178  1.402817 A    
O162  H50   0.991129 S    
C60   C76   1.411268 A    
C67   C83   1.409203 A    
C71   N31   1.440282 S    
C36   C44   1.449494 S    
N27   O101  1.301262 A    
O10   C6    1.298577 A    
C153  C193  1.403639 A    
N21   O90   1.297862 A    
C18   C34   1.415839 A    
C162  C198  1.399656 A    
C64   N24   1.450633 S    
C95   C151  1.499729 S    
N14   O76   1.301916 A    
C46   C51   1.207234 T    
N25   O98   1.300595 A    
C77   N37   1.436008 S    
C18   C31   1.415138 A    
C94   C150  1.503078 S    
O44   C208  1.288116 A    
N6    O60   1.302115 A    
Cu9   Cu10  2.647491 S    
C135  C141  1.397855 A    
C66   N26   1.453417 S    
C176  C188  1.406268 A    
C24   N9    1.439044 S    
N35   O117  1.300484 A    
C183  O175  1.382105 S    
N18   O84   1.298487 A    
O36   Cu9   1.969442 S    
C91   C147  1.497447 S    
C124  H4    1.082943 S    
O31   Cu7   1.942300 S    
N8    O63   1.301098 A    
C23   C26   1.414983 A    
O150  H38   0.988659 S    
C163  C179  1.402907 A    
O169  H57   0.990444 S    
O21   C11   1.296294 A    
C22   C36   1.412464 A    
C153  H17   1.082397 S    
C136  C144  1.399805 A    
C31   C39   1.411394 A    
N13   O74   1.301953 A    
N46   O140  1.306851 A    
O13   Cu5   1.968020 S    
N1    O50   1.301985 A    
C28   C38   1.411192 A    
C26   C38   1.414060 A    
C59   N19   1.453136 S    
C92   C148  1.501657 S    
C158  C194  1.403928 A    
C30   C40   1.412334 A    
O146  H34   0.988418 S    
C118  C150  1.428708 A    
C155  C171  1.402885 A    
N31   O109  1.299515 A    
C79   N39   1.437301 S    
C25   N8    1.439559 S    
C96   C152  1.510005 S    
C41   C56   1.207300 T    
C84   C96   1.420796 A    
N10   O67   1.303987 A    
C43   C54   1.207406 T    
C107  C147  1.423942 A    
O40   C202  1.288265 A    
N3    O53   1.300870 A    
C155  C195  1.418897 A    
O158  H46   0.988633 S    
O161  H49   0.990810 S    
O28   Cu8   1.942257 S    
C117  C151  1.425467 A    
C123  C139  1.403448 A    
C130  H10   1.083443 S    
C69   C103  1.426587 A    
C171  C187  1.410091 A    
C31   N2    1.438028 S    
C73   C89   1.426007 A    
C134  H14   1.083547 S    
C88   C96   1.418353 A    
C111  C145  1.428062 A    
C120  O160  1.377971 S    
O9    Cu5   1.967840 S    
C110  C146  1.428292 A    
C161  H25   1.083753 S    
C158  H22   1.082572 S    
O11   Cu7   1.967839 S    
N29   O105  1.300773 A    
C157  C195  1.418613 A    
N4    O55   1.301000 A    
O3    Cu3   1.967839 S    
O42   C206  1.287054 A    
C87   C93   1.412937 A    
N24   O96   1.297751 A    
C78   N38   1.437592 S    
O5    C3    1.294052 A    
C80   N40   1.435558 S    
C61   C77   1.411606 A    
C24   C25   1.414022 A    
N38   O124  1.301281 A    
C154  H18   1.082545 S    
O7    Cu3   1.968011 S    
N11   O69   1.301107 A    
O35   C203  1.286701 A    
C116  O156  1.378954 S    
C65   C101  1.419097 A    
C35   C43   1.449438 S    
N5    O57   1.303757 A    
C111  O151  1.376048 S    
N22   O92   1.298525 A    
C17   C32   1.413640 A    
N9    O65   1.302004 A    
C173  C187  1.410205 A    
O17   Cu1   1.942303 S    
C172  C188  1.406931 A    
C2    C186  1.462115 S    
N27   O102  1.298321 A    
C17   N16   1.440190 S    
C19   C30   1.413790 A    
C129  H9    1.083240 S    
N7    O61   1.300116 A    
C156  H20   1.082320 S    
C72   N32   1.443100 S    
N30   O108  1.298127 A    
C47   C50   1.207240 T    
C113  C129  1.396095 A    
N36   O119  1.301375 A    
C112  C148  1.426268 A    
N25   O97   1.300704 A    
C175  O167  1.382088 S    
C99   C202  1.473261 S    
C117  C133  1.394831 A    
C64   C80   1.411031 A    
C58   N18   1.443456 S    
O14   Cu8   1.968077 S    
N15   O77   1.301009 A    
O2    C2    1.295333 A    
C20   N13   1.442441 S    
C108  O148  1.378930 S    
N23   O93   1.299182 A    
N47   O141  1.301070 A    
O41   Cu11  1.969639 S    
O176  H64   0.990872 S    
C75   C91   1.418008 A    
C21   C35   1.414002 A    
C102  C205  1.482532 S    
O175  H63   0.990466 S    
O8    C4    1.295717 A    
C169  C185  1.406428 A    
C22   C27   1.414170 A    
O4    Cu4   1.968256 S    
C159  H23   1.082870 S    
C57   N17   1.445359 S    
C135  H15   1.082410 S    
N12   O72   1.302243 A    
C22   N11   1.439668 S    
C136  H16   1.082970 S    
C184  O176  1.382962 S    
C104  C207  1.482633 S    
C93   C149  1.506354 S    
O172  H60   0.991129 S    
C110  O150  1.376660 S    
C87   N47   1.438346 S    
O171  H59   0.991109 S    
C62   C98   1.417655 A    
C133  H13   1.082949 S    
C70   C102  1.422920 A    
N44   O135  1.301723 A    
C131  C143  1.399560 A    
C60   C100  1.424378 A    
C160  C196  1.405485 A    
C128  H8    1.083251 S    
O168  H56   0.991045 S    
C7    C191  1.465923 S    
N37   O122  1.302117 A    
O167  H55   0.991218 S    
C62   C78   1.411735 A    
C174  O166  1.382603 S    
O41   C205  1.286663 A    
C38   C46   1.449338 S    
N42   O132  1.303853 A    
N17   O82   1.298384 A    
C119  C135  1.398666 A    
N18   O83   1.299558 A    
C120  C136  1.397778 A    
O46   Cu12  1.968642 S    
O149  H37   0.988446 S    
C159  C193  1.404234 A    
Cu5   Cu7   2.683942 S    
O25   Cu5   1.942303 S    
O6    C2    1.295164 A    
C127  H7    1.083235 S    
C134  C142  1.395689 A    
C142  C198  1.476197 S    
O27   Cu7   1.943016 S    
C162  H26   1.086200 S    
N10   O68   1.301936 A    
O160  H48   0.990077 S    
Cu11  Cu12  2.647491 S    
C71   C101  1.417335 A    
C68   N28   1.448115 S    
O159  H47   0.987864 S    
C166  H30   1.085698 S    
C11   C51   1.435860 S    
O37   Cu10  1.968931 S    
N3    O54   1.301119 A    
O36   C204  1.286684 A    
C174  C186  1.406718 A    
C167  C183  1.404865 A    
C112  C128  1.395494 A    
O19   C9    1.296356 A    
O156  H44   0.989094 S    
O3    C3    1.293374 A    
C122  C138  1.396638 A    
O155  H43   0.988590 S    
O24   C12   1.296974 A    
C65   C81   1.413091 A    
C158  C174  1.401863 A    
N11   O70   1.301963 A    
O24   Cu2   1.942254 S    
O12   Cu8   1.968256 S    
N32   O112  1.300532 A    
C4    C188  1.465084 S    
C88   N48   1.436785 S    
C5    C189  1.465329 S    
N2    O51   1.303712 A    
O39   C203  1.286624 A    
C71   C87   1.413748 A    
C84   N44   1.436305 S    
C57   C73   1.412499 A    
O9    C5    1.297441 A    
C130  C142  1.395927 A    
N26   O99   1.299331 A    
C63   N23   1.445832 S    
N40   O127  1.301395 A    
C34   C42   1.450152 S    
O18   C10   1.295813 A    
C178  C190  1.411839 A    
N28   O104  1.299754 A    
C80   C92   1.417336 A    
O30   C16   1.296171 A    
C164  H28   1.083006 S    
C63   C79   1.410919 A    
C78   C90   1.425843 A    
C112  O152  1.379004 S    
C70   N30   1.448409 S    
N21   O89   1.297854 A    
C181  O173  1.382528 S    
C114  O154  1.379000 S    
C131  H11   1.083235 S    
C137  C193  1.480635 S    
C72   C104  1.415668 A    
C164  C180  1.404706 A    
C89   C145  1.512056 S    
C156  C172  1.403378 A    
C32   N1    1.438939 S    
C105  C145  1.429197 A    
O20   Cu4   1.942257 S    
C21   C28   1.413949 A    
N16   O79   1.300855 A    
O1    Cu1   1.967840 S    
C132  H12   1.082402 S    
C161  C197  1.402846 A    
C20   C34   1.413837 A    
C160  H24   1.082110 S    
C171  O163  1.390461 S    
N23   O94   1.298255 A    
C176  O168  1.382599 S    
N20   O87   1.301863 A    
O10   Cu6   1.968257 S    
C166  C198  1.399674 A    
C115  C131  1.395544 A    
O15   C5    1.295951 A    
O16   C8    1.295880 A    
N45   O137  1.301447 A    
C128  C140  1.399751 A    
O45   C205  1.286986 A    
C15   C55   1.436770 S    
C155  H19   1.087044 S    
C177  C189  1.406875 A    
C67   C103  1.423744 A    
O20   C10   1.297233 A    
