data_mof_unit_11283.cif
_audit_creation_date              2013-03-05T15:47:37-0500
_audit_creation_method            fapswitch 2.2
_symmetry_space_group_name_H-M    P1
_symmetry_Int_Tables_number       1
_space_group_crystal_system       triclinic
_cell_length_a                    10.762577
_cell_length_b                    13.002504
_cell_length_c                    11.705465
_cell_angle_alpha                 99.539279
_cell_angle_beta                  93.251709
_cell_angle_gamma                 91.001201
_cell_volume                      1612.21547497

loop_
_atom_site_label
_atom_site_type_symbol
_atom_site_description
_atom_site_fract_x
_atom_site_fract_y
_atom_site_fract_z
_atom_type_partial_charge
O1    O     O_R   0.506570 0.354460 0.582000 -0.586248
O2    O     O_R   0.490940 0.341410 0.386200 -0.595125
C1    C     C_R   0.497352 0.299245 0.478932 0.799777
O3    O     O_R   0.327470 0.506530 0.597920 -0.590565
O4    O     O_R   0.311840 0.493480 0.402120 -0.584196
C2    C     C_R   0.262662 0.502678 0.500952 0.781470
Cu1   Cu    Cu3+1 0.509250 0.507730 0.615930 0.939860
Cu2   Cu    Cu3+1 0.490750 0.492270 0.384070 1.000409
O5    O     O_R   0.509060 0.658590 0.613800 -0.612849
O6    O     O_R   0.493430 0.645540 0.418000 -0.543837
O7    O     O_R   0.688160 0.506520 0.597880 -0.599100
O8    O     O_R   0.672530 0.493470 0.402080 -0.526096
C3    C     C_R   0.501124 0.700749 0.521302 0.807559
C4    C     C_R   0.737419 0.503683 0.499683 0.804119
H1    H     H_    0.102697 0.365512 0.380155 0.144967
C5    C     C_R   0.141764 0.680627 0.631819 -0.215294
H2    H     H_    0.242280 0.684147 0.632043 0.149153
C6    C     C_R   0.082490 0.765036 0.693873 0.044048
C7    C     C_R   0.952857 0.765433 0.692724 -0.169804
H3    H     H_    0.906044 0.831059 0.739626 0.145303
C8    C     C_R   0.882241 0.681990 0.629392 -0.183011
H4    H     H_    0.782046 0.687290 0.628142 0.143094
C9    C     C_R   0.940472 0.595433 0.566812 0.103089
C10   C     C_R   0.071842 0.594647 0.568298 0.079359
C11   C     C_R   0.129146 0.509332 0.502389 -0.084055
C12   C     C_R   0.058283 0.429705 0.432287 -0.194541
H5    H     H_    0.876521 0.366771 0.377864 0.152725
C13   C     C_R   0.930109 0.430564 0.430665 -0.154902
C14   C     C_R   0.871200 0.511010 0.499233 -0.064880
C15   C     C_R   0.501656 0.814083 0.534474 -0.072377
C16   C     C_R   0.493058 0.185976 0.467511 -0.057430
C17   C     C_R   0.461102 0.015829 0.349204 -0.171671
C18   C     C_R   0.466901 0.123628 0.358845 -0.185801
C19   C     C_R   0.513634 0.139962 0.566591 -0.246401
C20   C     C_R   0.508811 0.031621 0.558339 0.111922
C21   C     C_R   0.482111 0.969448 0.447968 0.144758
C22   C     C_R   0.477484 0.861510 0.437268 -0.197144
C23   C     C_R   0.526974 0.875131 0.644133 -0.235672
C24   C     C_R   0.530257 0.983516 0.657019 -0.015451
H6    H     H_    0.455250 0.814526 0.352859 0.187768
H7    H     H_    0.545143 0.838447 0.719915 0.165636
H8    H     H_    0.440628 0.968720 0.264542 0.152955
H9    H     H_    0.450149 0.158084 0.281427 0.164237
H10   H     H_    0.534056 0.188943 0.650035 0.168269
N1    N     N_R   0.523180 0.519350 0.790130 -0.183587
N2    N     N_R   0.476820 0.480650 0.209890 -0.240076
C25   C     C_R   0.376630 0.406907 0.023903 -0.304066
C26   C     C_R   0.388852 0.415433 0.145546 0.026202
C27   C     C_R   0.555780 0.539096 0.155332 0.491989
C28   C     C_R   0.545536 0.533605 0.032712 -0.023823
C29   C     C_R   0.455021 0.466359 0.966487 0.016359
C30   C     C_R   0.445829 0.460281 0.844185 0.066004
C31   C     C_R   0.610413 0.585347 0.853551 0.071937
C32   C     C_R   0.623471 0.593516 0.974561 -0.249115
H11   H     H_    0.377081 0.408236 0.792066 0.123099
H12   H     H_    0.670725 0.631804 0.810125 0.125743
H13   H     H_    0.306065 0.354295 0.975186 0.157306
H14   H     H_    0.694330 0.646747 0.021518 0.199185
H15   H     H_    0.327576 0.369418 0.188562 0.144647
C33   C     C_1   0.556537 0.042735 0.772053 0.229497
N3    N     N_1   0.577539 0.090104 0.864140 -0.273367
N4    N     N_R   0.651071 0.604753 0.221780 0.125250
O9    O     O_R   0.764895 0.572649 0.222208 -0.367858
O10   O     O_R   0.632884 0.704296 0.247311 -0.395699
C34   C     C_1   0.155253 0.852353 0.757104 0.231411
N5    N     N_1   0.213926 0.922459 0.807780 -0.275062

loop_
_geom_bond_atom_site_label_1
_geom_bond_atom_site_label_2
_geom_bond_distance
_ccdc_geom_bond_type
O4    Cu2   1.949019 S    
C20   C24   1.411737 A    
C9    C10   1.413235 A    
C16   C18   1.401433 A    
Cu1   O5    1.965878 S    
N4    O9    1.301106 A    
C25   H13   1.083221 S    
C17   C21   1.399120 A    
C12   C13   1.378800 A    
C7    H3    1.083752 S    
C30   H11   1.082617 S    
Cu2   O8    1.955332 S    
C17   C18   1.387440 A    
C28   C29   1.405116 A    
C16   C19   1.399133 A    
N1    C31   1.360356 A    
Cu1   Cu2   2.683743 S    
C5    C10   1.414429 A    
C5    C6    1.397124 A    
O1    Cu1   1.965846 S    
C31   C32   1.401594 A    
C6    C34   1.440395 S    
Cu1   O7    1.949019 S    
N2    C27   1.381085 A    
C28   C32   1.411169 A    
C23   H7    1.084633 S    
O3    Cu1   1.955333 S    
C1    C16   1.456289 S    
Cu1   N1    2.016337 S    
O3    C2    1.291310 A    
C13   C14   1.393887 A    
C7    C8    1.394634 A    
O8    C4    1.290972 A    
O2    C1    1.293698 A    
C22   H6    1.083838 S    
N2    C26   1.364578 A    
C8    C9    1.414046 A    
O4    C2    1.287878 A    
O7    C4    1.288177 A    
Cu2   N2    2.016104 S    
C2    C11   1.441963 S    
C5    H2    1.081809 S    
C34   N5    1.157461 T    
C24   C33   1.446224 S    
C4    C14   1.441673 S    
O5    C3    1.291500 A    
C29   C30   1.418336 A    
C18   H9    1.083191 S    
C25   C26   1.408185 A    
C9    C14   1.415360 A    
C3    C15   1.455903 S    
C19   H10   1.082837 S    
C10   C11   1.414339 A    
C15   C23   1.402507 A    
C26   H15   1.081743 S    
Cu2   O6    1.965846 S    
C19   C20   1.395804 A    
C32   H14   1.081984 S    
C31   H12   1.081719 S    
O2    Cu2   1.965877 S    
H5    C13   1.084239 S    
C27   C28   1.423107 A    
C6    C7    1.394592 A    
C17   H8    1.084043 S    
C21   C22   1.387963 A    
H1    C12   1.084319 S    
N4    O10   1.300065 A    
C27   N4    1.429828 S    
N1    C30   1.371784 A    
C11   C12   1.395277 A    
C8    H4    1.081179 S    
C25   C29   1.405269 A    
C20   C21   1.417329 A    
C15   C22   1.395442 A    
C33   N3    1.157496 T    
O1    C1    1.295243 A    
O6    C3    1.297382 A    
C23   C24   1.391860 A    
