data_mof_unit_49921.cif
_audit_creation_date              2012-12-10T17:03:46-0500
_audit_creation_method            fapswitch 2.2
_symmetry_space_group_name_H-M    P1
_symmetry_Int_Tables_number       1
_space_group_crystal_system       triclinic
_cell_length_a                    10.023713
_cell_length_b                    10.730281
_cell_length_c                    13.133048
_cell_angle_alpha                 90.111594
_cell_angle_beta                  70.064843
_cell_angle_gamma                 90.241507
_cell_volume                      1327.90107212

loop_
_atom_site_label
_atom_site_type_symbol
_atom_type_description
_atom_site_fract_x
_atom_site_fract_y
_atom_site_fract_z
_atom_type_partial_charge
C1    C     C_R   0.500776 0.737395 0.499297 0.917905
C2    C     C_R   0.370233 0.520029 0.821770 -0.117717
C3    C     C_2   0.599995 0.067116 0.524912 -0.164657
C4    C     C_R   0.421355 0.507368 0.704011 0.852421
C5    C     C_2   0.488581 0.131611 0.520572 -0.338763
C6    C     C_2   0.595015 0.932748 0.529702 -0.164678
C7    C     C_2   0.504057 0.869322 0.494772 -0.322077
C8    C     C_2   0.109303 0.454336 0.421697 -0.257482
C9    C     C_2   0.956069 0.441092 0.427349 0.494976
C10   C     C_R   0.497615 0.262718 0.504620 0.936323
C11   C     C_R   0.578747 0.500533 0.295768 0.874612
C12   C     C_R   0.431403 0.531995 0.984784 0.085808
C13   C     C_R   0.773969 0.625207 0.018625 -0.210070
C14   C     C_R   0.625873 0.518485 0.179337 -0.057389
C15   C     C_R   0.234905 0.474573 0.882103 -0.197968
C16   C     C_R   0.194880 0.463905 0.993879 -0.146597
C17   C     C_R   0.292991 0.489019 0.044964 -0.191193
C18   C     C_3   0.967476 0.249889 0.343618 0.076507
C19   C     C_3   0.073550 0.218672 0.231678 -0.360229
C20   C     C_3   0.113615 0.081043 0.222941 -0.941768
C21   C     C_R   0.462217 0.563293 0.875191 0.092407
C22   C     C_R   0.540361 0.545093 0.029638 0.081214
C23   C     C_R   0.667861 0.609257 0.972133 0.179164
C24   C     C_R   0.686255 0.657879 0.869992 -0.263323
C25   C     C_R   0.584769 0.635195 0.821866 -0.203796
C26   C     C_R   0.527150 0.492723 0.129243 -0.253991
C27   C     C_R   0.751828 0.581859 0.123229 -0.196761
H1    H     H_    0.829264 0.602683 0.161702 0.167866
H2    H     H_    0.437360 0.434443 0.171630 0.140859
H3    H     H_    0.161434 0.444341 0.842660 0.158704
H4    H     H_    0.256862 0.477836 0.131769 0.131455
H5    H     H_    0.089472 0.431108 0.040565 0.151511
H6    H     H_    0.602497 0.676057 0.743085 0.165387
H7    H     H_    0.697433 0.112652 0.523810 0.160049
H8    H     H_    0.871209 0.191534 0.357332 0.170342
H9    H     H_    0.012716 0.223268 0.407371 0.110525
H10   H     H_    0.026177 0.241198 0.168804 0.231156
H11   H     H_    0.171191 0.275508 0.216134 0.207002
H12   H     H_    0.386286 0.089131 0.531593 0.151799
H13   H     H_    0.164027 0.056976 0.283616 0.262612
H14   H     H_    0.190160 0.061441 0.140791 0.269173
H15   H     H_    0.017949 0.021864 0.236443 0.264729
H16   H     H_    0.670366 0.885624 0.559318 0.163102
H17   H     H_    0.431878 0.912720 0.460222 0.147522
H18   H     H_    0.191043 0.421165 0.349227 0.175320
H19   H     H_    0.070694 0.520883 0.570818 0.149857
H20   H     H_    0.875485 0.556931 0.552795 0.105725
H21   H     H_    0.780446 0.711152 0.826282 0.143964
H22   H     H_    0.871221 0.674956 0.975788 0.142461
N1    N     N_2   0.148270 0.498670 0.498870 -0.204675
N2    N     N_2   0.852610 0.498640 0.498840 -0.214955
O1    O     O_R   0.386950 0.680940 0.500020 -0.606567
O2    O     O_R   0.613110 0.680900 0.499980 -0.623853
O3    O     O_R   0.330780 0.500000 0.653640 -0.614656
O4    O     O_R   0.556930 0.499960 0.653610 -0.615970
O5    O     O_R   0.386890 0.319100 0.500020 -0.613634
O6    O     O_R   0.613050 0.319060 0.499980 -0.592387
O7    O     O_R   0.443070 0.500040 0.346390 -0.614847
O8    O     O_R   0.669220 0.500000 0.346360 -0.564623
O9    O     O_3   0.926034 0.376257 0.346306 -0.611614
Zn1   Zn    Zn3+2 0.349000 0.500030 0.500020 0.935716
Zn2   Zn    Zn3+2 0.651000 0.499970 0.499980 0.968066

loop_
_geom_bond_atom_site_label_1
_geom_bond_atom_site_label_2
_ccdc_geom_bond_type
C12   C17   A    
C20   H15   S    
C23   C24   A    
C6    C7    D    
O3    Zn1   S    
C8    N1    D    
C14   C27   A    
C16   H5    S    
C11   O7    A    
C10   O5    A    
C18   H8    S    
H19   N1    S    
C2    C4    S    
C19   C20   S    
C9    N2    D    
O1    Zn1   S    
C3    C6    S    
C9    O9    S    
C2    C21   A    
C20   H14   S    
O6    Zn2   S    
O5    Zn1   S    
C7    H17   S    
C14   C26   A    
C2    C15   A    
C16   C17   A    
N2    Zn2   S    
O7    Zn1   S    
C13   H22   S    
C18   O9    S    
C11   C14   S    
C17   H4    S    
C6    H16   S    
C5    H12   S    
C4    O4    A    
C22   C26   A    
C20   H13   S    
C1    O1    A    
C11   O8    A    
C15   C16   A    
C24   H21   S    
O4    Zn2   S    
C12   C22   A    
C5    C10   S    
C10   O6    A    
C24   C25   A    
C13   C23   A    
C15   H3    S    
C18   C19   S    
O2    Zn2   S    
C19   H11   S    
C27   H1    S    
N1    Zn1   S    
C1    O2    A    
C26   H2    S    
C13   C27   A    
O8    Zn2   S    
C21   C25   A    
C19   H10   S    
C3    H7    S    
C4    O3    A    
C1    C7    S    
C18   H9    S    
C12   C21   A    
C22   C23   A    
H20   N2    S    
C8    H18   S    
C25   H6    S    
C8    C9    S    
C3    C5    D    
