data_mof_unit_64890.cif
_audit_creation_date              2012-12-10T19:32:58-0500
_audit_creation_method            fapswitch 2.2
_symmetry_space_group_name_H-M    P1
_symmetry_Int_Tables_number       1
_space_group_crystal_system       triclinic
_cell_length_a                    21.633361
_cell_length_b                    21.617134
_cell_length_c                    22.050272
_cell_angle_alpha                 119.486196
_cell_angle_beta                  119.392925
_cell_angle_gamma                 89.328863
_cell_volume                      7452.87480597

loop_
_atom_site_label
_atom_site_type_symbol
_atom_type_description
_atom_site_fract_x
_atom_site_fract_y
_atom_site_fract_z
_atom_type_partial_charge
C1    C     C_R   0.499608 0.120079 0.500067 0.900492
C2    C     C_R   0.495128 0.183215 0.494850 -0.225724
C3    C     C_R   0.499249 0.184339 0.433573 0.497277
C4    C     C_R   0.580869 0.081027 0.662128 0.891887
C5    C     C_R   0.501686 0.250011 0.436158 -0.290166
C6    C     C_R   0.499079 0.312858 0.498330 -0.178174
C7    C     C_R   0.485222 0.307188 0.550948 0.118605
C8    C     C_3   0.525558 0.355146 0.644342 -0.450207
C9    C     C_3   0.522023 0.283659 0.641603 -0.492175
C10   C     C_3   0.288756 0.710610 0.049636 -0.426569
C11   C     C_3   0.324978 0.818392 0.047089 -0.435046
C12   C     C_3   0.774065 0.339176 0.048045 -0.527538
C13   C     C_3   0.274715 0.771117 0.949553 0.377665
C14   C     C_1   0.125465 0.625239 0.751123 -0.178800
C15   C     C_3   0.291261 0.793184 0.082217 0.198840
C16   C     C_R   0.500831 0.880281 0.500814 0.874676
C17   C     C_3   0.240069 0.661341 0.952568 -0.366001
C18   C     C_3   0.208948 0.709694 0.917662 0.257836
C19   C     C_3   0.161443 0.747986 0.950970 -0.559698
C20   C     C_3   0.209627 0.796978 0.048567 -0.144040
C21   C     C_1   0.162912 0.663044 0.826159 -0.054418
C22   C     C_1   0.337654 0.838449 0.173810 -0.080324
C23   C     C_3   0.794981 0.288545 0.082249 0.077587
C24   C     C_1   0.375101 0.875250 0.248863 -0.178536
C25   C     C_R   0.437766 0.752412 0.439769 0.107079
C26   C     C_R   0.501794 0.813423 0.498810 -0.088798
C27   C     C_R   0.569063 0.806672 0.550485 -0.206183
C28   C     C_R   0.419132 0.918980 0.337838 0.884578
C29   C     C_R   0.568925 0.742541 0.550933 -0.218666
C30   C     C_R   0.501936 0.684949 0.497742 -0.092460
C31   C     C_R   0.438119 0.688271 0.438482 0.142161
C32   C     C_3   0.361280 0.675566 0.419612 -0.507339
C33   C     C_3   0.361020 0.746654 0.421351 -0.460570
C34   C     C_3   0.720083 0.237284 0.048839 0.268792
C35   C     C_R   0.880018 0.500130 0.499644 0.874510
C36   C     C_R   0.919050 0.419088 0.337845 0.891494
C37   C     C_R   0.119873 0.499191 0.499282 0.884941
C38   C     C_R   0.081183 0.580956 0.662176 0.904835
C39   C     C_R   0.620082 0.499832 0.499688 0.887026
C40   C     C_3   0.714321 0.291298 0.952186 0.380586
C41   C     C_R   0.501030 0.379613 0.500018 0.918581
C42   C     C_R   0.379761 0.500102 0.500345 0.882667
C43   C     C_R   0.499747 0.620177 0.499672 0.881459
C44   C     C_R   0.804504 0.563524 0.548255 0.128369
C45   C     C_3   0.677927 0.181765 0.952397 -0.558667
C46   C     C_R   0.813195 0.499070 0.496894 -0.093387
C47   C     C_R   0.755035 0.431869 0.443238 -0.218669
C48   C     C_R   0.690153 0.431841 0.442987 -0.216565
C49   C     C_R   0.684875 0.498539 0.498323 -0.095376
C50   C     C_R   0.743603 0.562958 0.550217 0.127789
C51   C     C_3   0.771205 0.644074 0.616796 -0.486023
C52   C     C_3   0.791388 0.198214 0.949443 -0.315135
C53   C     C_3   0.841674 0.644558 0.615272 -0.480437
C54   C     C_R   0.251076 0.556641 0.567940 0.104494
C55   C     C_R   0.186153 0.497785 0.500576 -0.080086
C56   C     C_1   0.838977 0.336688 0.173941 0.082957
C57   C     C_R   0.188020 0.433357 0.439420 -0.210527
C58   C     C_R   0.252339 0.433331 0.439436 -0.214485
C59   C     C_R   0.314810 0.496974 0.502174 -0.103400
C60   C     C_R   0.315148 0.555920 0.569189 0.148284
C61   C     C_3   0.336656 0.637605 0.605865 -0.492974
C62   C     C_3   0.265585 0.638234 0.604082 -0.484365
C63   C     C_3   0.840820 0.240749 0.049392 0.319711
C64   C     C_1   0.875383 0.374917 0.248953 -0.147299
C65   C     C_3   0.711436 0.207998 0.917638 0.055954
C66   C     C_3   0.704612 0.219184 0.137446 0.117944
C67   C     C_1   0.663422 0.162284 0.826021 0.016576
C68   C     C_3   0.727510 0.180896 0.183977 -0.775117
C69   C     C_3   0.440048 0.070075 0.308546 0.125700
C70   C     C_3   0.403633 0.084321 0.239266 -0.879560
C71   C     C_3   0.696240 0.370971 0.906463 0.098162
C72   C     C_3   0.721237 0.401270 0.870150 -0.770950
C73   C     C_3   0.344730 0.780960 0.899521 0.083010
C74   C     C_3   0.394071 0.745398 0.870320 -0.812662
C75   C     C_2   0.204524 0.875848 0.082530 0.917442
C76   C     C_2   0.828155 0.216664 0.914125 1.021321
C77   C     C_3   0.966575 0.259757 0.086067 0.112663
C78   C     C_1   0.625108 0.125106 0.751027 -0.156124
C79   C     C_3   0.024355 0.311037 0.097213 -0.776837
C80   C     C_2   0.856296 0.186441 0.077969 0.905211
C81   C     C_R   0.482474 0.242560 0.548562 0.090012
H1    H     H_    0.824420 0.371310 0.062202 0.277568
H2    H     H_    0.346028 0.705498 0.072612 0.190004
H3    H     H_    0.332222 0.878548 0.072117 0.172712
H4    H     H_    0.381792 0.812126 0.068884 0.194596
H5    H     H_    0.249891 0.808308 0.928873 0.073060
H6    H     H_    0.186276 0.772333 0.069849 0.140789
H7    H     H_    0.113710 0.704884 0.928227 0.184992
H8    H     H_    0.265711 0.690119 0.074087 0.175139
H9    H     H_    0.193379 0.617547 0.930477 0.165665
H10   H     H_    0.782222 0.137327 0.920093 0.162592
H11   H     H_    0.136952 0.781450 0.924755 0.201847
H12   H     H_    0.658624 0.295003 0.941723 0.038272
H13   H     H_    0.620351 0.852225 0.593314 0.164794
H14   H     H_    0.620080 0.738622 0.593754 0.157020
H15   H     H_    0.321035 0.624656 0.356271 0.211076
H16   H     H_    0.360003 0.679957 0.471381 0.193225
H17   H     H_    0.320504 0.736797 0.359038 0.202829
H18   H     H_    0.359717 0.792419 0.474288 0.217290
H19   H     H_    0.759550 0.380235 0.401642 0.156451
H20   H     H_    0.645247 0.380183 0.401284 0.157306
H21   H     H_    0.737473 0.675800 0.593405 0.197610
H22   H     H_    0.781198 0.654827 0.676104 0.215000
H23   H     H_    0.751495 0.380921 0.079531 0.122138
H24   H     H_    0.849033 0.677062 0.591632 0.213463
H25   H     H_    0.892209 0.655039 0.673473 0.200807
H26   H     H_    0.138922 0.385149 0.389645 0.161487
H27   H     H_    0.252615 0.385016 0.389647 0.166056
H28   H     H_    0.387932 0.669148 0.670499 0.209783
H29   H     H_    0.336616 0.649951 0.562479 0.193159
H30   H     H_    0.275827 0.670285 0.667619 0.202114
H31   H     H_    0.224108 0.650722 0.559412 0.219819
H32   H     H_    0.617818 0.177968 0.923018 0.161388
H33   H     H_    0.681236 0.124751 0.936023 0.248871
H34   H     H_    0.508740 0.252822 0.392090 0.179685
H35   H     H_    0.684477 0.273624 0.060338 0.056673
H36   H     H_    0.642734 0.202653 0.097751 0.132468
H37   H     H_    0.727258 0.280566 0.184879 0.118517
H38   H     H_    0.789194 0.197040 0.224428 0.265825
H39   H     H_    0.705408 0.197904 0.223999 0.192707
H40   H     H_    0.704992 0.119403 0.138460 0.257475
H41   H     H_    0.400638 0.064535 0.325643 0.119540
H42   H     H_    0.450734 0.015441 0.282934 0.173174
H43   H     H_    0.443086 0.090541 0.222801 0.263980
H44   H     H_    0.353376 0.036596 0.182633 0.239261
H45   H     H_    0.583189 0.388653 0.675849 0.212073
H46   H     H_    0.386729 0.135718 0.260069 0.248585
H47   H     H_    0.712528 0.418118 0.969899 0.131620
H48   H     H_    0.634543 0.346525 0.864499 0.126462
H49   H     H_    0.706169 0.355315 0.806975 0.252867
H50   H     H_    0.693579 0.443522 0.864545 0.194180
H51   H     H_    0.782515 0.427734 0.911819 0.265163
H52   H     H_    0.378469 0.838358 0.956793 0.139300
H53   H     H_    0.298046 0.783821 0.848533 0.139101
H54   H     H_    0.361758 0.687915 0.813239 0.255541
H55   H     H_    0.415209 0.778832 0.855300 0.203813
H56   H     H_    0.491459 0.387090 0.664940 0.199750
H57   H     H_    0.442120 0.743050 0.920541 0.257285
H58   H     H_    0.212303 0.968504 0.082089 0.341755
H59   H     H_    0.860564 0.177219 0.833846 0.339190
H60   H     H_    0.945181 0.204135 0.026912 0.130423
H61   H     H_    0.995154 0.253713 0.139796 0.170700
H62   H     H_    0.047288 0.366720 0.156572 0.255965
H63   H     H_    0.070559 0.287023 0.099763 0.197176
H64   H     H_    0.998938 0.317539 0.043886 0.277653
H65   H     H_    0.905810 0.174828 0.175274 0.348495
H66   H     H_    0.577481 0.275628 0.671654 0.201257
H67   H     H_    0.485615 0.274160 0.660228 0.206984
H68   H     H_    0.273785 0.632287 0.928925 0.210476
O1    O     O_R   0.448270 0.091610 0.500010 -0.626819
O2    O     O_R   0.557050 0.465350 0.430680 -0.627036
O3    O     O_R   0.534700 0.443070 0.569360 -0.622835
O4    O     O_R   0.551720 0.091610 0.499980 -0.585617
O5    O     O_R   0.465400 0.373710 0.430650 -0.629152
O6    O     O_R   0.443050 0.534650 0.569320 -0.620985
O7    O     O_R   0.373740 0.465290 0.430600 -0.624675
O8    O     O_R   0.534700 0.626290 0.569350 -0.623294
O9    O     O_R   0.465390 0.556930 0.430640 -0.619277
O10   O     O_R   0.509700 0.061430 0.622870 -0.626047
O11   O     O_R   0.613150 0.061430 0.622840 -0.601873
O12   O     O_R   0.908540 0.448310 0.500030 -0.623175
O13   O     O_R   0.448280 0.908390 0.500020 -0.624787
O14   O     O_R   0.551730 0.908390 0.499990 -0.622017
O15   O     O_R   0.386850 0.938570 0.377160 -0.605499
O16   O     O_R   0.490300 0.938570 0.377130 -0.617755
O17   O     O_R   0.908570 0.551750 0.500020 -0.623388
O18   O     O_3   0.732986 0.196930 0.086767 -0.569734
O19   O     O_3   0.509426 0.125232 0.377497 -0.606545
O20   O     O_3   0.730094 0.315727 0.910762 -0.553659
O21   O     O_3   0.316977 0.736944 0.916549 -0.608366
O22   O     O_2   0.186981 0.902972 0.133050 -0.624225
O23   O     O_R   0.938770 0.490290 0.377140 -0.621992
O24   O     O_R   0.218489 0.917140 0.055406 -0.843590
O25   O     O_2   0.852533 0.281161 0.939532 -0.549580
O26   O     O_R   0.834954 0.158665 0.852488 -0.826889
O27   O     O_3   0.909284 0.292390 0.086439 -0.606626
O28   O     O_2   0.831892 0.118802 0.027208 -0.644024
O29   O     O_R   0.899576 0.215238 0.163759 -0.791364
O30   O     O_R   0.938740 0.386860 0.377150 -0.603284
O31   O     O_R   0.091820 0.551690 0.499970 -0.623207
O32   O     O_R   0.091790 0.448250 0.499980 -0.618032
O33   O     O_R   0.061630 0.613140 0.622850 -0.620822
O34   O     O_R   0.061600 0.509710 0.622860 -0.613987
O35   O     O_R   0.626360 0.534710 0.569400 -0.622741
Zn1   Zn    Zn3+2 0.430930 0.000000 0.500020 0.964493
Zn2   Zn    Zn3+2 0.569070 1.000000 0.499980 0.996234
Zn3   Zn    Zn3+2 0.000200 0.569060 0.500000 0.954519
Zn4   Zn    Zn3+2 0.000160 0.430940 0.500000 0.973735
Zn5   Zn    Zn3+2 0.546320 0.546310 0.592620 0.951410
Zn6   Zn    Zn3+2 0.453780 0.453690 0.407380 0.949376

loop_
_geom_bond_atom_site_label_1
_geom_bond_atom_site_label_2
_ccdc_geom_bond_type
C70   H46   S    
C25   C31   A    
C66   C68   S    
C27   C29   A    
C18   C21   S    
C73   C74   S    
C19   C20   S    
O11   Zn2   S    
C40   H12   S    
C43   O9    A    
C61   H28   S    
O1    Zn1   S    
C23   C56   S    
C79   H64   S    
C41   O3    A    
C54   C60   A    
C51   H21   S    
C36   O30   A    
C12   C23   S    
C26   C27   A    
C35   O12   A    
C13   C18   S    
O14   Zn2   S    
C14   C21   T    
C15   C22   S    
C12   H23   S    
O12   Zn4   S    
C10   C15   S    
O9    Zn6   S    
C68   H38   S    
C5    C6    A    
C4    O10   A    
C71   H48   S    
O4    Zn2   S    
C69   H42   S    
O23   Zn3   S    
C34   H35   S    
C20   H6    S    
C39   O2    A    
C10   H2    S    
C35   O17   A    
C32   H16   S    
H65   O29   S    
C33   H17   S    
C77   H61   S    
C19   H11   S    
O6    Zn5   S    
C46   C47   A    
C11   C15   S    
C44   C53   S    
O2    Zn6   S    
C79   H62   S    
C62   H30   S    
C31   C32   S    
C10   H8    S    
C8    C9    S    
C65   C67   S    
C66   H36   S    
C74   H55   S    
C13   H5    S    
C52   H10   S    
C71   O20   S    
C68   H40   S    
C39   O35   A    
C23   C63   S    
O5    Zn6   S    
C59   C60   A    
C5    H34   S    
C61   C62   S    
C67   C78   T    
C61   H29   S    
C53   H25   S    
C40   O20   S    
O32   Zn4   S    
C44   C46   A    
C3    O19   S    
C72   H51   S    
C77   H60   S    
C63   C80   S    
C77   C79   S    
C16   O14   A    
C16   C26   S    
C15   C20   S    
C36   O23   A    
O17   Zn3   S    
C63   O27   S    
O15   Zn1   S    
C29   H14   S    
C18   C19   S    
O30   Zn4   S    
C54   C62   S    
C16   O13   A    
C25   C26   A    
C45   H33   S    
C6    C41   S    
C47   H19   S    
C20   C75   S    
C8    H56   S    
C33   H18   S    
C80   O29   S    
C12   C40   S    
C42   O7    A    
C4    C78   S    
C29   C30   A    
O31   Zn3   S    
C53   H24   S    
C14   C38   S    
C74   H57   S    
C47   C48   A    
C23   C34   S    
C37   O32   A    
C74   H54   S    
O3    Zn5   S    
C56   C64   T    
C17   C18   S    
C12   H1    S    
C1    O1    A    
C50   C51   S    
C34   C45   S    
C75   O24   S    
C1    O4    A    
C28   O16   A    
C66   O18   S    
C70   H44   S    
C8    H45   S    
C48   C49   A    
C7    C81   A    
C73   H52   S    
C19   H7    S    
C77   O27   S    
C40   C65   S    
C55   C57   A    
C70   H43   S    
C75   O22   D    
C22   C24   T    
C30   C43   S    
H58   O24   S    
C34   O18   S    
C3    C5    A    
C28   O15   A    
C72   H50   S    
C41   O5    A    
C44   C50   A    
C37   O31   A    
C54   C55   A    
C13   O21   S    
C57   H26   S    
C76   O26   S    
C17   H68   S    
C17   H9    S    
C24   C28   S    
C2    C81   A    
C52   C63   S    
C42   C59   S    
C4    O11   A    
O13   Zn1   S    
C39   C49   S    
C72   H49   S    
C6    C7    A    
C11   H3    S    
C9    H67   S    
O16   Zn2   S    
C38   O33   A    
C79   H63   S    
C52   C76   S    
C32   C33   S    
O10   Zn1   S    
C76   O25   D    
C2    C3    A    
C58   C59   A    
C69   O19   S    
C71   C72   S    
C32   H15   S    
O34   Zn4   S    
C80   O28   D    
C45   C65   S    
C11   C13   S    
C57   C58   A    
C30   C31   A    
C69   H41   S    
C11   H4    S    
H59   O26   S    
C48   H20   S    
C1    C2    S    
C9    H66   S    
C42   O6    A    
C58   H27   S    
O33   Zn3   S    
C43   O8    A    
C69   C70   S    
C71   H47   S    
O8    Zn5   S    
C7    C8    S    
C38   O34   A    
C37   C55   S    
C45   H32   S    
C62   H31   S    
C73   H53   S    
C49   C50   A    
C66   H37   S    
C9    C81   S    
O35   Zn5   S    
C60   C61   S    
C27   H13   S    
C10   C17   S    
C51   C53   S    
C73   O21   S    
C36   C64   S    
C35   C46   S    
C51   H22   S    
C68   H39   S    
C52   C65   S    
C25   C33   S    
O7    Zn6   S    
