data_mof_unit_13814.cif
_audit_creation_date              2012-12-11T15:15:49-0500
_audit_creation_method            fapswitch 2.2
_symmetry_space_group_name_H-M    P1
_symmetry_Int_Tables_number       1
_space_group_crystal_system       triclinic
_cell_length_a                    19.357428
_cell_length_b                    18.865981
_cell_length_c                    20.311792
_cell_angle_alpha                 106.520845
_cell_angle_beta                  106.722764
_cell_angle_gamma                 111.826042
_cell_volume                      5921.58307439

loop_
_atom_site_label
_atom_site_type_symbol
_atom_type_description
_atom_site_fract_x
_atom_site_fract_y
_atom_site_fract_z
_atom_type_partial_charge
C1    C     C_R   0.042319 0.090838 0.347141 -0.199508
C2    C     C_R   0.235619 0.072415 0.491415 0.155415
C3    C     C_R   0.162253 0.193318 0.719724 0.192064
C4    C     C_R   0.754163 0.926858 0.474345 -0.154070
C5    C     C_R   0.050006 0.804981 0.480762 -0.127627
C6    C     C_R   0.241988 0.214485 0.727201 -0.006723
C7    C     C_R   0.034882 0.781004 0.535986 0.071893
C8    C     C_R   0.235795 0.001869 0.448252 0.015915
C9    C     C_R   0.936298 0.977084 0.712946 0.027483
C10   C     C_R   0.046999 0.711037 0.622685 -0.251721
C11   C     C_R   0.074297 0.741140 0.574205 0.121038
C12   C     C_R   0.747083 0.998581 0.498141 0.074311
C13   C     C_R   0.131692 0.723310 0.554488 -0.233585
C14   C     C_R   0.147024 0.661300 0.568072 0.152207
C15   C     C_R   0.108634 0.620831 0.606433 0.011747
C16   C     C_R   0.846819 0.774141 0.293036 -0.153052
C17   C     C_R   0.062961 0.649714 0.639067 0.062871
C18   C     C_R   0.192405 0.632625 0.536167 -0.193813
C19   C     C_R   0.191764 0.558051 0.534261 -0.205429
C20   C     C_R   0.146611 0.512437 0.565107 0.149922
C21   C     C_R   0.109118 0.546509 0.605278 0.028701
C22   C     C_R   0.065183 0.501827 0.637615 0.100697
C23   C     C_R   0.770857 0.725634 0.290298 0.040103
C24   C     C_R   0.029329 0.536268 0.678658 -0.235244
C25   C     C_R   0.027991 0.610966 0.680740 0.133417
C26   C     C_R   0.132152 0.430192 0.550604 -0.254952
C27   C     C_R   0.080091 0.381555 0.575184 0.112860
C28   C     C_R   0.999407 0.235379 0.566888 -0.113586
C29   C     C_R   0.052012 0.420084 0.623365 -0.222505
C30   C     C_R   0.360439 0.010040 0.523028 -0.209650
C31   C     C_R   0.308706 0.999047 0.453244 0.077066
C32   C     C_R   0.323828 0.981443 0.389692 -0.221914
C33   C     C_R   0.395566 0.977711 0.396365 0.067336
C34   C     C_R   0.050186 0.289641 0.546499 0.084644
C35   C     C_R   0.450205 0.990634 0.468292 -0.002486
C36   C     C_R   0.431443 0.005364 0.531568 0.065185
C37   C     C_R   0.414630 0.962373 0.333739 0.193218
C38   C     C_R   0.488421 0.962264 0.343381 -0.242483
C39   C     C_R   0.542985 0.977018 0.414410 0.103405
C40   C     C_R   0.769719 0.772660 0.355245 -0.125311
C41   C     C_R   0.524007 0.990190 0.477262 0.007038
C42   C     C_R   0.579216 0.004014 0.549146 0.059805
C43   C     C_R   0.556752 0.014037 0.609719 -0.271590
C44   C     C_R   0.484062 0.015540 0.601709 0.191102
C45   C     C_R   0.237345 0.190709 0.654648 -0.174617
C46   C     C_R   0.617094 0.979795 0.423494 -0.258143
C47   C     C_R   0.672408 0.996541 0.494235 0.038873
C48   C     C_R   0.655444 0.007793 0.558246 0.085709
C49   C     C_R   0.317076 0.248168 0.797339 0.162946
C50   C     C_R   0.311958 0.222369 0.854889 -0.136713
C51   C     C_R   0.383452 0.253280 0.920949 -0.146418
C52   C     C_R   0.076876 0.243572 0.503879 -0.159460
C53   C     C_R   0.461000 0.310909 0.930349 0.220249
C54   C     C_R   0.466399 0.332347 0.870641 -0.163531
C55   C     C_R   0.394977 0.301343 0.804645 -0.155745
C56   C     C_R   0.973385 0.798480 0.545340 -0.126288
C57   C     C_R   0.680376 0.496555 0.151696 -0.156609
C58   C     C_R   0.737777 0.581438 0.202584 -0.187891
C59   C     C_R   0.630139 0.599717 0.230229 -0.175129
C60   C     C_R   0.572811 0.514996 0.179273 -0.170945
C61   C     C_R   0.596618 0.463888 0.137147 0.219759
C62   C     C_2   0.535681 0.358502 0.004361 -0.205088
C63   C     C_2   0.530524 0.382763 0.070902 -0.215978
C64   C     C_R   0.824410 0.070014 0.539109 -0.126742
C65   C     C_R   0.712456 0.634459 0.240372 0.139637
C66   C     C_R   0.956031 0.034050 0.204783 0.081565
C67   C     C_R   0.165524 0.931832 0.430118 -0.193662
C68   C     C_R   0.870621 0.977290 0.158419 -0.222160
C69   C     C_R   0.828465 0.981413 0.092658 -0.153470
C70   C     C_R   0.870657 0.043847 0.073108 0.196264
C71   C     C_R   0.954653 0.103353 0.120785 -0.238170
C72   C     C_R   0.998778 0.098715 0.186076 0.157098
C73   C     C_R   0.912260 0.043437 0.893666 -0.147974
C74   C     C_R   0.944510 0.042699 0.840917 -0.196859
C75   C     C_R   0.825212 0.904882 0.749186 -0.174644
C76   C     C_R   0.980019 0.950352 0.280410 0.171705
C77   C     C_R   0.793103 0.905191 0.802723 -0.179721
C78   C     C_R   0.981883 0.050783 0.709160 -0.109314
C79   C     C_R   0.836009 0.974799 0.875137 0.212233
C80   C     C_2   0.834203 0.039927 0.997163 -0.209588
C81   C     C_2   0.809051 0.969360 0.935366 -0.216918
C82   C     C_R   0.901417 0.973795 0.768189 0.136190
C83   C     C_R   0.996215 0.025916 0.273739 -0.007566
C84   C     C_3   0.295633 0.161652 0.507641 -0.449042
C85   C     C_3   0.254153 0.213577 0.490887 -0.255620
C86   C     C_3   0.318469 0.304257 0.513519 -0.942045
C87   C     C_3   0.986296 0.647346 0.722953 -0.423276
C88   C     C_3   0.963125 0.609697 0.776387 -0.254619
C89   C     C_R   0.914568 0.910940 0.645802 -0.142203
C90   C     C_3   0.930923 0.657586 0.821799 -0.896045
C91   C     C_3   0.717904 0.023481 0.634524 -0.429178
C92   C     C_3   0.764459 0.117624 0.692555 -0.258103
C93   C     C_3   0.825579 0.133149 0.768990 -0.868791
C94   C     C_3   0.091619 0.158760 0.229193 -0.445198
C95   C     C_3   0.111727 0.250522 0.272423 -0.247022
C96   C     C_3   0.205131 0.310151 0.318613 -0.924000
C97   C     C_3   0.953652 0.868184 0.215434 -0.467039
C98   C     C_3   0.011098 0.831959 0.237180 -0.239467
C99   C     C_3   0.983696 0.748377 0.171345 -0.905211
H1    H     H_    0.063331 0.157476 0.363884 0.127494
H2    H     H_    0.705750 0.861073 0.446297 0.106693
H3    H     H_    0.222233 0.533435 0.504632 0.131875
H4    H     H_    0.156773 0.402770 0.515583 0.119546
H5    H     H_    0.014763 0.385177 0.645758 0.119648
H6    H     H_    0.998543 0.501450 0.705090 0.128587
H7    H     H_    0.343759 0.021844 0.569951 0.166450
H8    H     H_    0.279885 0.972020 0.336542 0.162731
H9    H     H_    0.503616 0.951530 0.295375 0.164098
H10   H     H_    0.632829 0.970174 0.375649 0.143888
H11   H     H_    0.873966 0.748549 0.260472 0.112556
H12   H     H_    0.946775 0.788286 0.583908 0.095990
H13   H     H_    0.595292 0.022090 0.664602 0.172574
H14   H     H_    0.252732 0.178019 0.848613 0.141970
H15   H     H_    0.801451 0.605290 0.211340 0.115436
H16   H     H_    0.609070 0.638929 0.259086 0.118051
H17   H     H_    0.470501 0.355726 0.071353 0.135760
H18   H     H_    0.525579 0.376473 0.876580 0.116513
H19   H     H_    0.701040 0.457592 0.121899 0.119100
H20   H     H_    0.400463 0.320735 0.760225 0.118094
H21   H     H_    0.977086 0.251836 0.608666 0.096395
H22   H     H_    0.594480 0.390709 0.002995 0.131826
H23   H     H_    0.144705 0.866859 0.392701 0.113420
H24   H     H_    0.377667 0.233164 0.964869 0.122480
H25   H     H_    0.508560 0.491013 0.169055 0.120824
H26   H     H_    0.836389 0.928791 0.172775 0.137507
H27   H     H_    0.004106 0.095888 0.857626 0.145629
H28   H     H_    0.790347 0.851057 0.693260 0.111765
H29   H     H_    0.787357 0.908428 0.937619 0.139906
H30   H     H_    0.987544 0.149974 0.103930 0.118140
H31   H     H_    0.949499 0.096299 0.950197 0.118180
H32   H     H_    0.727528 0.748549 0.378627 0.089336
H33   H     H_    0.854906 0.100265 0.993811 0.136710
H34   H     H_    0.989912 0.111498 0.741828 0.133760
H35   H     H_    0.763598 0.934719 0.056057 0.128991
H36   H     H_    0.735409 0.850725 0.788082 0.121590
H37   H     H_    0.125685 0.269145 0.487668 0.095521
H38   H     H_    0.840332 0.135245 0.569495 0.098087
H39   H     H_    0.287844 0.196365 0.641002 0.128277
H40   H     H_    0.361483 0.336364 0.575532 0.268682
H41   H     H_    0.354569 0.303905 0.479796 0.269457
H42   H     H_    0.286687 0.340852 0.502148 0.247911
H43   H     H_    0.212214 0.182969 0.428810 0.200913
H44   H     H_    0.217926 0.217102 0.523585 0.213973
H45   H     H_    0.867643 0.845360 0.623313 0.088936
H46   H     H_    0.345395 0.195379 0.566984 0.185142
H47   H     H_    0.328179 0.157149 0.470830 0.201728
H48   H     H_    0.979564 0.725300 0.858462 0.265626
H49   H     H_    0.875110 0.654165 0.782336 0.257933
H50   H     H_    0.913787 0.628486 0.859144 0.250803
H51   H     H_    0.913518 0.542004 0.742131 0.195290
H52   H     H_    0.018504 0.613819 0.817395 0.211159
H53   H     H_    0.029634 0.716808 0.758345 0.200663
H54   H     H_    0.928992 0.638175 0.680000 0.182630
H55   H     H_    0.792931 0.092789 0.792625 0.267471
H56   H     H_    0.093500 0.800595 0.459000 0.099104
H57   H     H_    0.873957 0.118603 0.761323 0.260842
H58   H     H_    0.856192 0.200936 0.810443 0.249921
H59   H     H_    0.799132 0.157599 0.669841 0.194200
H60   H     H_    0.720529 0.138786 0.702632 0.208450
H61   H     H_    0.686083 0.981873 0.657639 0.189353
H62   H     H_    0.764138 0.004576 0.627534 0.201521
H63   H     H_    0.231800 0.288828 0.359956 0.268803
H64   H     H_    0.235537 0.311407 0.279851 0.268532
H65   H     H_    0.217847 0.375531 0.350868 0.248389
H66   H     H_    0.086920 0.273043 0.231190 0.200836
H67   H     H_    0.007201 0.729662 0.641686 0.116950
H68   H     H_    0.082221 0.253681 0.311866 0.193134
H69   H     H_    0.122693 0.138939 0.269462 0.196251
H70   H     H_    0.118364 0.156086 0.187449 0.196345
H71   H     H_    0.919808 0.700292 0.156111 0.251609
H72   H     H_    0.985281 0.758332 0.120345 0.270057
H73   H     H_    0.026364 0.723803 0.188840 0.253796
H74   H     H_    0.075580 0.878506 0.252070 0.207155
H75   H     H_    0.011347 0.820692 0.287940 0.190798
H76   H     H_    0.887748 0.822571 0.195445 0.186763
H77   H     H_    0.957184 0.880321 0.165718 0.200038
H78   H     H_    0.158151 0.750598 0.521648 0.120972
H79   H     H_    0.223193 0.664250 0.507723 0.136050
I1    I     I_    0.139840 0.258545 0.807711 -0.500085
I2    I     I_    0.337207 0.940293 0.223197 -0.439254
I3    I     I_    0.460210 0.034658 0.699649 -0.446715
N1    N     N_R   0.052580 0.056040 0.395500 -0.053120
N2    N     N_R   0.890210 0.849400 0.355780 -0.039575
N3    N     N_R   0.997110 0.161140 0.539580 -0.037932
N4    N     N_R   0.841950 0.845400 0.395490 -0.037306
N5    N     N_R   0.045360 0.165140 0.499870 -0.041641
N6    N     N_R   0.877490 0.041510 0.539580 -0.041478
N7    N     N_R   0.009820 0.969030 0.355780 -0.053576
N8    N     N_R   0.158050 0.154600 0.604510 -0.055568
N9    N     N_R   0.954640 0.834860 0.500130 -0.040834
N10   N     N_R   0.122510 0.958490 0.460420 -0.049501
N11   N     N_R   0.990180 0.030970 0.644220 -0.038697
N12   N     N_R   0.947420 0.943960 0.604500 -0.039231
N13   N     N_R   0.165270 0.045500 0.500140 -0.052494
N14   N     N_R   0.109790 0.150600 0.644220 -0.056064
N15   N     N_R   0.002890 0.838860 0.460420 -0.043087
N16   N     N_R   0.834730 0.954500 0.499860 -0.041818
Ni1   Ni    Ni4+2 0.104370 0.104380 0.500010 0.203477
Ni2   Ni    Ni4+2 0.895630 0.895620 0.499990 0.207550
Ni3   Ni    Ni4+2 0.006300 0.904810 0.408930 0.201451
Ni4   Ni    Ni4+2 0.993700 0.095190 0.591070 0.231694

loop_
_geom_bond_atom_site_label_1
_geom_bond_atom_site_label_2
_ccdc_geom_bond_type
N8    Ni1   S    
C66   C68   A    
C87   C88   S    
C69   H35   S    
C80   H33   S    
C6    C45   A    
C27   C29   A    
C51   H24   S    
C41   C42   A    
C14   C18   A    
C2    C84   S    
C95   C96   S    
N1    Ni1   S    
N15   Ni3   S    
C3    C6    A    
C85   H44   S    
C97   C98   S    
C16   N2    A    
C16   H11   S    
C39   C41   A    
C99   H71   S    
C31   C32   A    
C53   C54   A    
C7    C11   S    
C26   C27   A    
C37   C38   A    
N6    N16   A    
C92   H60   S    
C97   H76   S    
C93   H55   S    
C22   C29   A    
C12   C47   S    
C94   H70   S    
C85   C86   S    
C30   C31   A    
C98   H75   S    
C19   H3    S    
C67   N10   A    
C99   H72   S    
N12   Ni2   S    
N7    Ni3   S    
C10   C17   A    
C23   C40   A    
C98   C99   S    
C25   C87   S    
C1    H1    S    
C92   H59   S    
C18   C19   A    
C73   C74   A    
N16   Ni2   S    
C3    I1    S    
C92   C93   S    
C90   H49   S    
C66   C83   S    
C54   C55   A    
C66   C72   A    
C19   C20   A    
C96   H63   S    
C68   C69   A    
C48   C91   S    
N11   Ni4   S    
C87   H54   S    
C70   C71   A    
C4    C12   A    
C56   H12   S    
C76   N7    A    
C86   H41   S    
C9    C82   S    
C72   C94   S    
C28   C34   A    
C59   C60   A    
C13   H78   S    
C97   H77   S    
C13   C14   A    
C30   H7    S    
C94   C95   S    
C52   N5    A    
C7    C56   A    
C74   C82   A    
C90   H50   S    
C95   H66   S    
C76   C83   A    
N9    Ni2   S    
C64   H38   S    
C77   C79   A    
C27   C34   S    
C38   C39   A    
C56   N9    A    
C70   C80   S    
C64   N6    A    
C78   N11   A    
C84   C85   S    
C28   H21   S    
C94   H69   S    
C91   C92   S    
C5    C7    A    
C98   H74   S    
C42   C48   A    
C40   N4    A    
C76   C97   S    
C84   H46   S    
C32   H8    S    
C3    N14   A    
C96   H65   S    
C29   H5    S    
C60   C61   A    
C2    N13   A    
C35   C36   A    
C99   H73   S    
C43   C44   A    
C90   H48   S    
C26   H4    S    
C71   H30   S    
C75   C77   A    
C53   C62   S    
N8    N14   A    
C58   C65   A    
C47   C48   A    
C15   C21   A    
C10   H67   S    
C49   C55   A    
C4    H2    S    
C62   C63   D    
C61   C63   S    
C50   C51   A    
C73   C79   A    
N1    N7    A    
C24   C25   A    
C93   H58   S    
N4    Ni2   S    
C91   H61   S    
C86   H40   S    
C5    N15   A    
C89   N12   A    
C45   N8    A    
C4    N16   A    
C40   H32   S    
C88   C90   S    
C74   H27   S    
C16   C23   A    
C87   H53   S    
C39   C46   A    
C81   H29   S    
C52   H37   S    
C88   H52   S    
C22   C24   A    
C36   C44   A    
C60   H25   S    
C42   C43   A    
C63   H17   S    
C9    C89   A    
C67   H23   S    
C79   C81   S    
C15   C17   A    
C37   I2    S    
C73   H31   S    
N3    Ni4   S    
C8    C31   S    
C88   H51   S    
C93   H57   S    
C2    C8    A    
C80   C81   D    
C95   H68   S    
C85   H43   S    
C1    N1    A    
C75   C82   A    
C57   C61   A    
N14   Ni4   S    
C84   H47   S    
C1    C83   A    
C89   H45   S    
N6    Ni4   S    
C34   C52   A    
N2    Ni3   S    
C96   H64   S    
C30   C36   A    
C50   H14   S    
C17   C25   A    
N11   N12   A    
C23   C65   S    
N2    N4    A    
C28   N3    A    
N10   N13   A    
N10   Ni3   S    
C5    H56   S    
C32   C33   A    
N9    N15   A    
C11   C13   A    
C57   C58   A    
N13   Ni1   S    
C20   C26   A    
C91   H62   S    
C12   C64   A    
C44   I3    S    
C45   H39   S    
C33   C35   A    
N3    N5    A    
C75   H28   S    
C9    C78   A    
C6    C49   S    
C38   H9    S    
C69   C70   A    
C35   C41   A    
C78   H34   S    
C33   C37   A    
C46   C47   A    
C10   C11   A    
C55   H20   S    
C71   C72   A    
C20   C21   A    
C18   H79   S    
C8    C67   A    
C59   H16   S    
C49   C50   A    
C43   H13   S    
C46   H10   S    
C58   H15   S    
C14   C15   A    
N5    Ni1   S    
C24   H6    S    
C77   H36   S    
C51   C53   A    
C54   H18   S    
C21   C22   A    
C68   H26   S    
C62   H22   S    
C59   C65   A    
C86   H42   S    
C57   H19   S    
