data_mof_unit_60174.cif
_audit_creation_date              2012-10-26T20:53:40-0400
_audit_creation_method            fapswitch 2.2
_symmetry_space_group_name_H-M    P1
_symmetry_Int_Tables_number       1
_space_group_crystal_system       triclinic
_cell_length_a                    13.093251
_cell_length_b                    17.814708
_cell_length_c                    16.51193
_cell_angle_alpha                 90.364208
_cell_angle_beta                  96.332507
_cell_angle_gamma                 93.622827
_cell_volume                      3819.95411961

loop_
_atom_site_label
_atom_site_type_symbol
_atom_type_description
_atom_site_fract_x
_atom_site_fract_y
_atom_site_fract_z
_atom_type_partial_charge
Br1   Br    Br    0.789629 0.436943 0.353047 -0.290089
Br2   Br    Br    0.569409 0.282181 0.330530 -0.274966
Br3   Br    Br    0.430848 0.717105 0.319409 -0.241574
Br4   Br    Br    0.570009 0.282972 0.680589 -0.249397
Br5   Br    Br    0.462587 0.900663 0.324318 -0.300190
Br6   Br    Br    0.537708 0.099419 0.675685 -0.301346
Br7   Br    Br    0.662944 0.617727 0.702366 -0.292302
Br8   Br    Br    0.339143 0.380712 0.297794 -0.289429
Br9   Br    Br    0.210443 0.563198 0.646691 -0.285472
Br10  Br    Br    0.336515 0.381593 0.675088 -0.259366
Br11  Br    Br    0.664557 0.617619 0.324882 -0.258061
Br12  Br    Br    0.342246 0.379803 0.873987 -0.308499
Br13  Br    Br    0.666831 0.613259 0.126633 -0.306596
Br14  Br    Br    0.002767 0.371149 0.333705 -0.287971
Br15  Br    Br    0.996750 0.627280 0.667279 -0.295857
Br16  Br    Br    0.432859 0.718123 0.670033 -0.242330
C1    C     C_R   0.508960 0.355743 0.500565 0.584768
C2    C     C_R   0.517951 0.114652 0.500305 -0.051353
C3    C     C_1   0.495078 0.966333 0.499778 0.048680
C4    C     C_1   0.505646 0.033792 0.500175 0.048479
C5    C     C_R   0.567004 0.550810 0.836154 -0.032730
C6    C     C_R   0.429200 0.451881 0.163596 -0.030189
C7    C     C_R   0.565898 0.549747 0.749684 0.318448
C8    C     C_R   0.431091 0.452439 0.250119 0.320688
C9    C     C_R   0.433922 0.450840 0.738021 0.343311
C10   C     C_R   0.568193 0.547548 0.262104 0.343143
C11   C     C_R   0.434534 0.449519 0.823932 0.174960
C12   C     C_R   0.491261 0.644295 0.499459 0.583339
C13   C     C_R   0.569915 0.547046 0.176382 0.175912
C14   C     C_R   0.501686 0.499307 0.873707 -0.046913
C15   C     C_R   0.500611 0.498813 0.126482 -0.047823
C16   C     C_R   0.301095 0.507341 0.484923 0.584433
C17   C     C_R   0.698845 0.492481 0.515065 0.586075
C18   C     C_1   0.501202 0.498984 0.963066 0.063373
C19   C     C_1   0.501133 0.499035 0.037127 0.062074
C20   C     C_R   0.811652 0.484504 0.524629 0.002135
C21   C     C_R   0.188197 0.514883 0.475357 0.000770
C22   C     C_R   0.032604 0.460626 0.401530 0.152135
C23   C     C_R   0.476993 0.726976 0.498835 -0.028951
C24   C     C_R   0.967269 0.538192 0.598818 0.152632
C25   C     C_R   0.131075 0.493999 0.400442 -0.018743
C26   C     C_R   0.868804 0.504738 0.599686 -0.013218
C27   C     C_R   0.134551 0.531172 0.542946 0.175161
C28   C     C_R   0.865336 0.468299 0.457062 0.175187
C29   C     C_R   0.025644 0.519282 0.535254 0.001717
C30   C     C_R   0.974269 0.479883 0.464951 0.001631
C31   C     C_R   0.480799 0.846900 0.573599 -0.014090
C32   C     C_R   0.520333 0.153264 0.426445 -0.011550
C33   C     C_R   0.472455 0.767586 0.572829 0.167316
C34   C     C_R   0.523621 0.273120 0.501230 -0.026565
C35   C     C_R   0.528678 0.232580 0.427294 0.167790
C36   C     C_2   0.831513 0.488251 0.679917 0.324954
C37   C     C_2   0.168493 0.509558 0.320060 0.335356
C38   C     C_2   0.485186 0.890396 0.651204 0.347446
C39   C     C_2   0.516343 0.109822 0.348835 0.346820
C40   C     C_2   0.636770 0.604782 0.888459 0.321083
C41   C     C_2   0.353986 0.401873 0.110961 0.332087
C42   C     C_R   0.466373 0.766949 0.424263 0.168898
C43   C     C_R   0.534190 0.233137 0.575781 0.169795
C44   C     C_R   0.471477 0.845912 0.425327 0.191511
C45   C     C_R   0.529075 0.154179 0.574689 0.191750
C46   C     C_R   0.482804 0.885470 0.499692 -0.051394
Cu1   Cu    Cu3+1 0.500000 0.499980 0.580420 1.177094
Cu2   Cu    Cu3+1 0.500000 0.500020 0.419580 1.177249
H1    H     H_    0.861280 0.521510 0.733567 0.175504
H2    H     H_    0.139538 0.475311 0.266948 0.193741
H3    H     H_    0.446862 0.942491 0.652582 0.150112
H4    H     H_    0.554320 0.057567 0.347610 0.151321
H5    H     H_    0.674735 0.586380 0.945918 0.151982
H6    H     H_    0.378001 0.374266 0.058172 0.163279
N1    N     N_R   0.499970 0.499970 0.701220 -0.245551
N2    N     N_R   0.500030 0.500030 0.298780 -0.245677
O1    O     O_R   0.499990 0.391240 0.567930 -0.456218
O2    O     O_2   0.226593 0.564456 0.310882 -0.425052
O3    O     O_2   0.534399 0.869941 0.713381 -0.346218
O4    O     O_2   0.467826 0.130509 0.286451 -0.360236
O5    O     O_2   0.648809 0.670732 0.870006 -0.345975
O6    O     O_2   0.263895 0.393707 0.123667 -0.388615
O7    O     O_R   0.500010 0.608760 0.432070 -0.455834
O8    O     O_R   0.500000 0.391270 0.432120 -0.453650
O9    O     O_R   0.500000 0.608730 0.567880 -0.453114
O10   O     O_R   0.348990 0.499980 0.556880 -0.457243
O11   O     O_R   0.651010 0.500020 0.443120 -0.457558
O12   O     O_R   0.349000 0.500000 0.421060 -0.462072
O13   O     O_R   0.651000 0.500000 0.578940 -0.462137
O14   O     O_2   0.772555 0.433653 0.688285 -0.432024

loop_
_geom_bond_atom_site_label_1
_geom_bond_atom_site_label_2
_ccdc_geom_bond_type
C32   C39   S    
C10   N2    A    
C20   C26   A    
C3    C4    T    
C31   C46   A    
C39   H4    S    
C31   C33   A    
C29   C30   A    
Cu1   O9    S    
C34   C43   A    
Br6   C45   S    
Br13  C13   S    
C3    C46   S    
C42   C44   A    
C17   C20   S    
C44   C46   A    
C18   C19   T    
C12   O7    A    
C17   O13   A    
Cu2   O12   S    
C32   C35   A    
C37   O2    D    
C9    N1    A    
C41   H6    S    
C2    C4    S    
C24   C26   A    
Cu1   O13   S    
C11   C14   A    
C1    O1    A    
Cu2   O8    S    
C6    C41   S    
C28   C30   A    
C24   C29   A    
C16   O12   A    
Br9   C27   S    
C43   C45   A    
C6    C15   A    
C14   C18   S    
Br12  C11   S    
C7    N1    A    
Br16  C33   S    
C22   C25   A    
C38   H3    S    
Cu1   O1    S    
Br11  C10   S    
C23   C42   A    
C1    O8    A    
C40   O5    D    
C38   O3    D    
C21   C27   A    
Cu2   O11   S    
Br14  C22   S    
C17   O11   A    
Br1   C28   S    
C34   C35   A    
C16   C21   S    
C37   H2    S    
C27   C29   A    
C25   C37   S    
C31   C38   S    
C39   O4    D    
Br10  C9    S    
C23   C33   A    
Cu1   N1    S    
C5    C7    A    
Cu2   O7    S    
C6    C8    A    
C20   C28   A    
C8    N2    A    
Br5   C44   S    
C12   O9    A    
C41   O6    D    
C2    C32   A    
C1    C34   S    
C5    C40   S    
C2    C45   A    
C9    C11   A    
C16   O10   A    
C5    C14   A    
C12   C23   S    
C36   O14   D    
C13   C15   A    
Br7   C7    S    
Br4   C43   S    
Br8   C8    S    
C15   C19   S    
Cu2   N2    S    
C21   C25   A    
Br15  C24   S    
C22   C30   A    
Br2   C35   S    
C36   H1    S    
Cu1   Cu2   S    
Br3   C42   S    
C10   C13   A    
C40   H5    S    
Cu1   O10   S    
C26   C36   S    
