data_mof_unit_37490.cif
_audit_creation_date              2012-12-11T16:28:23-0500
_audit_creation_method            fapswitch 2.2
_symmetry_space_group_name_H-M    P1
_symmetry_Int_Tables_number       1
_space_group_crystal_system       triclinic
_cell_length_a                    16.593209
_cell_length_b                    7.254221
_cell_length_c                    15.213825
_cell_angle_alpha                 89.998134
_cell_angle_beta                  94.729897
_cell_angle_gamma                 89.999263
_cell_volume                      1825.06386244

loop_
_atom_site_label
_atom_site_type_symbol
_atom_type_description
_atom_site_fract_x
_atom_site_fract_y
_atom_site_fract_z
_atom_type_partial_charge
O1    O     O_R   0.663460 0.361760 0.165970 -0.532564
O2    O     O_R   0.336540 0.638240 0.834030 -0.532563
O3    O     O_R   0.836540 0.861760 0.334030 -0.532494
O4    O     O_R   0.163460 0.138240 0.665970 -0.532494
O5    O     O_R   0.827100 0.689870 0.163730 -0.532543
O6    O     O_R   0.172900 0.310130 0.836270 -0.532543
O7    O     O_R   0.672900 0.189870 0.336270 -0.532511
O8    O     O_R   0.327100 0.810130 0.663730 -0.532510
C1    C     C_R   0.853277 0.522922 0.143566 0.707243
C2    C     C_R   0.146723 0.477078 0.856434 0.707243
C3    C     C_R   0.646722 0.022920 0.356432 0.707152
C4    C     C_R   0.353278 0.977080 0.643568 0.707152
O9    O     O_R   0.663490 0.691370 0.155500 -0.535996
O10   O     O_R   0.336510 0.308630 0.844500 -0.535996
O11   O     O_R   0.836510 0.191370 0.344500 -0.535925
O12   O     O_R   0.163490 0.808630 0.655500 -0.535925
O13   O     O_R   0.671770 0.863320 0.325740 -0.536481
O14   O     O_R   0.328230 0.136680 0.674260 -0.536481
O15   O     O_R   0.828230 0.363320 0.174260 -0.536499
O16   O     O_R   0.171770 0.636680 0.825740 -0.536499
C5    C     C_R   0.636192 0.522882 0.133714 0.679542
C6    C     C_R   0.363808 0.477118 0.866286 0.679542
C7    C     C_R   0.863806 0.022878 0.366285 0.679699
C8    C     C_R   0.136194 0.977122 0.633715 0.679699
H1    H     H_    0.107611 0.279786 0.250968 0.117955
H2    H     H_    0.892388 0.720214 0.749032 0.117955
H3    H     H_    0.392915 0.784628 0.248145 0.117929
H4    H     H_    0.607085 0.215372 0.751855 0.117929
O17   O     O_3   0.752910 0.528800 0.305860 -0.373979
O18   O     O_3   0.247090 0.471200 0.694140 -0.373979
O19   O     O_3   0.747090 0.028800 0.194140 -0.374074
O20   O     O_3   0.252910 0.971200 0.805860 -0.374074
V1    V     V_3+5 0.749460 0.803010 0.239640 1.424055
V2    V     V_3+5 0.250540 0.196990 0.760360 1.424056
V3    V     V_3+5 0.750540 0.303010 0.260360 1.424125
V4    V     V_3+5 0.249460 0.696990 0.739640 1.424125
C9    C     C_1   0.468826 0.994804 0.530123 -0.001953
C10   C     C_1   0.531174 0.005196 0.469877 -0.001953
C11   C     C_1   0.031175 0.494803 0.969878 -0.001963
C12   C     C_1   0.968825 0.505197 0.030122 -0.001963
H5    H     H_    0.776773 0.743619 0.636710 0.116529
H6    H     H_    0.223226 0.256381 0.363289 0.116529
H7    H     H_    0.722711 0.238795 0.864164 0.116535
H8    H     H_    0.277289 0.761205 0.135836 0.116535
C13   C     C_R   0.023116 0.157143 0.333379 -0.138477
C14   C     C_R   0.976884 0.842856 0.666621 -0.138477
C15   C     C_R   0.477152 0.659646 0.166159 -0.138523
C16   C     C_R   0.522848 0.340354 0.833841 -0.138523
C17   C     C_R   0.099095 0.220980 0.314953 -0.124327
C18   C     C_R   0.900905 0.779020 0.685047 -0.124327
C19   C     C_R   0.401320 0.724810 0.184344 -0.124410
C20   C     C_R   0.598680 0.275189 0.815656 -0.124409
C21   C     C_R   0.164175 0.207863 0.378198 -0.122172
C22   C     C_R   0.835824 0.792137 0.621802 -0.122172
C23   C     C_R   0.336236 0.711683 0.121109 -0.122175
C24   C     C_R   0.663764 0.288317 0.878891 -0.122175
C25   C     C_R   0.153786 0.130990 0.460414 -0.128516
C26   C     C_R   0.846214 0.869010 0.539586 -0.128516
C27   C     C_R   0.346479 0.633469 0.039147 -0.128627
C28   C     C_R   0.653521 0.366531 0.960853 -0.128627
C29   C     C_R   0.077160 0.066754 0.481546 0.068724
C30   C     C_R   0.922840 0.933246 0.518454 0.068724
C31   C     C_R   0.422979 0.568000 0.018226 0.068714
C32   C     C_R   0.577021 0.432000 0.981774 0.068714
C33   C     C_R   0.010368 0.079986 0.416603 0.067365
C34   C     C_R   0.989632 0.920014 0.583397 0.067365
C35   C     C_R   0.489774 0.581245 0.083159 0.067445
C36   C     C_R   0.510226 0.418755 0.916841 0.067444
C37   C     C_R   0.066875 0.986891 0.565042 -0.178095
C38   C     C_R   0.933125 0.013109 0.434958 -0.178094
C39   C     C_R   0.433122 0.486880 0.934966 -0.178290
C40   C     C_R   0.566878 0.513120 0.065034 -0.178290
C41   C     C_1   0.416008 0.986253 0.581467 -0.194460
C42   C     C_1   0.583992 0.013747 0.418533 -0.194460
C43   C     C_1   0.083993 0.486248 0.918534 -0.194422
C44   C     C_1   0.916007 0.513752 0.081465 -0.194422
H9    H     H_    0.974886 0.167966 0.281316 0.113379
H10   H     H_    0.025114 0.832033 0.718684 0.113379
H11   H     H_    0.525357 0.670435 0.218243 0.113746
H12   H     H_    0.474643 0.329565 0.781757 0.113746
H13   H     H_    0.206704 0.121185 0.506681 0.104424
H14   H     H_    0.793296 0.878815 0.493319 0.104424
H15   H     H_    0.293537 0.623613 0.992921 0.104913
H16   H     H_    0.706463 0.376387 0.007079 0.104913

loop_
_geom_bond_atom_site_label_1
_geom_bond_atom_site_label_2
_ccdc_geom_bond_type
C26   C30   A    
O1    C5    A    
C23   C27   A    
C28   H16   S    
O3    C7    A    
C15   H11   S    
O7    C3    A    
C18   C22   A    
C32   C36   A    
C27   H15   S    
C14   C34   A    
H2    C18   S    
H6    C21   S    
C22   C26   A    
O4    C8    A    
C34   C37   A    
O3    V1    S    
O2    V4    S    
C33   C38   A    
C30   C38   A    
C35   C40   A    
O8    V4    S    
O11   V3    S    
C9    C41   T    
C1    O15   A    
C2    O16   A    
O5    V1    S    
O2    C6    A    
O19   V1    S    
C1    C44   S    
C11   C43   T    
O11   C7    A    
O12   C8    A    
C4    C41   S    
C7    C38   S    
O13   V1    S    
C15   C35   A    
H3    C19   S    
C8    C37   S    
O4    V2    S    
C31   C35   A    
C30   C34   A    
C5    C40   S    
C11   C12   S    
C14   H10   S    
C21   C25   A    
C15   C19   A    
O6    V2    S    
O20   V2    S    
O5    C1    A    
C9    C10   S    
C2    C43   S    
C13   C17   A    
O8    C4    A    
O9    C5    A    
C16   C36   A    
O14   V2    S    
C31   C39   A    
C13   C33   A    
C25   H13   S    
C6    C39   S    
O1    V3    S    
C10   C42   T    
C29   C37   A    
C14   C18   A    
C3    O13   A    
O7    V3    S    
C3    C42   S    
O10   V2    S    
C25   C29   A    
O17   V3    S    
C27   C31   A    
O18   V4    S    
C28   C32   A    
O10   C6    A    
C26   H14   S    
O15   V3    S    
O12   V4    S    
H4    C20   S    
H8    C23   S    
C16   H12   S    
C36   C39   A    
C17   C21   A    
C19   C23   A    
C32   C40   A    
H1    C17   S    
H5    C22   S    
O6    C2    A    
O16   V4    S    
C29   C33   A    
H7    C24   S    
C16   C20   A    
C24   C28   A    
O9    V1    S    
C12   C44   T    
C4    O14   A    
C13   H9    S    
C20   C24   A    
