data_mof_unit_47573.cif
_audit_creation_date              2012-10-26T20:51:09-0400
_audit_creation_method            fapswitch 2.2
_symmetry_space_group_name_H-M    P1
_symmetry_Int_Tables_number       1
_space_group_crystal_system       triclinic
_cell_length_a                    12.989515
_cell_length_b                    10.874264
_cell_length_c                    9.560059
_cell_angle_alpha                 91.168646
_cell_angle_beta                  96.156511
_cell_angle_gamma                 90.801682
_cell_volume                      1342.12672781

loop_
_atom_site_label
_atom_site_type_symbol
_atom_type_description
_atom_site_fract_x
_atom_site_fract_y
_atom_site_fract_z
_atom_type_partial_charge
C1    C     C_R   0.496809 0.262578 0.498212 0.579039
C2    C     C_R   0.485393 0.933420 0.369582 -0.134917
C3    C     C_R   0.487929 0.871516 0.498244 -0.002145
C4    C     C_R   0.300656 0.500067 0.473634 0.549655
C5    C     C_R   0.472780 0.940502 0.619241 -0.007109
C6    C     C_3   0.530100 0.944246 0.763599 0.716665
C7    C     C_3   0.526509 0.082976 0.760424 0.793481
C8    C     C_R   0.584912 0.540528 0.087233 0.075912
C9    C     C_R   0.422973 0.442936 0.061812 0.530387
C10   C     C_R   0.422975 0.442875 0.913255 0.559591
C11   C     C_R   0.585870 0.538780 0.939862 0.078053
C12   C     C_R   0.027808 0.467373 0.559682 0.032494
C13   C     C_3   0.635056 0.663375 0.945624 -0.120455
C14   C     C_3   0.633720 0.665121 0.104261 -0.248861
C15   C     C_R   0.498257 0.737994 0.500604 0.563141
C16   C     C_R   0.699376 0.495432 0.526411 0.544934
C17   C     C_R   0.812291 0.484826 0.541761 0.005442
C18   C     C_R   0.188032 0.501756 0.458320 0.010802
C19   C     C_R   0.025712 0.553911 0.326231 -0.110259
C20   C     C_R   0.133102 0.546401 0.335943 -0.096858
C21   C     C_R   0.135071 0.461338 0.569123 -0.102414
C22   C     C_1   0.740209 0.664226 0.902104 0.289182
C23   C     C_R   0.972772 0.515460 0.438221 0.047821
C24   C     C_1   0.816751 0.380758 0.774521 0.268550
C25   C     C_R   0.865782 0.524589 0.430723 -0.114308
C26   C     C_R   0.867515 0.432406 0.661342 -0.014332
C27   C     C_R   0.975055 0.425723 0.669938 -0.110574
C28   C     C_R   0.470998 0.067461 0.616500 -0.003618
C29   C     C_R   0.484659 0.129870 0.493932 -0.009734
C30   C     C_R   0.484052 0.061832 0.367429 -0.118562
Cu1   Cu    Cu3+1 0.499990 0.499980 0.640670 1.130241
Cu2   Cu    Cu3+1 0.500010 0.500020 0.359330 1.055552
F1    F     F_    0.629858 0.900326 0.766433 -0.611838
F2    F     F_    0.465388 0.134877 0.855256 -0.537309
F3    F     F_    0.623049 0.139163 0.762686 -0.569369
F4    F     F_    0.344790 0.384498 0.117850 -0.569588
F5    F     F_    0.345310 0.383139 0.832342 -0.569520
F6    F     F_    0.472461 0.895274 0.863395 -0.617035
H1    H     H_    0.824175 0.563276 0.338060 0.122641
H2    H     H_    0.489503 0.883635 0.271267 0.167880
H3    H     H_    0.583270 0.729577 0.891119 0.243757
H4    H     H_    0.711344 0.663691 0.165546 0.132001
H5    H     H_    0.580780 0.735063 0.141203 0.167763
H6    H     H_    0.984257 0.590301 0.231976 0.130829
H7    H     H_    0.017621 0.386745 0.762061 0.143826
H8    H     H_    0.173275 0.577981 0.249429 0.163975
H9    H     H_    0.177258 0.425021 0.662848 0.196934
H10   H     H_    0.488280 0.107191 0.268334 0.201486
N1    N     N_R   0.500660 0.500930 0.148010 -0.275336
N2    N     N_R   0.500660 0.500890 0.852110 -0.274855
N3    N     N_1   0.823130 0.666221 0.868357 -0.258490
N4    N     N_1   0.776527 0.339459 0.865578 -0.180404
O1    O     O_R   0.500000 0.319640 0.618810 -0.418690
O2    O     O_R   0.500010 0.319680 0.381230 -0.482173
O3    O     O_R   0.348990 0.499960 0.599490 -0.464288
O4    O     O_R   0.349000 0.500000 0.361910 -0.453662
O5    O     O_R   0.499990 0.680320 0.618770 -0.481508
O6    O     O_R   0.500000 0.680360 0.381190 -0.533210
O7    O     O_R   0.651000 0.500000 0.638090 -0.495644
O8    O     O_R   0.651010 0.500040 0.400510 -0.514971

loop_
_geom_bond_atom_site_label_1
_geom_bond_atom_site_label_2
_ccdc_geom_bond_type
C24   N4    T    
C9    F4    S    
C19   C23   A    
C1    O2    A    
C6    F6    S    
C6    C7    S    
C5    C28   A    
C15   O5    A    
C9    C10   A    
C19   C20   A    
C6    F1    S    
Cu2   O6    S    
C2    C30   A    
C17   C25   A    
Cu1   O5    S    
C1    C29   S    
C2    C3    A    
C4    C18   S    
C11   N2    A    
C14   H4    S    
C25   H1    S    
C1    O1    A    
C11   C13   S    
C12   C23   A    
C27   H7    S    
C26   C27   A    
C29   C30   A    
C10   F5    S    
C17   C26   A    
C8    N1    A    
Cu2   O2    S    
C28   C29   A    
C15   O6    A    
C24   C26   S    
C13   C22   S    
C18   C20   A    
C23   C25   A    
C4    O3    A    
C22   N3    T    
C5    C6    S    
C7    F2    S    
C20   H8    S    
Cu2   N1    S    
Cu1   O1    S    
C8    C11   A    
C12   C27   A    
Cu1   O7    S    
C18   C21   A    
C2    H2    S    
C9    N1    A    
C19   H6    S    
C16   O8    A    
C30   H10   S    
C21   H9    S    
Cu2   O8    S    
C13   H3    S    
C16   C17   S    
C3    C15   S    
C8    C14   S    
Cu1   N2    S    
Cu1   O3    S    
C13   C14   S    
C7    F3    S    
C12   C21   A    
Cu2   O4    S    
C4    O4    A    
C7    C28   S    
Cu1   Cu2   S    
C14   H5    S    
C3    C5    A    
C16   O7    A    
C10   N2    A    
