data_mof_unit_9476.cif
_audit_creation_date              2012-12-10T18:04:36-0500
_audit_creation_method            fapswitch 2.2
_symmetry_space_group_name_H-M    P1
_symmetry_Int_Tables_number       1
_space_group_crystal_system       triclinic
_cell_length_a                    10.835769
_cell_length_b                    9.727633
_cell_length_c                    15.97873
_cell_angle_alpha                 90.441858
_cell_angle_beta                  100.603124
_cell_angle_gamma                 90.017397
_cell_volume                      1655.45017409

loop_
_atom_site_label
_atom_site_type_symbol
_atom_type_description
_atom_site_fract_x
_atom_site_fract_y
_atom_site_fract_z
_atom_type_partial_charge
C1    C     C_R   0.871142 0.499028 0.498337 -0.070149
C2    C     C_R   0.128871 0.499054 0.501736 -0.070788
C3    C     C_R   0.262903 0.499832 0.501383 0.844618
C4    C     C_R   0.737100 0.499822 0.498636 0.841726
C5    C     C_R   0.501495 0.499493 0.341732 0.844362
C6    C     C_R   0.498286 0.500536 0.658171 0.848268
C7    C     C_R   0.508177 0.627947 0.958142 0.258422
C8    C     C_R   0.486651 0.374404 0.040476 0.206987
C9    C     C_R   0.531189 0.622279 0.048377 0.279462
C10   C     C_R   0.462548 0.380384 0.950393 0.228017
C11   C     C_R   0.482930 0.505053 0.910636 -0.223920
C12   C     C_R   0.511829 0.497127 0.088215 -0.223289
C13   C     C_1   0.489104 0.503992 0.821316 0.220672
C14   C     C_1   0.507532 0.497117 0.177925 0.215459
C15   C     C_1   0.503924 0.498172 0.252722 -0.037682
C16   C     C_1   0.494335 0.502161 0.746840 -0.031184
C17   C     C_R   0.413998 0.074729 0.440092 0.301065
C18   C     C_R   0.586952 0.925495 0.559150 0.302665
C19   C     C_R   0.585877 0.076294 0.560093 0.303486
C20   C     C_R   0.412916 0.923973 0.440959 0.312618
C21   C     C_R   0.064161 0.374047 0.500949 -0.110128
C22   C     C_R   0.935678 0.623431 0.497572 -0.117838
C23   C     C_R   0.936019 0.374051 0.500030 -0.117563
C24   C     C_R   0.064175 0.623490 0.501638 -0.116813
Cu1   Cu    Cu3+1 0.500000 0.640660 0.500000 1.110157
Cu2   Cu    Cu3+1 0.500000 0.359340 0.500000 1.119866
H1    H     H_    0.112219 0.276369 0.501283 0.194818
H2    H     H_    0.887253 0.720806 0.493813 0.209483
H3    H     H_    0.888095 0.276381 0.500419 0.193889
H4    H     H_    0.112472 0.720992 0.504702 0.211951
N1    N     N_R   0.500000 0.852070 0.500000 -0.314001
N2    N     N_R   0.500000 0.147930 0.500000 -0.310750
O1    O     O_R   0.319640 0.618740 0.499990 -0.538279
O2    O     O_R   0.680360 0.381260 0.500010 -0.539710
O3    O     O_R   0.680360 0.618740 0.500010 -0.538685
O4    O     O_R   0.319640 0.381260 0.499990 -0.537601
O5    O     O_R   0.499970 0.618750 0.380310 -0.518317
O6    O     O_R   0.500030 0.381250 0.619690 -0.507382
O7    O     O_R   0.500030 0.618750 0.619690 -0.519494
O8    O     O_R   0.499970 0.381250 0.380310 -0.510338
S1    S     S_3+6 0.311408 0.162724 0.351479 0.122013
O9    O     O_2   0.370773 0.138014 0.274907 -0.172955
O10   O     O_2   0.181729 0.102905 0.334568 -0.201930
O11   O     O_3   0.279652 0.331009 0.351428 -0.523633
H5    H     H_    0.236738 0.351947 0.292638 0.360318
S2    S     S_3+6 0.711136 0.838508 0.634242 0.108556
O12   O     O_2   0.832638 0.872904 0.606570 -0.287911
O13   O     O_2   0.713263 0.894786 0.722217 -0.157865
O14   O     O_3   0.718634 0.668735 0.650282 -0.515110
H6    H     H_    0.800214 0.652494 0.688494 0.363018
S3    S     S_3+6 0.689466 0.166499 0.648523 0.115782
O15   O     O_2   0.631934 0.143701 0.725984 -0.203090
O16   O     O_2   0.819160 0.107166 0.664161 -0.196015
O17   O     O_3   0.721057 0.334875 0.648532 -0.523912
H7    H     H_    0.765809 0.356969 0.706929 0.359068
S4    S     S_3+6 0.288911 0.835150 0.365592 0.110055
O18   O     O_2   0.167153 0.871062 0.392633 -0.291470
O19   O     O_2   0.288024 0.888735 0.277624 -0.157085
O20   O     O_3   0.280606 0.664882 0.349830 -0.517481
H8    H     H_    0.199139 0.647953 0.311412 0.363092
S5    S     S_3+6 0.593734 0.766112 0.113092 0.116532
O21   O     O_2   0.675786 0.852649 0.068317 -0.151278
O22   O     O_2   0.486798 0.851215 0.132883 -0.163606
O23   O     O_3   0.682201 0.713664 0.205065 -0.553618
H9    H     H_    0.695515 0.796999 0.241654 0.384771
S6    S     S_3+6 0.398261 0.236936 0.885860 0.119238
O24   O     O_2   0.504009 0.149062 0.867275 -0.136332
O25   O     O_2   0.314342 0.151994 0.930090 -0.160666
O26   O     O_3   0.312376 0.288383 0.792787 -0.524002
H10   H     H_    0.242726 0.342612 0.808708 0.353186
S7    S     S_3+6 0.496294 0.788155 0.903459 0.137800
O27   O     O_2   0.439082 0.893497 0.953643 -0.111667
O28   O     O_2   0.625004 0.834273 0.893151 -0.173282
O29   O     O_3   0.404134 0.775749 0.806688 -0.535716
H11   H     H_    0.415944 0.863711 0.778299 0.403659
S8    S     S_3+6 0.501255 0.213338 0.093976 0.148369
O30   O     O_2   0.373099 0.162370 0.101863 -0.124579
O31   O     O_2   0.561932 0.111069 0.043770 -0.131201
O32   O     O_3   0.590214 0.224348 0.191878 -0.497507
H12   H     H_    0.675656 0.246622 0.182171 0.352370

loop_
_geom_bond_atom_site_label_1
_geom_bond_atom_site_label_2
_ccdc_geom_bond_type
Cu1   N1    S    
S6    O25   D    
Cu2   N2    S    
C5    O5    A    
S1    O9    D    
S8    O32   S    
C20   S4    S    
C7    C11   A    
S2    O14   S    
C9    S5    S    
C23   H3    S    
S8    O31   D    
C7    S7    S    
S6    O26   S    
C3    O1    A    
C8    S8    S    
C17   C20   A    
S4    O18   D    
C18   C19   A    
S5    O22   D    
Cu1   O5    S    
S2    O12   D    
Cu2   O2    S    
C6    O6    A    
S6    O24   D    
C21   H1    S    
C4    O3    A    
O20   H8    S    
C22   H2    S    
S1    O10   D    
S5    O21   D    
C19   N2    A    
C18   S2    S    
S2    O13   D    
C10   S6    S    
C4    O2    A    
C17   S1    S    
O29   H11   S    
S3    O15   D    
S8    O30   D    
S7    O28   D    
Cu2   O6    S    
Cu1   Cu2   S    
S3    O16   D    
S5    O23   S    
C8    C12   A    
C2    C21   A    
Cu1   O3    S    
Cu2   O4    S    
C12   C14   S    
C1    C23   A    
C21   C23   A    
C2    C24   A    
S1    O11   S    
C22   C24   A    
C5    O8    A    
O11   H5    S    
C7    C9    A    
O17   H7    S    
C6    O7    A    
S7    O29   S    
S4    O20   S    
C1    C4    S    
O23   H9    S    
S3    O17   S    
C2    C3    S    
S7    O27   D    
Cu1   O7    S    
C11   C13   S    
Cu2   O8    S    
C3    O4    A    
S4    O19   D    
O26   H10   S    
C9    C12   A    
C24   H4    S    
C5    C15   S    
C10   C11   A    
C6    C16   S    
O32   H12   S    
C19   S3    S    
C1    C22   A    
C8    C10   A    
O14   H6    S    
C13   C16   T    
C17   N2    A    
C14   C15   T    
C18   N1    A    
Cu1   O1    S    
C20   N1    A    
