data_mof_unit_12526.cif
_audit_creation_date              2013-03-05T16:06:17-0500
_audit_creation_method            fapswitch 2.2
_symmetry_space_group_name_H-M    P1
_symmetry_Int_Tables_number       1
_space_group_crystal_system       triclinic
_cell_length_a                    10.877192
_cell_length_b                    9.503523
_cell_length_c                    27.80551
_cell_angle_alpha                 90.00017
_cell_angle_beta                  91.064432
_cell_angle_gamma                 90.000082
_cell_volume                      2873.80529208

loop_
_atom_site_label
_atom_site_type_symbol
_atom_site_description
_atom_site_fract_x
_atom_site_fract_y
_atom_site_fract_z
_atom_type_partial_charge
O1    O     O_R   0.319640 0.618740 0.500000 -0.599846
O2    O     O_R   0.680360 0.381260 0.500000 -0.582499
O3    O     O_R   0.680360 0.618740 0.500000 -0.599906
O4    O     O_R   0.319640 0.381260 0.500000 -0.582576
C1    C     C_R   0.261960 0.500010 0.499996 0.802994
C2    C     C_R   0.738040 0.500010 0.500004 0.803156
O5    O     O_R   0.500020 0.618770 0.430260 -0.545486
O6    O     O_R   0.499980 0.381230 0.569740 -0.560516
O7    O     O_R   0.499980 0.618770 0.569740 -0.545531
O8    O     O_R   0.500020 0.381230 0.430260 -0.560383
C3    C     C_R   0.498006 0.500072 0.407478 0.918511
C4    C     C_R   0.502003 0.500071 0.592520 0.918842
Cu1   Cu    Cu3+1 0.500000 0.640660 0.500000 0.996397
Cu2   Cu    Cu3+1 0.500000 0.359340 0.500000 1.007187
C5    C     C_R   0.391178 0.534387 0.177002 0.564251
C6    C     C_R   0.608879 0.534526 0.822988 0.564237
O9    O     O_2   0.287679 0.559381 0.201604 -0.484934
O10   O     O_2   0.712333 0.559726 0.798381 -0.484965
N1    N     N_R   0.497815 0.504881 0.201744 -0.443070
N2    N     N_R   0.502270 0.504853 0.798251 -0.443102
C7    C     C_R   0.605100 0.479055 0.178562 0.635951
C8    C     C_R   0.395028 0.478835 0.821438 0.635980
C9    C     C_R   0.561469 0.608427 0.279512 0.448660
C10   C     C_R   0.438360 0.608224 0.720484 0.448800
C11   C     C_R   0.565465 0.603257 0.329945 0.318017
C12   C     C_R   0.434354 0.603041 0.670051 0.317951
C13   C     C_R   0.427975 0.399329 0.327912 0.267866
C14   C     C_R   0.572311 0.399517 0.672076 0.267672
C15   C     C_R   0.432535 0.399962 0.277663 -0.235740
C16   C     C_R   0.567761 0.400134 0.722326 -0.235710
C17   C     C_R   0.497918 0.503872 0.253420 0.118780
C18   C     C_R   0.502153 0.503851 0.746573 0.118650
C19   C     C_R   0.499619 0.513535 0.101723 -0.185997
C20   C     C_R   0.500485 0.513500 0.898273 -0.186022
C21   C     C_R   0.389239 0.538175 0.126324 -0.113188
C22   C     C_R   0.610836 0.538288 0.873667 -0.113036
C23   C     C_R   0.281253 0.569514 0.099539 0.537164
C24   C     C_R   0.718806 0.569726 0.900449 0.536966
C25   C     C_R   0.609711 0.488137 0.128027 -0.126779
C26   C     C_R   0.390417 0.487915 0.871973 -0.126728
C27   C     C_R   0.496121 0.500918 0.354498 -0.331188
C28   C     C_R   0.503917 0.500908 0.645496 -0.331150
H1    H     H_    0.381639 0.321934 0.257034 0.209850
H2    H     H_    0.618837 0.322258 0.742955 0.209986
C29   C     C_R   0.387505 0.508557 0.973790 0.017302
C30   C     C_R   0.612614 0.508731 0.026207 0.017270
C31   C     C_R   0.612462 0.525245 0.975539 0.011232
C32   C     C_R   0.387638 0.525103 0.024456 0.011165
C33   C     C_R   0.500086 0.515697 0.949281 0.072535
C34   C     C_R   0.500022 0.515718 0.050715 0.072525
C35   C     C_R   0.278586 0.483991 0.946928 -0.294451
C36   C     C_R   0.721560 0.484368 0.053075 -0.294397
C37   C     C_R   0.279165 0.473572 0.896856 0.497849
C38   C     C_R   0.720987 0.473990 0.103148 0.497877
O11   O     O_2   0.293787 0.443525 0.795384 -0.471888
O12   O     O_2   0.706380 0.443927 0.204622 -0.471915
C39   C     C_R   0.279674 0.555499 0.049574 -0.296513
C40   C     C_R   0.720398 0.555736 0.950416 -0.296542
H3    H     H_    0.191542 0.467585 0.964139 0.163643
H4    H     H_    0.808634 0.468109 0.035872 0.163649
H5    H     H_    0.193766 0.577555 0.030968 0.152527
H6    H     H_    0.806300 0.577857 0.969015 0.152471
C41   C     C_R   0.063724 0.372268 0.499995 -0.139954
C42   C     C_R   0.936270 0.627815 0.499961 -0.186700
C43   C     C_R   0.936275 0.372269 0.500016 -0.139774
C44   C     C_R   0.063730 0.627815 0.500032 -0.186669
H7    H     H_    0.111580 0.272311 0.499962 0.156452
H8    H     H_    0.888404 0.727767 0.499913 0.155182
H9    H     H_    0.888419 0.272312 0.500056 0.156455
H10   H     H_    0.111597 0.727766 0.500073 0.155207
C45   C     C_R   0.871874 0.500036 0.499983 -0.015942
C46   C     C_R   0.128126 0.500036 0.500019 -0.016051
C47   C     C_R   0.420495 0.074437 0.470826 0.000584
C48   C     C_R   0.579436 0.925508 0.529210 0.008693
C49   C     C_R   0.579504 0.074437 0.529175 0.000361
C50   C     C_R   0.420564 0.925508 0.470790 0.008905
H11   H     H_    0.356754 0.130583 0.447522 0.180870
H12   H     H_    0.642999 0.869252 0.552601 0.136397
H13   H     H_    0.643239 0.130585 0.552481 0.180776
H14   H     H_    0.356999 0.869253 0.447400 0.136395
N3    N     N_R   0.500000 0.852070 0.500000 -0.169350
N4    N     N_R   0.500000 0.147930 0.500000 -0.182213
N5    N     N_R   0.349417 0.299435 0.351041 0.144576
O13   O     O_R   0.337989 0.172684 0.333819 -0.370505
O14   O     O_R   0.274135 0.341131 0.383969 -0.380511
N6    N     N_R   0.651103 0.299867 0.648942 0.144529
O15   O     O_R   0.663091 0.173263 0.666235 -0.370296
O16   O     O_R   0.726061 0.341738 0.615926 -0.380574
O17   O     O_3   0.175206 0.611896 0.121823 -0.561292
C51   C     C_3   0.171250 0.760349 0.121197 -0.302271
H15   H     H_    0.159658 0.800830 0.083835 0.147224
H16   H     H_    0.254630 0.807162 0.138731 0.174061
H17   H     H_    0.090704 0.795711 0.141875 0.190390
O18   O     O_3   0.824863 0.612043 0.878158 -0.561562
C52   C     C_3   0.828975 0.760486 0.878827 -0.302150
H18   H     H_    0.840452 0.800888 0.916204 0.147133
H19   H     H_    0.745712 0.807429 0.861252 0.174284
H20   H     H_    0.909654 0.795776 0.858211 0.190478
O19   O     O_3   0.366136 0.702519 0.644903 -0.546392
C53   C     C_3   0.246325 0.649277 0.637293 -0.182605
H21   H     H_    0.199153 0.631920 0.671978 0.194048
H22   H     H_    0.247104 0.550292 0.615879 0.118153
H23   H     H_    0.192038 0.727893 0.616431 0.180035
O20   O     O_3   0.633453 0.702939 0.355093 -0.546292
C54   C     C_3   0.753387 0.650061 0.362701 -0.182554
H24   H     H_    0.800594 0.632849 0.328015 0.193960
H25   H     H_    0.752840 0.551075 0.384116 0.118163
H26   H     H_    0.807493 0.728844 0.383560 0.179991
O21   O     O_3   0.373116 0.710644 0.744384 -0.558377
C55   C     C_3   0.450035 0.828692 0.751025 -0.232693
H27   H     H_    0.477990 0.874059 0.715969 0.203118
H28   H     H_    0.532681 0.802264 0.773446 0.152945
H29   H     H_    0.398111 0.910917 0.770374 0.189103
O22   O     O_3   0.626492 0.711034 0.255612 -0.558488
C56   C     C_3   0.549331 0.828882 0.248984 -0.232573
H30   H     H_    0.521308 0.874154 0.284046 0.203356
H31   H     H_    0.466722 0.802250 0.226571 0.152932
H32   H     H_    0.601074 0.911256 0.229635 0.189050
O23   O     O_3   0.169635 0.446887 0.872665 -0.542064
C57   C     C_3   0.110273 0.576431 0.863902 -0.150952
H33   H     H_    0.171459 0.654107 0.846185 0.148347
H34   H     H_    0.074632 0.621058 0.897891 0.145550
H35   H     H_    0.031631 0.557486 0.838831 0.253226
O24   O     O_3   0.830558 0.447582 0.127346 -0.541876
C58   C     C_3   0.889639 0.577284 0.136129 -0.150906
H36   H     H_    0.828258 0.654810 0.153820 0.148203
H37   H     H_    0.925275 0.621996 0.102152 0.145450
H38   H     H_    0.968253 0.558550 0.161232 0.253141

loop_
_geom_bond_atom_site_label_1
_geom_bond_atom_site_label_2
_geom_bond_distance
_ccdc_geom_bond_type
C40   H6    1.080155 S    
C41   C43   1.386296 A    
C30   C36   1.408237 A    
C13   C15   1.398999 A    
C52   H18   1.112792 S    
O3    C2    1.291050 A    
N1    C17   1.436889 S    
O22   C56   1.409595 S    
C52   H20   1.108988 S    
C32   C39   1.407416 A    
C31   C33   1.415013 A    
C5    N1    1.366624 A    
C54   H25   1.113407 S    
C19   C25   1.412333 A    
C20   C26   1.412346 A    
C42   H8    1.083217 S    
N1    C7    1.365826 A    
C10   C12   1.403042 A    
C1    C46   1.455746 S    
N6    O16   1.301419 A    
C25   C38   1.411640 A    
C29   C35   1.408211 A    
C56   H30   1.113330 S    
Cu1   N3    2.009140 S    
C42   C45   1.401886 A    
O7    Cu1   1.950288 S    
C55   H27   1.113333 S    
C4    C28   1.472815 S    
C36   H4    1.080070 S    
C24   C40   1.395503 A    
C44   C46   1.401885 A    
O19   C53   1.410289 S    
C57   H34   1.112196 S    
C56   H31   1.113122 S    
C58   H38   1.108117 S    
O3    Cu1   1.972840 S    
C57   H35   1.108123 S    
O6    C4    1.294881 A    
C12   O19   1.383486 S    
C32   C34   1.414998 A    
Cu1   Cu2   2.673531 S    
C15   H1    1.083314 S    
C16   H2    1.083309 S    
O2    C2    1.291215 A    
C5    C21   1.409351 A    
O20   C54   1.410274 S    
C36   C38   1.395924 A    
C2    C45   1.455746 S    
C54   H26   1.109349 S    
C41   H7    1.083221 S    
C48   C49   1.415350 A    
O8    Cu2   1.950288 S    
C11   C27   1.414238 A    
N6    O15   1.301364 A    
C19   C34   1.418544 A    
C43   C45   1.401811 A    
C53   H23   1.109350 S    
C35   C37   1.395924 A    
C9    C17   1.404581 A    
O5    C3    1.293727 A    
C10   C18   1.404613 A    
C13   C27   1.416921 A    
C51   H16   1.114323 S    
N5    O13   1.301367 A    
C7    C25   1.409620 A    
C29   C33   1.414077 A    
C6    N2    1.366634 A    
C56   H32   1.109207 S    
C8    C26   1.409609 A    
C24   O18   1.379594 S    
C53   H22   1.113419 S    
C49   N4    1.366638 A    
C55   H29   1.109206 S    
N5    O14   1.301431 A    
N2    C8    1.365832 A    
C14   N6    1.437233 S    
C58   H36   1.114788 S    
C47   C50   1.415344 A    
O1    C1    1.291053 A    
O1    Cu1   1.972839 S    
Cu2   N4    2.009141 S    
C48   N3    1.366470 A    
C47   N4    1.366633 A    
C57   H33   1.114772 S    
C12   C28   1.414207 A    
C51   H17   1.108969 S    
N2    C18   1.436930 S    
C29   C32   1.417508 A    
C5    O9    1.349213 S    
C37   O23   1.380723 S    
C38   O24   1.380708 S    
C30   C31   1.417544 A    
C20   C33   1.418539 A    
O6    Cu2   1.950287 S    
C21   C23   1.410858 A    
C10   O21   1.382096 S    
C50   H14   1.081741 S    
O4    C1    1.291214 A    
C50   N3    1.366473 A    
C7    O12   1.349250 S    
O23   C57   1.409295 S    
C52   H19   1.114278 S    
C11   O20   1.383487 S    
C39   H5    1.080173 S    
C8    O11   1.349256 S    
C54   H24   1.113104 S    
C30   C34   1.414079 A    
C23   O17   1.379578 S    
C22   C24   1.410870 A    
C14   C16   1.399031 A    
C15   C17   1.397551 A    
O21   C55   1.409594 S    
C6    C22   1.409366 A    
C9    O22   1.382097 S    
C16   C18   1.397578 A    
C51   H15   1.112784 S    
C44   H10   1.083218 S    
C43   H9    1.083222 S    
C14   C28   1.416944 A    
C53   H21   1.113105 S    
C19   C21   1.412373 A    
C3    C27   1.472914 S    
C20   C22   1.412390 A    
C9    C11   1.403059 A    
O4    Cu2   1.972840 S    
O18   C52   1.411553 S    
O2    Cu2   1.972839 S    
O7    C4    1.293713 A    
C55   H28   1.113125 S    
O8    C3    1.294923 A    
C13   N5    1.437166 S    
O5    Cu1   1.950287 S    
C35   H3    1.080085 S    
C41   C46   1.401813 A    
C6    O10   1.349211 S    
C26   C37   1.411654 A    
C48   H12   1.081741 S    
C58   H37   1.112189 S    
C47   H11   1.081006 S    
O17   C51   1.411580 S    
C49   H13   1.081021 S    
C23   C39   1.395482 A    
C42   C44   1.386370 A    
O24   C58   1.409311 S    
C31   C40   1.407406 A    
