data_mof_unit_59576.cif
_audit_creation_date              2012-12-10T20:49:45-0500
_audit_creation_method            fapswitch 2.2
_symmetry_space_group_name_H-M    P1
_symmetry_Int_Tables_number       1
_space_group_crystal_system       triclinic
_cell_length_a                    8.112477
_cell_length_b                    8.946361
_cell_length_c                    16.772149
_cell_angle_alpha                 90.009422
_cell_angle_beta                  82.869915
_cell_angle_gamma                 89.989728
_cell_volume                      1207.86138978

loop_
_atom_site_label
_atom_site_type_symbol
_atom_type_description
_atom_site_fract_x
_atom_site_fract_y
_atom_site_fract_z
_atom_type_partial_charge
C1    C     C_R   0.499991 0.782025 0.500002 0.925278
C2    C     C_R   0.500007 0.217965 0.500003 0.962744
C3    C     C_1   0.499982 0.934822 0.500008 -0.121814
C4    C     C_1   0.500008 0.065149 0.500007 -0.135838
C5    C     C_R   0.473712 0.502059 0.653421 0.959072
C6    C     C_R   0.526294 0.501873 0.346578 0.959120
C7    C     C_R   0.447636 0.523789 0.739501 -0.296802
C8    C     C_R   0.552458 0.523118 0.260475 -0.296932
C9    C     C_R   0.484217 0.663622 0.772040 -0.173287
C10   C     C_R   0.516943 0.663047 0.227786 -0.173706
C11   C     C_R   0.451665 0.685494 0.855059 0.370756
C12   C     C_R   0.550347 0.684685 0.144786 0.368879
C13   C     C_R   0.396433 0.564302 0.904787 -0.158844
C14   C     C_R   0.604595 0.563003 0.095159 -0.159559
C15   C     C_R   0.348055 0.429160 0.871650 0.382941
C16   C     C_R   0.651601 0.427540 0.128462 0.383097
C17   C     C_R   0.369742 0.410640 0.788483 0.334409
C18   C     C_R   0.629712 0.409428 0.211648 0.334226
C19   C     C_2   0.421791 0.566953 0.989729 -0.047302
C20   C     C_2   0.579561 0.565762 0.010148 -0.047603
N1    N     N_1   0.926360 0.500000 0.499990 0.011240
N2    N     N_1   0.073640 0.500000 0.500010 0.011143
O1    O     O_R   0.363150 0.714660 0.500000 -0.599878
O2    O     O_R   0.636850 0.285340 0.500000 -0.606946
O3    O     O_R   0.636850 0.714660 0.500000 -0.599390
O4    O     O_R   0.363150 0.285340 0.500000 -0.606912
O5    O     O_R   0.346950 0.500000 0.615800 -0.601031
O6    O     O_R   0.653050 0.500000 0.384200 -0.601047
O7    O     O_R   0.620700 0.500000 0.615800 -0.582091
O8    O     O_R   0.379300 0.500000 0.384200 -0.582240
Zn1   Zn    Zn3+2 0.317220 0.500000 0.500010 1.087240
Zn2   Zn    Zn3+2 0.682780 0.500000 0.499990 1.087398
Cl1   Cl    Cl    0.273828 0.277901 0.934054 -0.321438
Cl2   Cl    Cl    0.724484 0.275520 0.066273 -0.320435
Cl3   Cl    Cl    0.509361 0.859689 0.102029 -0.340006
Cl4   Cl    Cl    0.494967 0.860063 0.897695 -0.340761
C21   C     C_2   0.557375 0.786679 0.720059 0.986623
O9    O     O_2   0.693875 0.771170 0.680998 -0.585014
O10   O     O_R   0.471107 0.921114 0.716905 -0.691481
H1    H     H_    0.534278 0.996547 0.679765 0.357687
C22   C     C_2   0.443610 0.786295 0.279602 0.987262
O11   O     O_2   0.306595 0.771201 0.318199 -0.584991
O12   O     O_R   0.530332 0.920352 0.283185 -0.691211
H2    H     H_    0.466963 0.995866 0.320210 0.357938
Cl5   Cl    Cl    0.692690 0.241469 0.254417 -0.451583
Cl6   Cl    Cl    0.305932 0.242701 0.745947 -0.451398
C23   C     C_2   0.731278 0.560378 0.950020 1.047892
O13   O     O_2   0.855654 0.628295 0.963292 -0.498802
O14   O     O_R   0.734466 0.474448 0.880181 -0.771139
H3    H     H_    0.845275 0.479885 0.844947 0.371526
C24   C     C_2   0.270153 0.564357 0.049899 1.046447
O15   O     O_2   0.148319 0.636740 0.037300 -0.494844
O16   O     O_R   0.264303 0.476418 0.119128 -0.769622
H4    H     H_    0.153974 0.484368 0.154594 0.371028

loop_
_geom_bond_atom_site_label_1
_geom_bond_atom_site_label_2
_ccdc_geom_bond_type
C2    C4    S    
O12   H2    S    
O2    Zn2   S    
C15   C17   A    
C21   O9    D    
C19   C24   S    
C8    C18   A    
C9    C11   A    
C22   O11   D    
C19   C20   D    
C23   O13   D    
O6    Zn2   S    
C16   Cl2   S    
C7    C9    A    
O3    Zn2   S    
C9    C21   S    
O4    Zn1   S    
C23   O14   S    
C5    O5    A    
O16   H4    S    
C10   C22   S    
C1    O3    A    
C22   O12   S    
C10   C12   A    
C16   C18   A    
C11   Cl4   S    
C6    O8    A    
C12   C14   A    
C1    O1    A    
O7    Zn2   S    
C5    O7    A    
C13   C15   A    
C2    O2    A    
O8    Zn1   S    
C21   O10   S    
N1    Zn2   S    
C14   C16   A    
C20   C23   S    
N2    Zn1   S    
C13   C19   S    
C24   O16   S    
O5    Zn1   S    
C24   O15   D    
C18   Cl5   S    
C14   C20   S    
C11   C13   A    
C17   Cl6   S    
C12   Cl3   S    
C2    O4    A    
O14   H3    S    
O10   H1    S    
C5    C7    S    
C6    C8    S    
C7    C17   A    
N1    N2    T    
C15   Cl1   S    
C8    C10   A    
C6    O6    A    
C3    C4    T    
C1    C3    S    
O1    Zn1   S    
