data_mof_unit_14027.cif
_audit_creation_date              2012-12-11T16:53:34-0500
_audit_creation_method            fapswitch 2.2
_symmetry_space_group_name_H-M    P1
_symmetry_Int_Tables_number       1
_space_group_crystal_system       triclinic
_cell_length_a                    14.854424
_cell_length_b                    14.79686
_cell_length_c                    16.934423
_cell_angle_alpha                 108.853688
_cell_angle_beta                  106.025067
_cell_angle_gamma                 108.270925
_cell_volume                      3035.65366622

loop_
_atom_site_label
_atom_site_type_symbol
_atom_type_description
_atom_site_fract_x
_atom_site_fract_y
_atom_site_fract_z
_atom_type_partial_charge
C1    C     C_R   0.087399 0.284090 0.073633 -0.146311
C2    C     C_R   0.063298 0.546874 0.265116 -0.125686
C3    C     C_R   0.280613 0.784516 0.176457 -0.099355
C4    C     C_R   0.936075 0.524168 0.749165 -0.118760
C5    C     C_R   0.698067 0.406106 0.997275 -0.133664
C6    C     C_R   0.336384 0.779252 0.254190 0.057480
C7    C     C_R   0.638188 0.436598 0.943211 0.068531
C8    C     C_R   0.970249 0.531850 0.274601 0.062155
C9    C     C_R   0.001064 0.818639 0.969430 0.040507
C10   C     C_R   0.388627 0.453723 0.867250 0.166430
C11   C     C_R   0.343031 0.409968 0.916677 0.033591
C12   C     C_R   0.026693 0.584926 0.747089 0.059792
C13   C     C_R   0.373043 0.337184 0.939450 -0.200377
C14   C     C_R   0.464856 0.332995 0.936137 -0.201500
C15   C     C_R   0.525423 0.400916 0.909238 0.034729
C16   C     C_R   0.772350 0.200953 0.813207 -0.205616
C17   C     C_R   0.478494 0.448706 0.863193 0.158443
C18   C     C_3   0.522060 0.557480 0.868394 -0.521870
C19   C     C_3   0.424324 0.563438 0.873315 -0.524837
C20   C     C_R   0.960334 0.575814 0.361189 0.130718
C21   C     C_R   0.033349 0.626806 0.680075 0.130626
C22   C     C_R   0.136467 0.697409 0.606670 -0.224603
C23   C     C_R   0.746552 0.192961 0.725270 0.016341
C24   C     C_R   0.130830 0.682802 0.682588 -0.174685
C25   C     C_R   0.941539 0.598204 0.605687 -0.280261
C26   C     C_R   0.946627 0.606977 0.527671 0.188945
C27   C     C_R   0.044959 0.652707 0.526837 0.188317
C28   C     C_R   0.251862 0.527719 0.943189 -0.148703
C29   C     C_R   0.050711 0.641003 0.443840 -0.277197
C30   C     C_R   0.862020 0.541754 0.363716 -0.172056
C31   C     C_R   0.855212 0.558854 0.447081 -0.225417
C32   C     C_R   0.701015 0.093749 0.640755 0.143295
C33   C     C_R   0.445124 0.848826 0.321436 0.129518
C34   C     C_R   0.282702 0.453680 0.958290 0.072172
C35   C     C_R   0.599291 0.017224 0.392836 -0.224826
C36   C     C_R   0.507373 0.938613 0.316510 -0.168941
C37   C     C_R   0.482934 0.831674 0.398101 -0.279484
C38   C     C_R   0.569163 0.912513 0.476260 0.193703
C39   C     C_R   0.625515 0.008064 0.475059 0.179648
C40   C     C_R   0.767860 0.295556 0.733727 0.338800
C41   C     C_R   0.697202 0.096570 0.557902 -0.285599
C42   C     C_R   0.653720 0.995472 0.640955 -0.169907
C43   C     C_R   0.590285 0.904285 0.558604 -0.229857
C44   C     C_R   0.087849 0.114375 0.139330 0.026218
C45   C     C_R   0.273045 0.686678 0.251785 -0.144814
C46   C     C_R   0.997399 0.107366 0.077970 0.074615
C47   C     C_R   0.903138 0.016103 0.046531 -0.204922
C48   C     C_R   0.899517 0.944054 0.084928 -0.156735
C49   C     C_R   0.990236 0.959355 0.152683 -0.013686
C50   C     C_R   0.084907 0.039277 0.171904 0.084063
C51   C     C_3   0.176471 0.116556 0.260965 0.360495
C52   C     C_R   0.251405 0.435215 0.024142 -0.121045
C53   C     C_3   0.176372 0.202140 0.228586 -0.073588
C54   C     C_R   0.108145 0.606216 0.824672 -0.151327
C55   C     C_R   0.914885 0.201031 0.999037 -0.138482
C56   C     C_R   0.703053 0.497408 0.916872 -0.139192
C57   C     C_R   0.000513 0.190544 0.046398 0.080343
C58   C     C_3   0.809225 0.693707 0.866868 -1.085733
C59   C     C_3   0.349389 0.164873 0.348485 0.194040
C60   C     C_3   0.449186 0.184993 0.333333 -0.252285
C61   C     C_3   0.546285 0.248136 0.424226 -1.054221
C62   C     C_3   0.145857 0.281458 0.285611 -1.032524
C63   C     C_3   0.711330 0.322249 0.663322 -1.093486
C64   C     C_R   0.889132 0.462413 0.187817 -0.132090
C65   C     C_R   0.085514 0.804304 0.012789 -0.187910
C66   C     C_R   0.914533 0.721441 0.933994 0.344436
H1    H     H_    0.165754 0.309636 0.121832 0.100526
H2    H     H_    0.593058 0.616532 0.932828 0.200859
H3    H     H_    0.859043 0.512179 0.710541 0.107685
H4    H     H_    0.528284 0.555223 0.803911 0.196122
H5    H     H_    0.441038 0.625963 0.940710 0.200050
H6    H     H_    0.374463 0.565198 0.811858 0.192033
H7    H     H_    0.126894 0.672907 0.443835 0.118482
H8    H     H_    0.790469 0.495353 0.301506 0.116369
H9    H     H_    0.212483 0.734332 0.607393 0.126530
H10   H     H_    0.779054 0.525339 0.447159 0.130839
H11   H     H_    0.203100 0.708819 0.739973 0.113683
H12   H     H_    0.677297 0.513022 0.858937 0.119451
H13   H     H_    0.865437 0.558190 0.603133 0.119694
H14   H     H_    0.741218 0.169567 0.557161 0.146238
H15   H     H_    0.764869 0.137691 0.833066 0.115301
H16   H     H_    0.658820 0.989261 0.703727 0.115833
H17   H     H_    0.643318 0.089330 0.390388 0.139039
H18   H     H_    0.548723 0.830469 0.559940 0.125425
H19   H     H_    0.482450 0.951254 0.256337 0.109845
H20   H     H_    0.439006 0.761777 0.402978 0.114726
H21   H     H_    0.831132 0.002551 0.995828 0.122197
H22   H     H_    0.825574 0.878724 0.064665 0.132596
H23   H     H_    0.806399 0.433575 0.169224 0.093971
H24   H     H_    0.157947 0.122553 0.321483 0.042229
H25   H     H_    0.258367 0.557133 0.893725 0.111831
H26   H     H_    0.248398 0.240516 0.220435 0.152455
H27   H     H_    0.262508 0.381896 0.052473 0.090394
H28   H     H_    0.188136 0.665066 0.852875 0.086713
H29   H     H_    0.834174 0.151809 0.980983 0.086378
H30   H     H_    0.294824 0.646679 0.291454 0.089116
H31   H     H_    0.755455 0.691389 0.901133 0.249433
H32   H     H_    0.813595 0.755234 0.842096 0.259777
H33   H     H_    0.779363 0.615972 0.806684 0.246119
H34   H     H_    0.166778 0.860205 0.041262 0.130594
H35   H     H_    0.348614 0.126682 0.395252 0.120246
H36   H     H_    0.349610 0.243595 0.381972 0.081662
H37   H     H_    0.447759 0.107701 0.294428 0.205975
H38   H     H_    0.452945 0.229874 0.291907 0.186321
H39   H     H_    0.548804 0.325198 0.465503 0.273543
H40   H     H_    0.617361 0.264464 0.410798 0.269224
H41   H     H_    0.545860 0.201036 0.463567 0.280378
H42   H     H_    0.138845 0.337784 0.257042 0.268226
H43   H     H_    0.070296 0.239490 0.287168 0.266036
H44   H     H_    0.207361 0.328377 0.357171 0.250003
H45   H     H_    0.141951 0.595233 0.317812 0.095648
H46   H     H_    0.752455 0.333074 0.619122 0.254207
H47   H     H_    0.630738 0.257610 0.620331 0.263514
H48   H     H_    0.704420 0.395971 0.697746 0.249871
H49   H     H_    0.310895 0.838544 0.149690 0.087440
H50   H     H_    0.669827 0.344763 0.017841 0.085727
H51   H     H_    0.334806 0.294583 0.971123 0.127431
H52   H     H_    0.494031 0.287603 0.965667 0.124852
N1    N     N_R   0.055640 0.348550 0.045600 -0.039332
N2    N     N_R   0.811290 0.303400 0.871650 -0.051282
N3    N     N_R   0.205180 0.552990 0.997660 -0.041220
N4    N     N_R   0.814810 0.361830 0.823710 -0.055535
N5    N     N_R   0.201660 0.494570 0.045600 -0.040156
N6    N     N_R   0.068420 0.560530 0.871650 -0.039114
N7    N     N_R   0.948050 0.295860 0.997660 -0.036058
N8    N     N_R   0.185190 0.638170 0.176290 -0.039468
N9    N     N_R   0.798340 0.505430 0.954400 -0.037143
N10   N     N_R   0.931580 0.439470 0.128350 -0.038984
N11   N     N_R   0.051950 0.704140 0.002340 -0.057296
N12   N     N_R   0.944360 0.651450 0.954400 -0.058669
N13   N     N_R   0.039170 0.492150 0.176290 -0.041171
N14   N     N_R   0.188710 0.696600 0.128350 -0.038489
N15   N     N_R   0.794820 0.447010 0.002340 -0.039421
N16   N     N_R   0.960830 0.507850 0.823710 -0.040130
Ni1   Ni    Ni4+2 0.119330 0.493420 0.109950 0.207174
Ni2   Ni    Ni4+2 0.880670 0.506580 0.890050 0.206712
Ni3   Ni    Ni4+2 0.872590 0.372590 0.000000 0.208395
Ni4   Ni    Ni4+2 0.127410 0.627410 0.000000 0.205097
O1    O     O_3   0.262797 0.094860 0.262839 -0.663148

loop_
_geom_bond_atom_site_label_1
_geom_bond_atom_site_label_2
_ccdc_geom_bond_type
C18   H4    S    
N15   Ni3   S    
C6    C45   A    
C27   C29   A    
C19   H5    S    
C35   C36   A    
C42   H16   S    
C3    C6    A    
C41   H14   S    
C39   C41   A    
C20   C30   A    
C5    N15   A    
C26   C27   A    
C8    C20   S    
C40   C63   S    
C7    C56   A    
N6    Ni4   S    
N13   Ni1   S    
C16   N2    A    
C51   H24   S    
C30   C31   A    
C30   H8    S    
C52   N5    A    
C29   H7    S    
C10   C17   A    
N14   Ni4   S    
C23   C40   A    
C33   C36   A    
C56   H12   S    
C18   C19   S    
C1    N1    A    
C56   N9    A    
C63   H46   S    
C9    C66   A    
C54   N6    A    
C63   H48   S    
C44   C53   S    
C58   C66   S    
N11   Ni4   S    
C55   N7    A    
N2    N4    A    
C64   N10   A    
C58   H32   S    
C32   C41   A    
C48   H22   S    
N8    N14   A    
C4    C12   A    
C60   H37   S    
C61   H39   S    
C45   N8    A    
C7    C15   S    
C28   C34   A    
C59   C60   S    
C13   C14   A    
C43   H18   S    
C19   H6    S    
C58   H31   S    
C64   H23   S    
C4    H3    S    
C44   C46   A    
C2    N13   A    
C4    N16   A    
C20   C29   A    
N12   Ni2   S    
C2    H45   S    
N3    N5    A    
C3    N14   A    
C59   H35   S    
C37   H20   S    
N9    Ni2   S    
C55   H29   S    
C5    C7    A    
C35   H17   S    
C28   N3    A    
N16   Ni2   S    
N7    Ni3   S    
C25   C26   A    
C12   C21   S    
N1    Ni1   S    
N5    Ni1   S    
C60   C61   S    
C51   C53   S    
C47   H21   S    
N3    Ni4   S    
C35   C39   A    
N10   Ni3   S    
C37   C38   A    
C1    C57   A    
C53   C62   S    
C13   H51   S    
C47   C48   A    
C62   H44   S    
C59   O1    S    
C10   C19   S    
C53   H26   S    
C17   C18   S    
C52   H27   S    
C50   C51   S    
C61   H40   S    
N4    Ni2   S    
C8    C64   A    
N1    N7    A    
C48   C49   A    
N8    Ni1   S    
C16   C23   A    
C22   C27   A    
C55   C57   A    
C46   C57   S    
C22   C24   A    
C42   C43   A    
C22   H9    S    
N10   N13   A    
C14   H52   S    
N11   N12   A    
C44   C50   A    
C15   C17   A    
C21   C25   A    
C46   C47   A    
C25   H13   S    
C59   H36   S    
C11   C34   S    
C2    C8    A    
C58   H33   S    
N9    N15   A    
C65   H34   S    
C65   N11   A    
C36   H19   S    
C40   N4    A    
C34   C52   A    
C6    C33   S    
N6    N16   A    
C23   C32   S    
C38   C43   A    
C5    H50   S    
C3    H49   S    
C11   C13   A    
C31   H10   S    
C38   C39   A    
C62   H43   S    
C16   H15   S    
C1    H1    S    
C33   C37   A    
C28   H25   S    
C61   H41   S    
C9    C65   A    
C54   H28   S    
C10   C11   A    
C63   H47   S    
C24   H11   S    
C26   C31   A    
C62   H42   S    
C49   C50   A    
C21   C24   A    
C32   C42   A    
C14   C15   A    
N2    Ni3   S    
C60   H38   S    
C45   H30   S    
C18   H2    S    
C12   C54   A    
C66   N12   A    
C51   O1    S    
