data_mof_unit_42461.cif
_audit_creation_date              2013-03-05T16:48:14-0500
_audit_creation_method            fapswitch 2.2
_symmetry_space_group_name_H-M    P1
_symmetry_Int_Tables_number       1
_space_group_crystal_system       monoclinic
_cell_length_a                    23.445446
_cell_length_b                    8.925685
_cell_length_c                    8.098856
_cell_angle_alpha                 89.974224
_cell_angle_beta                  90.0
_cell_angle_gamma                 90.0
_cell_volume                      1694.82041944

loop_
_atom_site_label
_atom_site_type_symbol
_atom_site_description
_atom_site_fract_x
_atom_site_fract_y
_atom_site_fract_z
_atom_type_partial_charge
O1    O     O_R   0.500000 0.285350 0.636850 -0.613133
O2    O     O_R   0.500000 0.714650 0.363150 -0.613133
O3    O     O_R   0.500000 0.714650 0.636850 -0.613422
O4    O     O_R   0.500000 0.285350 0.363150 -0.613422
H1    H     H_    0.948185 0.128300 0.416266 0.192466
H2    H     H_    0.051792 0.871706 0.583695 0.192487
H3    H     H_    0.948185 0.871700 0.583734 0.192466
H4    H     H_    0.051792 0.128295 0.416305 0.192487
C1    C     C_R   0.500000 0.217978 0.500023 0.946010
C2    C     C_R   0.500000 0.782022 0.499976 0.946009
O5    O     O_R   0.416160 0.500000 0.636910 -0.623278
O6    O     O_R   0.583840 0.500000 0.363090 -0.623283
O7    O     O_R   0.583840 0.500000 0.636910 -0.623283
O8    O     O_R   0.416160 0.500000 0.363090 -0.623278
C3    C     C_R   0.208167 0.500000 0.500000 0.319394
C4    C     C_R   0.791830 0.500000 0.500000 0.320180
C5    C     C_R   0.388974 0.500000 0.500000 0.872410
C6    C     C_R   0.611027 0.500000 0.500000 0.872402
Zn1   Zn    Zn3+2 0.500000 0.500000 0.682780 0.995976
Zn2   Zn    Zn3+2 0.500000 0.500000 0.317220 0.995976
C7    C     C_R   0.296832 0.507365 0.649916 -0.205986
C8    C     C_R   0.703174 0.504945 0.650060 -0.205701
C9    C     C_R   0.296832 0.492635 0.350084 -0.205986
C10   C     C_R   0.703174 0.495055 0.349940 -0.205701
H5    H     H_    0.319044 0.513213 0.766999 0.164362
H6    H     H_    0.680965 0.508830 0.767263 0.164317
H7    H     H_    0.319044 0.486787 0.233001 0.164362
H8    H     H_    0.680965 0.491171 0.232737 0.164317
C11   C     C_R   0.326780 0.500000 0.500000 -0.041416
C12   C     C_R   0.673224 0.500000 0.500000 -0.041444
C13   C     C_R   0.880598 0.631340 0.529596 0.505334
C14   C     C_R   0.119379 0.368646 0.470478 0.505237
C15   C     C_R   0.880598 0.368661 0.470404 0.505334
C16   C     C_R   0.119380 0.631354 0.529522 0.505237
N1    N     N_R   0.852444 0.500000 0.500000 -0.363454
N2    N     N_R   0.147542 0.500000 0.500000 -0.363320
C17   C     C_R   0.940145 0.365791 0.469722 -0.013119
C18   C     C_R   0.059833 0.634211 0.530250 -0.013043
C19   C     C_R   0.940145 0.634209 0.530278 -0.013118
C20   C     C_R   0.059833 0.365789 0.469750 -0.013042
C21   C     C_R   0.970032 0.500000 0.500000 -0.021073
C22   C     C_R   0.029946 0.500000 0.500000 -0.021078
C23   C     C_R   0.970304 0.232657 0.439857 -0.163057
C24   C     C_R   0.029673 0.767346 0.560120 -0.163030
C25   C     C_R   0.970304 0.767343 0.560143 -0.163056
C26   C     C_R   0.029673 0.232655 0.439880 -0.163030
C27   C     C_1   0.500000 0.065200 0.500034 -0.182454
C28   C     C_1   0.500000 0.934799 0.499966 -0.182454
C29   C     C_R   0.237630 0.507531 0.649668 -0.095611
C30   C     C_R   0.762377 0.505101 0.649813 -0.095937
C31   C     C_R   0.237630 0.492469 0.350331 -0.095611
C32   C     C_R   0.762377 0.494899 0.350187 -0.095937
N3    N     N_1   0.500000 0.500000 0.073640 -0.034934
N4    N     N_1   0.500000 0.500000 0.926360 -0.034934
O9    O     O_2   0.850911 0.758439 0.557383 -0.531469
O10   O     O_2   0.149058 0.241502 0.442856 -0.531640
O11   O     O_2   0.850911 0.241561 0.442616 -0.531469
O12   O     O_2   0.149058 0.758498 0.557144 -0.531640
H9    H     H_    0.214558 0.513168 0.765354 0.138520
H10   H     H_    0.785455 0.508845 0.765595 0.138086
H11   H     H_    0.214558 0.486832 0.234646 0.138520
H12   H     H_    0.785456 0.491155 0.234404 0.138086

loop_
_geom_bond_atom_site_label_1
_geom_bond_atom_site_label_2
_geom_bond_distance
_ccdc_geom_bond_type
C10   C32   1.388029 A    
C9    C11   1.404126 A    
C18   C24   1.403885 A    
C6    C12   1.458222 S    
C9    H7    1.083108 S    
C5    C11   1.458164 S    
C21   C22   1.404715 A    
C9    C31   1.388022 A    
C27   C28   1.163920 T    
C29   H9    1.083049 S    
C19   C25   1.403866 A    
C8    C30   1.388029 A    
C30   H10   1.083152 S    
O3    Zn1   1.951510 S    
O6    Zn2   2.000463 S    
C7    C29   1.388022 A    
H1    C23   1.083151 S    
C19   C21   1.409390 A    
O3    C2    1.260883 A    
C32   H12   1.083153 S    
N3    N4    1.192799 T    
C20   C26   1.403884 A    
C31   H11   1.083048 S    
O8    C5    1.278958 A    
O5    Zn1   2.000465 S    
O7    C6    1.278973 A    
C17   C21   1.409390 A    
C14   N2    1.366735 A    
Zn1   N4    1.972719 S    
C20   C22   1.409360 A    
C15   N1    1.366636 A    
C16   N2    1.366736 A    
C13   C19   1.396338 A    
C1    C27   1.363642 S    
C3    C31   1.396797 A    
C3    C29   1.396797 A    
C4    N1    1.421136 S    
C2    C28   1.363642 S    
C4    C30   1.396811 A    
C23   C26   1.391933 A    
C13   N1    1.366636 A    
C17   C23   1.403865 A    
O1    Zn1   1.951840 S    
C10   C12   1.404309 A    
O7    Zn1   2.000463 S    
O2    Zn2   1.951839 S    
O4    Zn2   1.951511 S    
C18   C22   1.409360 A    
H3    C25   1.083152 S    
C3    N2    1.421373 S    
C14   C20   1.396344 A    
O1    C1    1.261025 A    
C24   C25   1.391930 A    
H2    C24   1.083150 S    
O8    Zn2   2.000465 S    
C8    H6    1.083219 S    
O6    C6    1.278974 A    
C16   O12   1.349939 S    
C7    H5    1.083108 S    
O5    C5    1.278957 A    
C15   O11   1.349935 S    
C8    C12   1.404309 A    
H4    C26   1.083149 S    
C13   O9    1.349935 S    
O4    C1    1.260883 A    
C16   C18   1.396344 A    
C7    C11   1.404126 A    
C14   O10   1.349939 S    
C15   C17   1.396338 A    
C4    C32   1.396811 A    
C10   H8    1.083219 S    
Zn2   N3    1.972719 S    
O2    C2    1.261025 A    
