data_mof_unit_14538.cif
_audit_creation_date              2012-12-11T15:54:57-0500
_audit_creation_method            fapswitch 2.2
_symmetry_space_group_name_H-M    P1
_symmetry_Int_Tables_number       1
_space_group_crystal_system       triclinic
_cell_length_a                    17.670414
_cell_length_b                    24.809095
_cell_length_c                    15.108006
_cell_angle_alpha                 90.05785
_cell_angle_beta                  125.746848
_cell_angle_gamma                 90.033934
_cell_volume                      5375.38317564

loop_
_atom_site_label
_atom_site_type_symbol
_atom_type_description
_atom_site_fract_x
_atom_site_fract_y
_atom_site_fract_z
_atom_type_partial_charge
C1    C     C_R   0.918329 0.859046 0.089868 -0.152259
C2    C     C_R   0.154996 0.851017 0.090364 0.015584
C3    C     C_R   0.355511 0.671809 0.995092 0.078874
C4    C     C_R   0.679121 0.998696 0.669375 0.199569
C5    C     C_R   0.176204 0.498944 0.723998 0.240345
C6    C     C_R   0.045701 0.000911 0.355144 0.062930
C7    C     C_R   0.447254 0.499809 0.270006 0.061313
C8    C     C_R   0.268634 0.956233 0.251474 -0.077018
C9    C     C_R   0.266137 0.047274 0.255286 -0.041787
C10   C     C_R   0.753639 0.453382 0.301488 -0.062261
C11   C     C_R   0.758194 0.543573 0.303940 -0.202031
C12   C     C_R   0.015327 0.046020 0.748269 -0.084017
C13   C     C_R   0.685304 0.629284 0.091471 -0.128600
C14   C     C_R   0.016807 0.955022 0.748504 -0.113893
C15   C     C_R   0.461273 0.545140 0.701087 -0.101488
C16   C     C_R   0.463180 0.454499 0.702237 -0.142559
C17   C     C_3   0.275641 0.049928 0.730682 0.045515
C18   C     C_3   0.339600 0.083803 0.832653 -0.214703
C19   C     C_3   0.409451 0.115985 0.826405 -0.806773
C20   C     C_3   0.266092 0.923700 0.791542 0.229526
C21   C     C_3   0.308347 0.894938 0.740268 -0.315952
C22   C     C_3   0.408548 0.877500 0.827397 -0.761003
C23   C     C_3   0.624680 0.583601 0.616484 0.081044
C24   C     C_R   0.667627 0.356958 0.093902 -0.100798
C25   C     C_3   0.717875 0.584651 0.629713 -0.219892
C26   C     C_3   0.717045 0.626720 0.555377 -0.836368
C27   C     C_3   0.658797 0.436629 0.726597 0.251285
C28   C     C_3   0.750066 0.436536 0.735700 -0.257673
C29   C     C_3   0.827705 0.467872 0.835184 -0.719545
C30   C     C_3   0.515926 0.985058 0.233715 0.285395
C31   C     C_3   0.577724 0.020170 0.217080 -0.299622
C32   C     C_3   0.591007 0.994824 0.134892 -1.001340
C33   C     C_3   0.469543 0.153630 0.406447 0.285605
C34   C     C_3   0.392386 0.181574 0.407096 -0.411364
C35   C     C_R   0.323538 0.003059 0.288883 0.134857
C36   C     C_3   0.415826 0.240766 0.439793 -0.929001
C37   C     C_3   0.926040 0.346973 0.437835 0.130679
C38   C     C_3   0.982722 0.316764 0.406760 -0.179682
C39   C     C_3   0.975818 0.255807 0.414231 -0.984770
C40   C     C_3   0.917871 0.512329 0.252953 0.231535
C41   C     C_3   0.855893 0.469658 0.166222 -0.196679
C42   C     C_3   0.765479 0.493233 0.065654 -0.753223
C43   C     C_R   0.805395 0.497025 0.361994 0.081933
C44   C     C_R   0.039038 0.000960 0.715266 0.121308
C45   C     C_R   0.454857 0.499817 0.643486 0.042074
C46   C     C_R   0.133688 0.824615 0.998093 0.061366
C47   C     C_R   0.128566 0.177830 0.998350 0.051851
C48   C     C_R   0.650072 0.331029 0.002911 0.156664
C49   C     C_R   0.903521 0.125628 0.091210 -0.155815
C50   C     C_R   0.679383 0.645727 0.998971 0.146675
C51   C     C_3   0.031833 0.059535 0.476901 -0.417822
C52   C     C_3   0.968527 0.965217 0.432406 -0.381013
C53   C     C_3   0.396076 0.551558 0.369583 -0.398996
C54   C     C_3   0.385263 0.450935 0.361984 -0.384814
C55   C     C_3   0.023699 0.058608 0.571017 -0.458290
C56   C     C_3   0.973868 0.961094 0.535870 -0.490958
C57   C     C_3   0.400637 0.551954 0.474197 -0.479938
C58   C     C_3   0.387175 0.451999 0.465443 -0.411650
C59   C     C_3   0.143551 0.980804 0.553782 -0.669455
C60   C     C_R   0.433730 0.350917 0.088946 -0.150223
C61   C     C_3   0.544436 0.494335 0.466444 -0.578306
C62   C     C_3   0.048484 0.001667 0.453372 0.331232
C63   C     C_3   0.441841 0.499368 0.364038 0.282534
C64   C     C_3   0.047767 0.001321 0.623919 0.210886
C65   C     C_3   0.449065 0.499886 0.541651 0.177296
C66   C     C_R   0.815234 0.128993 0.908085 -0.033791
C67   C     C_R   0.823671 0.863069 0.905556 0.047776
C68   C     C_R   0.337653 0.645110 0.905821 -0.037042
C69   C     C_R   0.342145 0.352551 0.906840 -0.114330
C70   C     C_3   0.148642 0.985937 0.661800 1.031100
C71   C     C_R   0.430328 0.647850 0.088810 -0.152663
C72   C     C_3   0.550925 0.493918 0.573444 1.026279
C73   C     C_3   0.659997 0.185466 0.930254 0.511338
C74   C     C_3   0.721782 0.765806 0.870580 0.400377
C75   C     C_3   0.202132 0.720410 0.874387 0.351023
C76   C     C_3   0.193690 0.289934 0.885233 0.427496
C77   C     C_3   0.134908 0.751978 0.886900 -0.563223
C78   C     C_3   0.129318 0.259467 0.905609 -0.589453
C79   C     C_3   0.617276 0.237520 0.939392 -0.602916
C80   C     C_3   0.669359 0.718512 0.877451 -0.608906
C81   C     C_3   0.349498 0.766385 0.033534 -0.433502
C82   C     C_R   0.064822 0.852549 0.907287 -0.080781
C83   C     C_3   0.335741 0.228084 0.005124 -0.457763
C84   C     C_3   0.797994 0.239411 0.959058 -0.451831
C85   C     C_3   0.875097 0.741991 0.051071 -0.419215
C86   C     C_3   0.804682 0.205839 0.118928 -0.488818
C87   C     C_3   0.752435 0.793484 0.051034 -0.465581
C88   C     C_3   0.271357 0.695289 0.072283 -0.439746
C89   C     C_3   0.294718 0.295954 0.093598 -0.476957
C90   C     C_3   0.769321 0.191697 0.999707 0.066064
C91   C     C_3   0.798213 0.785521 0.990411 0.089743
C92   C     C_3   0.296096 0.712977 0.992053 0.087202
C93   C     C_R   0.063206 0.148687 0.907710 -0.094426
C94   C     C_3   0.297647 0.285356 0.992836 0.114417
C95   C     C_3   0.191965 0.783744 0.997584 0.132114
C96   C     C_3   0.188971 0.217353 0.998003 0.147557
C97   C     C_3   0.694043 0.280845 0.004256 0.075711
C98   C     C_3   0.726431 0.694922 0.996195 0.120543
C99   C     C_3   0.280493 0.810493 0.012858 0.412277
C100  C     C_3   0.259115 0.188089 0.979966 0.430145
C101  C     C_3   0.744914 0.289908 0.948717 0.522585
C102  C     C_3   0.828768 0.686745 0.030863 0.408150
C103  C     C_3   0.222759 0.741495 0.087780 -0.411494
C104  C     C_R   0.576776 0.356416 0.909293 -0.124075
C105  C     C_3   0.243875 0.250034 0.105474 -0.429928
C106  C     C_3   0.761364 0.258339 0.121481 -0.378860
C107  C     C_3   0.724978 0.738625 0.069609 -0.397940
C108  C     C_3   0.486918 0.978813 0.366358 0.499246
C109  C     C_3   0.452892 0.061909 0.438848 0.506159
C110  C     C_3   0.936866 0.435222 0.501874 0.488917
C111  C     C_3   0.964721 0.521476 0.434243 0.509788
C112  C     C_R   0.734663 0.953871 0.714267 -0.088007
C113  C     C_R   0.733775 0.044876 0.716728 -0.060698
C114  C     C_R   0.233469 0.454248 0.754591 -0.141215
C115  C     C_R   0.594609 0.626818 0.907825 -0.140793
C116  C     C_R   0.231727 0.544682 0.749999 -0.070449
C117  C     C_3   0.583510 0.972593 0.476087 -0.648945
C118  C     C_3   0.552981 0.057116 0.536846 -0.536435
C119  C     C_3   0.040772 0.437770 0.597691 -0.476507
C120  C     C_3   0.063487 0.525753 0.536819 -0.534921
C121  C     C_3   0.417652 0.968830 0.474216 -0.827275
C122  C     C_3   0.908036 0.525700 0.555780 -0.773799
C123  C     C_3   0.419134 0.003903 0.388679 0.028444
C124  C     C_3   0.901710 0.494371 0.461989 0.017722
C125  C     C_3   0.583562 0.997685 0.571030 -0.031243
C126  C     C_R   0.150422 0.150511 0.089799 0.017787
C127  C     C_3   0.074159 0.497298 0.635487 -0.099613
C128  C     C_3   0.512621 0.967435 0.586556 0.916205
C129  C     C_3   0.008845 0.523684 0.664077 0.936636
C130  C     C_R   0.040113 0.045815 0.298365 -0.166645
C131  C     C_R   0.039736 0.955064 0.299324 -0.144692
C132  C     C_R   0.477672 0.545217 0.244551 -0.122325
C133  C     C_R   0.476761 0.454568 0.243387 -0.127298
C134  C     C_R   0.840317 0.836843 0.995167 0.058294
C135  C     C_R   0.818812 0.143791 0.999187 0.085328
C136  C     C_R   0.360664 0.325051 0.995929 0.083271
H1    H     H_    0.953976 0.845118 0.172963 0.108973
H2    H     H_    0.903676 0.969527 0.516324 0.177089
H3    H     H_    0.563362 0.633760 0.822788 0.109057
H4    H     H_    0.191086 0.164491 0.172717 0.054246
H5    H     H_    0.200070 0.837953 0.174230 0.106088
H6    H     H_    0.736721 0.640108 0.175489 0.153299
H7    H     H_    0.713862 0.345631 0.178741 0.082838
H8    H     H_    0.090583 0.086398 0.497770 0.165376
H9    H     H_    0.972696 0.923804 0.407265 0.163491
H10   H     H_    0.430443 0.588619 0.368596 0.152037
H11   H     H_    0.415071 0.411997 0.359671 0.161623
H12   H     H_    0.242303 0.076735 0.658341 0.137241
H13   H     H_    0.328594 0.554428 0.452134 0.200976
H14   H     H_    0.318655 0.018580 0.727128 0.157428
H15   H     H_    0.296460 0.112427 0.842081 0.256915
H16   H     H_    0.377690 0.056827 0.904864 0.227605
H17   H     H_    0.454098 0.088589 0.817225 0.306275
H18   H     H_    0.454652 0.139934 0.902284 0.256896
H19   H     H_    0.371285 0.144068 0.756238 0.285411
H20   H     H_    0.271553 0.896447 0.852608 0.165624
H21   H     H_    0.308913 0.958817 0.840755 0.112578
H22   H     H_    0.266166 0.858953 0.694102 0.281249
H23   H     H_    0.307563 0.922113 0.681860 0.221734
H24   H     H_    0.314840 0.456129 0.441842 0.175851
H25   H     H_    0.452574 0.913106 0.873333 0.247080
H26   H     H_    0.437800 0.857025 0.788235 0.309421
H27   H     H_    0.410627 0.849017 0.885397 0.243432
H28   H     H_    0.626136 0.616044 0.668091 0.172115
H29   H     H_    0.566364 0.594228 0.532638 0.107276
H30   H     H_    0.775652 0.593551 0.715830 0.250741
H31   H     H_    0.732895 0.544784 0.609986 0.189273
H32   H     H_    0.664048 0.615952 0.468469 0.217552
H33   H     H_    0.786303 0.628182 0.570129 0.290526
H34   H     H_    0.700770 0.667241 0.571290 0.310030
H35   H     H_    0.071461 0.089975 0.630615 0.217647
H36   H     H_    0.653116 0.397270 0.757166 0.139575
H37   H     H_    0.657700 0.466923 0.780238 0.159329
H38   H     H_    0.772802 0.394184 0.740891 0.214509
H39   H     H_    0.739181 0.454133 0.661532 0.204909
H40   H     H_    0.819788 0.511680 0.817862 0.253893
H41   H     H_    0.896016 0.454018 0.856777 0.291061
H42   H     H_    0.828066 0.461223 0.907490 0.267541
H43   H     H_    0.456185 0.161571 0.650065 0.384070
H44   H     H_    0.884563 0.762291 0.787492 0.379464
H45   H     H_    0.100033 0.808332 0.663759 0.366846
H46   H     H_    0.992214 0.918843 0.565562 0.198315
H47   H     H_    0.248803 0.237980 0.694944 0.379089
H48   H     H_    0.425113 0.886539 0.054439 0.321243
H49   H     H_    0.270529 0.042534 0.033073 0.392488
H50   H     H_    0.932335 0.370378 0.981895 0.371196
H51   H     H_    0.910471 0.580782 0.041080 0.360152
H52   H     H_    0.449721 0.976239 0.153181 0.181772
H53   H     H_    0.554138 0.946675 0.272514 0.115776
H54   H     H_    0.545883 0.060581 0.187382 0.271685
H55   H     H_    0.646897 0.025452 0.296440 0.180949
H56   H     H_    0.624156 0.954559 0.163713 0.275989
H57   H     H_    0.436683 0.589043 0.521145 0.165550
H58   H     H_    0.636709 0.021035 0.125256 0.271960
H59   H     H_    0.522733 0.990454 0.054163 0.267050
H60   H     H_    0.481003 0.177142 0.352672 0.150746
H61   H     H_    0.536301 0.156406 0.488944 0.090455
H62   H     H_    0.326230 0.179427 0.325329 0.206437
H63   H     H_    0.381992 0.161596 0.464671 0.193067
H64   H     H_    0.481595 0.244299 0.523130 0.305337
H65   H     H_    0.358775 0.259865 0.439322 0.266900
H66   H     H_    0.423478 0.262639 0.381290 0.246328
H67   H     H_    0.852790 0.332397 0.386118 0.087382
H68   H     H_    0.413377 0.412435 0.506843 0.190461
H69   H     H_    0.955245 0.337309 0.524286 0.150170
H70   H     H_    0.957043 0.327574 0.322352 0.228713
H71   H     H_    0.057015 0.329250 0.461910 0.222803
H72   H     H_    0.902079 0.242372 0.359930 0.248094
H73   H     H_    0.004595 0.243918 0.499090 0.332024
H74   H     H_    0.016210 0.235186 0.389061 0.259193
H75   H     H_    0.971013 0.526523 0.241335 0.186906
H76   H     H_    0.873973 0.547084 0.242034 0.160012
H77   H     H_    0.896440 0.449808 0.140533 0.236777
H78   H     H_    0.837169 0.437890 0.201899 0.241143
H79   H     H_    0.200824 0.000677 0.556303 0.158200
H80   H     H_    0.741588 0.529407 0.085149 0.247043
H81   H     H_    0.708185 0.463508 0.030950 0.261070
H82   H     H_    0.774764 0.503859 0.001378 0.275044
H83   H     H_    0.509608 0.852710 0.489857 0.361436
H84   H     H_    0.595574 0.014060 0.861116 0.370891
H85   H     H_    0.964530 0.403754 0.770629 0.367763
H86   H     H_    0.124519 0.589505 0.897222 0.384804
H87   H     H_    0.148994 0.937502 0.539054 0.189623
H88   H     H_    0.588094 0.524919 0.463385 0.151022
H89   H     H_    0.931809 0.131515 0.175876 0.102890
H90   H     H_    0.574233 0.455963 0.460872 0.180636
H91   H     H_    0.644396 0.151941 0.966247 0.045579
H92   H     H_    0.669939 0.798536 0.825908 0.131109
H93   H     H_    0.169945 0.680641 0.841956 0.171429
H94   H     H_    0.172614 0.333111 0.872889 0.074276
H95   H     H_    0.583193 0.228485 0.980693 0.176571
H96   H     H_    0.600109 0.732868 0.853902 0.194589
H97   H     H_    0.085561 0.723714 0.886375 0.207652
H98   H     H_    0.097870 0.288696 0.931542 0.178734
H99   H     H_    0.090178 0.776477 0.813517 0.213135
H100  H     H_    0.474516 0.336773 0.172197 0.089039
H101  H     H_    0.068077 0.242483 0.829493 0.221587
H102  H     H_    0.561161 0.253188 0.857641 0.235640
H103  H     H_    0.655143 0.687304 0.817135 0.215069
H104  H     H_    0.384539 0.777045 0.994477 0.197770
H105  H     H_    0.359008 0.220203 0.952396 0.222277
H106  H     H_    0.786279 0.231841 0.879649 0.185847
H107  H     H_    0.922032 0.741345 0.024705 0.222574
H108  H     H_    0.768330 0.142836 0.825808 0.166381
H109  H     H_    0.773633 0.854326 0.820576 0.173238
H110  H     H_    0.292124 0.655333 0.821136 0.168957
H111  H     H_    0.468379 0.662476 0.171771 0.102216
H112  H     H_    0.299921 0.341283 0.822742 0.195613
H113  H     H_    0.255608 0.830154 0.934946 0.111677
H114  H     H_    0.219506 0.176432 0.892876 0.126626
H115  H     H_    0.690902 0.297484 0.860334 0.058211
H116  H     H_    0.823367 0.667925 0.961027 0.128532
H117  H     H_    0.881469 0.212158 0.172349 0.202212
H118  H     H_    0.800422 0.813624 0.131492 0.188440
H119  H     H_    0.333742 0.684006 0.154342 0.182267
H120  H     H_    0.364847 0.298234 0.172236 0.175658
H121  H     H_    0.787793 0.172581 0.154174 0.168734
H122  H     H_    0.966495 0.076785 0.404209 0.169675
H123  H     H_    0.689555 0.819500 0.001751 0.197803
H124  H     H_    0.224874 0.659360 0.038883 0.192673
H125  H     H_    0.258918 0.334879 0.082835 0.191697
H126  H     H_    0.723213 0.250354 0.158277 0.155724
H127  H     H_    0.654426 0.741840 0.051798 0.183611
H128  H     H_    0.161774 0.725605 0.083578 0.192995
H129  H     H_    0.196739 0.266680 0.125065 0.179681
H130  H     H_    0.271784 0.759427 0.169985 0.216546
H131  H     H_    0.296098 0.224247 0.174450 0.212780
H132  H     H_    0.816964 0.287778 0.175172 0.219648
H133  H     H_    0.899820 0.982259 0.365545 0.174623
H134  H     H_    0.774962 0.727787 0.157081 0.207469
H135  H     H_    0.406070 0.762487 0.122335 0.219854
H136  H     H_    0.398915 0.222865 0.090333 0.199816
H137  H     H_    0.874777 0.245401 0.017823 0.216904
H138  H     H_    0.919526 0.751125 0.140007 0.202447
H139  H     H_    0.459740 0.938123 0.329209 0.099965
H140  H     H_    0.408903 0.075096 0.465204 0.054360
H141  H     H_    0.894870 0.418230 0.528574 0.074652
H142  H     H_    0.941538 0.563902 0.407163 0.057282
H143  H     H_    0.637281 0.993011 0.471392 0.205383
H144  H     H_    0.322086 0.553687 0.297086 0.189368
H145  H     H_    0.598449 0.075068 0.515727 0.189107
H146  H     H_    0.081601 0.419660 0.570334 0.218397
H147  H     H_    0.112697 0.507399 0.521793 0.212636
H148  H     H_    0.719225 0.913162 0.683758 0.176209
H149  H     H_    0.717320 0.086243 0.690650 0.101055
H150  H     H_    0.213372 0.412579 0.742362 0.136315
H151  H     H_    0.208740 0.585627 0.728397 0.172619
H152  H     H_    0.604291 0.929867 0.489967 0.210632
H153  H     H_    0.561455 0.081717 0.602801 0.246884
H154  H     H_    0.053685 0.412009 0.665208 0.215583
H155  H     H_    0.311997 0.452749 0.287893 0.175523
H156  H     H_    0.083679 0.568750 0.552793 0.204181
H157  H     H_    0.397413 0.927070 0.442878 0.213757
H158  H     H_    0.361755 0.983450 0.481243 0.240608
H159  H     H_    0.856189 0.509196 0.567933 0.237974
H160  H     H_    0.886423 0.568094 0.529059 0.224294
H161  H     H_    0.054118 0.087347 0.324969 0.092868
H162  H     H_    0.051471 0.913708 0.326932 0.102478
H163  H     H_    0.472859 0.586789 0.260998 0.089264
H164  H     H_    0.471317 0.412995 0.259686 0.091278
H165  H     H_    0.291628 0.914947 0.267759 0.158079
H166  H     H_    0.951119 0.069824 0.540223 0.174448
H167  H     H_    0.282883 0.089085 0.275256 0.139880
H168  H     H_    0.760993 0.411970 0.326700 0.097476
H169  H     H_    0.775864 0.584744 0.332615 0.124620
H170  H     H_    0.019784 0.087812 0.733027 0.108723
H171  H     H_    0.023663 0.913588 0.732760 0.128159
H172  H     H_    0.448286 0.586515 0.674187 0.097497
H173  H     H_    0.454633 0.412743 0.677818 0.111854
H174  H     H_    0.023043 0.841375 0.822488 0.093957
H175  H     H_    0.025770 0.159893 0.823097 0.099885
H176  H     H_    0.541505 0.344008 0.825295 0.094934
N1    N     N_R   0.950530 0.896220 0.057200 -0.049722
N2    N     N_R   0.818150 0.028600 0.792440 -0.061401
N3    N     N_R   0.318150 0.471400 0.792440 -0.056432
N4    N     N_R   0.318150 0.528600 0.792440 -0.067105
N5    N     N_R   0.025710 0.028600 0.207560 -0.035391
N6    N     N_R   0.025710 0.971400 0.207560 -0.036591
N7    N     N_R   0.525710 0.528600 0.207560 -0.038472
N8    N     N_R   0.525710 0.471400 0.207560 -0.042408
N9    N     N_R   0.181850 0.971400 0.207560 -0.058934
N10   N     N_R   0.181850 0.028600 0.207560 -0.071261
N11   N     N_R   0.681850 0.471400 0.207560 -0.055603
N12   N     N_R   0.950530 0.103780 0.057200 -0.051326
N13   N     N_R   0.681850 0.528600 0.207560 -0.045101
N14   N     N_R   0.974290 0.028600 0.792440 -0.057875
N15   N     N_R   0.974290 0.971400 0.792440 -0.058251
N16   N     N_R   0.474290 0.528600 0.792440 -0.045066
N17   N     N_R   0.474290 0.471400 0.792440 -0.045306
N18   N     N_R   0.049470 0.896220 0.942800 -0.039393
N19   N     N_R   0.049470 0.103780 0.942800 -0.029608
N20   N     N_R   0.549470 0.396220 0.942800 -0.047767
N21   N     N_R   0.549470 0.603780 0.942800 -0.045692
N22   N     N_R   0.106670 0.103780 0.057200 -0.036194
N23   N     N_R   0.450530 0.396220 0.057200 -0.034675
N24   N     N_R   0.106670 0.896220 0.057200 -0.042374
N25   N     N_R   0.606670 0.603780 0.057200 -0.058422
N26   N     N_R   0.606670 0.396220 0.057200 -0.057103
N27   N     N_R   0.450530 0.603780 0.057200 -0.036756
N28   N     N_R   0.893330 0.103780 0.942800 -0.068672
N29   N     N_R   0.893330 0.896220 0.942800 -0.058760
N30   N     N_R   0.393330 0.603780 0.942800 -0.050663
N31   N     N_R   0.393330 0.396220 0.942800 -0.046732
N32   N     N_R   0.818150 0.971400 0.792440 -0.065082
Ni1   Ni    Ni4+2 0.065600 0.934400 0.131190 0.236716
Ni2   Ni    Ni4+2 0.065600 0.065600 0.131190 0.214499
Ni3   Ni    Ni4+2 0.565600 0.434400 0.131190 0.199271
Ni4   Ni    Ni4+2 0.565600 0.565600 0.131190 0.212670
Ni5   Ni    Ni4+2 0.934400 0.065600 0.868810 0.217490
Ni6   Ni    Ni4+2 0.934400 0.934400 0.868810 0.248868
Ni7   Ni    Ni4+2 0.434400 0.565600 0.868810 0.238677
Ni8   Ni    Ni4+2 0.434400 0.434400 0.868810 0.223626
O1    O     O_3   0.207170 0.027038 0.739289 -0.687167
O2    O     O_3   0.872406 0.771174 0.842067 -0.585594
O3    O     O_2   0.309432 0.756102 0.806340 -0.324423
O4    O     O_2   0.158916 0.716204 0.669771 -0.247624
O5    O     O_3   0.161628 0.812970 0.734547 -0.570996
O6    O     O_2   0.106002 0.219453 0.709255 -0.349027
O7    O     O_2   0.128763 0.312251 0.677076 -0.375947
O8    O     O_3   0.269739 0.247825 0.769625 -0.587170
O9    O     O_2   0.290357 0.913964 0.078586 -0.350095
O10   O     O_2   0.368662 0.844864 0.222554 -0.342367
O11   O     O_3   0.444645 0.872606 0.126324 -0.565088
O12   O     O_3   0.169701 0.934385 0.713273 -0.690563
O13   O     O_2   0.399546 0.116219 0.059402 -0.346889
O14   O     O_2   0.337427 0.129980 0.164744 -0.299161
O15   O     O_3   0.238326 0.074268 0.985720 -0.529977
O16   O     O_2   0.765985 0.396424 0.965131 -0.389633
O17   O     O_2   0.893231 0.344473 0.118799 -0.358336
O18   O     O_3   0.878934 0.345442 0.937791 -0.565185
O19   O     O_2   0.005810 0.656195 0.185248 -0.286942
O20   O     O_2   0.894717 0.644292 0.230011 -0.336450
O21   O     O_3   0.882785 0.581126 0.082234 -0.606762
O22   O     O_3   0.493998 0.013642 0.296912 -0.594187
O23   O     O_3   0.613148 0.533866 0.653565 -0.714646
O24   O     O_3   0.445994 0.099925 0.364013 -0.575386
O25   O     O_3   0.926949 0.402747 0.417981 -0.628312
O26   O     O_3   0.966670 0.489168 0.357638 -0.629375
O27   O     O_2   0.615137 0.894221 0.750129 -0.296413
O28   O     O_2   0.453679 0.871164 0.612390 -0.272944
O29   O     O_3   0.568771 0.859885 0.562035 -0.538385
O30   O     O_2   0.456685 0.054172 0.649977 -0.354200
O31   O     O_2   0.442755 0.965488 0.705427 -0.312817
O32   O     O_3   0.608053 0.005563 0.806663 -0.479991
O33   O     O_2   0.107386 0.464556 0.851733 -0.327523
O34   O     O_3   0.580908 0.440398 0.616267 -0.731770
O35   O     O_2   0.980175 0.519034 0.822985 -0.269786
O36   O     O_3   0.937502 0.431128 0.712006 -0.625738
O37   O     O_2   0.053451 0.628182 0.650150 -0.312106
O38   O     O_2   0.968038 0.614821 0.728305 -0.283374
O39   O     O_3   0.142595 0.587510 0.846413 -0.580076
O40   O     O_2   0.631021 0.203405 0.732872 -0.378269
O41   O     O_2   0.618360 0.110925 0.781011 -0.292448
O42   O     O_3   0.484983 0.177890 0.722823 -0.546721
O43   O     O_2   0.767125 0.687550 0.777863 -0.350653
O44   O     O_2   0.698721 0.770856 0.676883 -0.244292
S1    S     S_3+6 0.600088 0.168982 0.788040 -0.110401
S2    S     S_3+6 0.502217 0.999901 0.687225 -0.029063
S3    S     S_3+6 0.010164 0.484329 0.767131 -0.077061
S4    S     S_3+6 0.042220 0.591226 0.720230 -0.064618
S5    S     S_3+6 0.764518 0.747479 0.788938 -0.086396
S6    S     S_3+6 0.210346 0.751260 0.769839 -0.080750
S7    S     S_3+6 0.172265 0.266495 0.756817 -0.135614
S8    S     S_3+6 0.344745 0.862252 0.113791 -0.132050
S9    S     S_3+6 0.312193 0.126090 0.051986 -0.082458
S10   S     S_3+6 0.822842 0.346275 0.997211 -0.127938
S11   S     S_3+6 0.906357 0.642308 0.139368 -0.098720
S12   S     S_3+6 0.538719 0.896904 0.630200 -0.040223

loop_
_geom_bond_atom_site_label_1
_geom_bond_atom_site_label_2
_ccdc_geom_bond_type
C84   C101  S    
C132  H163  S    
C87   C91   S    
C19   H19   S    
C71   H111  S    
N15   Ni6   S    
N22   Ni2   S    
C86   H117  S    
N27   Ni4   S    
C4    C125  S    
H44   O2    S    
N2    Ni5   S    
C9    H167  S    
C10   H168  S    
C95   C99   S    
C54   C63   S    
C77   H99   S    
O10   S8    D    
C85   H138  S    
C39   H73   S    
C41   C42   S    
C30   H53   S    
C89   C94   S    
C75   H93   S    
C12   N14   A    
C113  H149  S    
C16   H173  S    
N16   Ni7   S    
C3    C68   A    
C78   C96   S    
N7    Ni4   S    
C12   H170  S    
C11   N13   A    
N14   N15   A    
C100  S9    S    
O36   S3    S    
O28   S12   D    
C58   H68   S    
C29   H41   S    
C21   C22   S    
C21   H23   S    
C132  N7    A    
C18   H16   S    
C109  C118  S    
N12   N28   A    
C4    C113  A    
C121  C128  S    
C86   C90   S    
C87   H123  S    
C73   H91   S    
C22   H25   S    
C81   C99   S    
C68   H110  S    
C98   C102  S    
O30   S2    D    
C44   C64   S    
C3    C92   S    
C8    C35   A    
C86   H121  S    
C37   C38   S    
C49   N12   A    
C54   H155  S    
C41   H77   S    
N21   N25   A    
N31   Ni8   S    
C67   C134  A    
N11   Ni3   S    
C47   C93   A    
C73   S1    S    
C10   N11   A    
C117  H152  S    
C79   H95   S    
C7    C132  A    
O39   S4    S    
O3    S6    D    
C115  H3    S    
C83   C100  S    
C76   H94   S    
C19   H17   S    
C89   H125  S    
C13   N25   A    
C122  C124  S    
C47   C126  A    
C24   N26   A    
C9    N10   A    
C111  C124  S    
H47   O8    S    
C79   C97   S    
C109  C123  S    
C76   S7    S    
C42   H82   S    
C16   C45   A    
C28   H39   S    
C7    C133  A    
C25   H30   S    
C81   H104  S    
C12   C44   A    
C116  N4    A    
C53   H10   S    
C51   C55   S    
C83   H136  S    
C121  C123  S    
C16   N17   A    
C87   C107  S    
C20   C21   S    
C26   H34   S    
N9    N10   A    
C131  N6    A    
H83   O29   S    
O32   S2    S    
C53   H144  S    
C121  H157  S    
C14   H171  S    
C6    C130  A    
C108  H139  S    
N23   N31   A    
C120  C127  S    
C15   H172  S    
N9    Ni1   S    
C31   H54   S    
H49   O15   S    
C126  N22   A    
C76   C78   S    
C73   C90   S    
C18   C19   S    
C112  N32   A    
C38   C39   S    
C24   H7    S    
C105  H129  S    
C106  H126  S    
C61   C63   S    
C112  H148  S    
C74   H92   S    
C74   S5    S    
C46   C82   A    
C81   C92   S    
C87   H118  S    
C33   H60   S    
O4    S6    D    
C57   H13   S    
C56   C64   S    
C118  H153  S    
C129  S3    S    
C84   H106  S    
C60   C136  A    
C78   H98   S    
C110  H141  S    
C76   C94   S    
C49   C135  A    
C107  H134  S    
O8    S7    S    
C86   C106  S    
C51   C62   S    
C84   C90   S    
C80   H96   S    
C95   C103  S    
C88   H119  S    
C115  N21   A    
O5    S6    S    
C50   C98   S    
C2    N24   A    
C38   H71   S    
C24   C48   A    
C17   H12   S    
O21   S11   S    
C114  H150  S    
C25   C26   S    
C128  S2    S    
N21   Ni7   S    
N26   Ni3   S    
N7    N8    A    
H45   O5    S    
N11   N13   A    
O31   S2    D    
O13   S9    D    
C99   S8    S    
C127  C129  S    
C60   N23   A    
O40   S1    D    
O29   S12   S    
N29   Ni6   S    
C34   H62   S    
C58   C65   S    
C31   C32   S    
C130  N5    A    
C103  H128  S    
C39   H72   S    
C17   C18   S    
C73   C79   S    
C75   C77   S    
C7    C63   S    
C51   H122  S    
C45   C65   S    
C122  H160  S    
C36   H65   S    
O18   S10   S    
C49   H89   S    
C1    H1    S    
C23   H28   S    
C8    H165  S    
O43   S5    D    
C37   H69   S    
C108  C117  S    
N16   N17   A    
C110  C119  S    
C55   H166  S    
C105  H131  S    
C65   C72   S    
C106  H132  S    
C61   H90   S    
C102  S11   S    
C35   C123  S    
C61   H88   S    
C52   C62   S    
C90   C135  S    
C67   H109  S    
C28   H38   S    
C91   C134  S    
C96   C100  S    
C104  H176  S    
C133  H164  S    
N1    N29   A    
C34   C36   S    
N19   N22   A    
C67   N29   A    
C109  H140  S    
C13   C50   A    
C108  O22   S    
N27   N30   A    
C89   C105  S    
N8    Ni3   S    
C83   H105  S    
C117  C125  S    
C27   H36   S    
C85   C102  S    
C119  C127  S    
C96   C105  S    
C11   H169  S    
C21   H22   S    
C17   H14   S    
C48   C97   S    
C80   H103  S    
C28   C29   S    
C30   C31   S    
C22   H26   S    
C31   H55   S    
C32   H56   S    
C116  H151  S    
C50   C115  A    
C82   N18   A    
C110  C124  S    
O27   S12   D    
N25   Ni4   S    
C59   C62   S    
C89   H120  S    
N12   Ni2   S    
C47   C96   S    
C72   O34   S    
C118  C125  S    
N13   Ni4   S    
C38   H70   S    
C122  C129  S    
N23   Ni3   S    
C99   H113  S    
O14   S9    D    
N3    N4    A    
C74   C80   S    
C84   H137  S    
C101  H115  S    
C32   H59   S    
O15   S9    S    
C72   O23   S    
C55   H35   S    
N32   Ni6   S    
C66   N28   A    
N14   Ni5   S    
C118  H145  S    
C53   C57   S    
C83   C94   S    
C25   H31   S    
C98   C107  S    
C39   H74   S    
C30   H52   S    
C74   C91   S    
C3    C71   A    
C29   H40   S    
C14   N15   A    
C52   H133  S    
C40   H75   S    
C126  H4    S    
C5    C127  S    
C59   H87   S    
C97   C106  S    
C61   C72   S    
C78   H101  S    
C29   H42   S    
C110  O25   S    
C37   O25   S    
C120  H156  S    
C108  C123  S    
C18   H15   S    
H43   O42   S    
O35   S3    D    
N19   Ni5   S    
C14   C44   A    
C80   C98   S    
O17   S10   D    
C128  S12   S    
C36   H64   S    
C57   C65   S    
C6    C131  A    
O42   S1    S    
N2    N32   A    
O44   S5    D    
O2    S5    S    
C40   H76   S    
C6    C62   S    
C8    N9    A    
C58   H24   S    
N20   Ni8   S    
C111  O26   S    
C41   H78   S    
O9    S8    D    
C66   H108  S    
N28   Ni5   S    
C75   S6    S    
C42   H80   S    
N30   Ni7   S    
C88   H124  S    
C59   C70   S    
O38   S4    D    
C66   C135  A    
N4    Ni7   S    
C109  O24   S    
C9    C35   A    
C19   H18   S    
O20   S11   D    
C52   H9    S    
O11   S8    S    
C1    N1    A    
C5    C114  A    
H85   O36   S    
C53   C63   S    
N18   Ni6   S    
C60   H100  S    
C81   H135  S    
C42   H81   S    
C27   H37   S    
C85   C91   S    
O7    S7    D    
N10   Ni2   S    
C51   H8    S    
C2    C46   A    
C93   H175  S    
C26   H32   S    
H50   O18   S    
N1    Ni1   S    
C102  H116  S    
C113  N2    A    
C119  H154  S    
C100  H114  S    
C93   N19   A    
C59   H79   S    
C48   C104  A    
N6    Ni1   S    
C85   H107  S    
C68   N30   A    
C103  H130  S    
N24   Ni1   S    
C34   H63   S    
C46   C95   S    
C88   C92   S    
C26   H33   S    
C125  C128  S    
C94   C136  S    
C11   C43   A    
C64   C70   S    
C40   O26   S    
H86   O39   S    
C4    C112  A    
N18   N24   A    
C121  H158  S    
C36   H66   S    
C104  N20   A    
C119  H146  S    
C120  H147  S    
C131  H162  S    
C130  H161  S    
C111  H142  S    
C33   O24   S    
C32   H58   S    
N20   N26   A    
C27   O34   S    
C13   H6    S    
C17   O1    S    
C77   C95   S    
C57   H57   S    
C111  C120  S    
C20   O12   S    
O6    S7    D    
C56   H2    S    
C82   H174  S    
C69   H112  S    
C33   H61   S    
C55   C64   S    
O16   S10   D    
C77   H97   S    
C33   C34   S    
C37   H67   S    
H51   O21   S    
C129  S4    S    
C15   N16   A    
C75   C92   S    
C69   N31   A    
H84   O32   S    
C40   C41   S    
C5    C116  A    
C23   O23   S    
N3    Ni8   S    
C15   C45   A    
O19   S11   D    
C1    C134  A    
C101  S10   S    
C88   C103  S    
N5    Ni2   S    
C54   C58   S    
O41   S1    D    
O37   S4    D    
C20   H20   S    
C10   C43   A    
C114  N3    A    
C133  N8    A    
C107  H127  S    
H48   O11   S    
O33   S3    D    
C69   C136  A    
C79   H102  S    
C70   O1    S    
C23   H29   S    
C20   H21   S    
C117  H143  S    
C22   H27   S    
C56   H46   S    
C71   N27   A    
C23   C25   S    
N5    N6    A    
C27   C28   S    
C2    H5    S    
C70   O12   S    
C122  H159  S    
C30   O22   S    
N17   Ni8   S    
C43   C124  S    
C97   C101  S    
C52   C56   S    
C54   H11   S    
