data_mof_unit_41166.cif
_audit_creation_date              2013-03-05T15:53:04-0500
_audit_creation_method            fapswitch 2.2
_symmetry_space_group_name_H-M    P1
_symmetry_Int_Tables_number       1
_space_group_crystal_system       triclinic
_cell_length_a                    6.956672
_cell_length_b                    20.485593
_cell_length_c                    24.356762
_cell_angle_alpha                 89.734251
_cell_angle_beta                  90.439919
_cell_angle_gamma                 89.488229
_cell_volume                      3470.84070732

loop_
_atom_site_label
_atom_site_type_symbol
_atom_site_description
_atom_site_fract_x
_atom_site_fract_y
_atom_site_fract_z
_atom_type_partial_charge
O1    O     O_R   0.507320 0.423560 0.460500 -0.582336
O2    O     O_R   0.170760 0.556250 0.437010 -0.571872
O3    O     O_R   0.004030 0.576440 0.539500 -0.585022
C1    C     C_R   0.338723 0.576469 0.421179 0.968220
O4    O     O_R   0.177370 0.422820 0.454110 -0.597961
O5    O     O_R   0.010680 0.442050 0.556720 -0.574472
C2    C     C_R   0.346183 0.398647 0.443781 1.024639
O6    O     O_R   0.500680 0.557950 0.443280 -0.573906
O7    O     O_3   0.340380 0.506470 0.533650 -0.271641
V1    V     V_3+5 0.064130 0.498800 0.493760 1.255497
O8    O     O_R   0.681160 0.443750 0.562990 -0.573186
C3    C     C_R   0.850661 0.423622 0.578753 0.971037
O9    O     O_R   0.674560 0.577180 0.545890 -0.595731
C4    C     C_R   0.842586 0.601321 0.556279 1.031069
V2    V     V_3+5 0.564560 0.501200 0.506240 1.258897
O10   O     O_3   0.838180 0.493530 0.466350 -0.272315
C5    C     C_R   0.976917 0.838052 0.911220 -0.116139
C6    C     C_R   0.847105 0.663293 0.587030 -0.281923
C7    C     C_R   0.045230 0.722519 0.906148 -0.051420
C8    C     C_R   0.031335 0.779631 0.936520 -0.151208
C9    C     C_R   0.932875 0.838845 0.854845 -0.197046
C10   C     C_R   0.947170 0.781138 0.822397 0.092991
C11   C     C_R   0.009658 0.722545 0.849036 -0.028562
C12   C     C_R   0.903694 0.779913 0.764595 0.059757
C13   C     C_R   0.924878 0.720457 0.734218 0.020929
C14   C     C_R   0.990493 0.664294 0.762481 -0.290005
C15   C     C_R   0.033932 0.664795 0.818479 0.325527
C16   C     C_R   0.838779 0.836213 0.736122 -0.176091
C17   C     C_R   0.797491 0.834901 0.680335 -0.169632
C18   C     C_R   0.817198 0.777546 0.650268 0.106072
C19   C     C_R   0.880980 0.719246 0.676333 0.165543
C20   C     C_R   0.771378 0.778562 0.594084 -0.257408
C21   C     C_R   0.785657 0.722221 0.561990 0.346889
C22   C     C_R   0.895014 0.662198 0.643305 -0.274125
H1    H     H_    0.937052 0.615448 0.660092 0.129713
H2    H     H_    0.748057 0.879552 0.660500 0.156442
H3    H     H_    0.084699 0.678345 0.928084 0.177471
H4    H     H_    0.064945 0.778341 0.980036 0.134614
H5    H     H_    0.893347 0.885606 0.837635 0.097559
H6    H     H_    0.014769 0.618706 0.741821 0.176371
H7    H     H_    0.816876 0.882604 0.755722 0.136786
C23   C     C_3   0.795060 0.298393 0.764936 -0.149316
C24   C     C_3   0.989320 0.279340 0.793365 -0.233517
H8    H     H_    0.056446 0.304266 0.828950 0.171879
H9    H     H_    0.698881 0.339012 0.777673 0.201070
C25   C     C_1   0.961987 0.121419 0.875166 -0.305557
C26   C     C_1   0.862160 0.377934 0.624294 -0.172951
C27   C     C_3   0.737835 0.224946 0.763211 -0.159277
C28   C     C_3   0.932227 0.206502 0.790678 0.063564
C29   C     C_3   0.836048 0.219157 0.706882 0.388909
C30   C     C_3   0.890052 0.291584 0.707910 -0.089976
C31   C     C_3   0.028763 0.198815 0.733903 -0.344183
C32   C     C_3   0.079484 0.271995 0.736113 0.354972
C33   C     C_1   0.950182 0.159630 0.836984 0.077771
C34   C     C_1   0.873443 0.339203 0.662076 0.237585
H10   H     H_    0.595568 0.204636 0.774054 0.163167
C35   C     C_3   0.512191 0.721542 0.210869 0.254184
C36   C     C_3   0.315819 0.697479 0.231546 -0.216609
H11   H     H_    0.236681 0.654528 0.215836 0.197054
C37   C     C_1   0.348187 0.622152 0.375384 -0.191051
C38   C     C_1   0.476154 0.878273 0.124969 -0.282736
C39   C     C_3   0.581030 0.730883 0.269911 0.283686
C40   C     C_3   0.386788 0.707644 0.291353 0.002408
C41   C     C_3   0.510622 0.802588 0.268810 -0.314280
C42   C     C_3   0.439402 0.792507 0.208963 -0.019942
C43   C     C_3   0.312364 0.779117 0.290361 -0.056079
C44   C     C_3   0.241405 0.769575 0.230111 -0.099165
C45   C     C_1   0.362810 0.660632 0.337447 0.197585
C46   C     C_1   0.462156 0.839833 0.162984 0.131631
H12   H     H_    0.229596 0.803272 0.323440 0.187571
H13   H     H_    0.592071 0.845141 0.284319 0.186334
C47   C     C_R   0.472492 0.161709 0.089069 -0.103393
C48   C     C_R   0.352094 0.336573 0.413196 -0.274029
C49   C     C_R   0.540005 0.276968 0.095371 -0.152034
C50   C     C_R   0.529966 0.220016 0.064630 -0.156978
C51   C     C_R   0.425416 0.160635 0.145147 -0.240432
C52   C     C_R   0.438086 0.218028 0.177908 0.112848
C53   C     C_R   0.496363 0.276450 0.151539 0.161051
C54   C     C_R   0.398413 0.219450 0.235761 0.058936
C55   C     C_R   0.418705 0.279171 0.265979 0.064422
C56   C     C_R   0.476383 0.335561 0.237205 -0.185621
C57   C     C_R   0.513590 0.334062 0.181324 -0.208365
C58   C     C_R   0.339885 0.163151 0.264458 -0.199556
C59   C     C_R   0.303231 0.164643 0.320357 -0.177456
C60   C     C_R   0.322270 0.222134 0.350271 0.115608
C61   C     C_R   0.380430 0.280422 0.323945 0.132451
C62   C     C_R   0.281689 0.221266 0.406591 -0.249714
C63   C     C_R   0.295867 0.277715 0.438519 0.344388
C64   C     C_R   0.395129 0.337502 0.356806 -0.280339
H14   H     H_    0.558147 0.378704 0.161199 0.157573
H15   H     H_    0.434416 0.384070 0.339757 0.123196
H16   H     H_    0.568684 0.221289 0.021632 0.118244
H17   H     H_    0.385057 0.114053 0.161955 0.102551
H18   H     H_    0.238867 0.175972 0.425967 0.179563
O11   O     O_R   0.323550 0.942140 0.056770 -0.590170
O12   O     O_R   0.647080 0.077200 0.045890 -0.592703
O13   O     O_R   0.813610 0.057920 0.943260 -0.589802
C65   C     C_R   0.478265 0.101146 0.056598 0.922800
O14   O     O_R   0.653470 0.943760 0.063000 -0.584835
O15   O     O_R   0.820050 0.923540 0.960490 -0.584772
C66   C     C_R   0.485481 0.923744 0.078985 0.978519
O16   O     O_R   0.317110 0.076520 0.039540 -0.590049
O17   O     O_3   0.483830 0.993580 0.966380 -0.270396
V3    V     V_3+5 0.760140 0.001190 0.006240 1.178251
O18   O     O_R   0.149510 0.922740 0.954070 -0.588899
C67   C     C_R   0.981378 0.898850 0.943391 0.933756
O19   O     O_R   0.143120 0.056170 0.936970 -0.590531
C68   C     C_R   0.973608 0.076194 0.921093 0.979008
V4    V     V_3+5 0.259690 0.998700 0.993700 1.177383
O20   O     O_3   0.986130 0.006420 0.033620 -0.273542
N1    N     N_R   0.108833 0.605952 0.843262 0.238237
O21   O     O_R   0.030489 0.550100 0.831973 -0.354151
O22   O     O_R   0.274869 0.606496 0.868231 -0.375775
H19   H     H_    0.724361 0.823908 0.574942 0.180443
N2    N     N_R   0.264427 0.298844 0.720699 0.234477
O23   O     O_R   0.378710 0.265467 0.689301 -0.358456
O24   O     O_R   0.301867 0.359688 0.730882 -0.393998
H20   H     H_    0.125108 0.158437 0.720717 0.199338
N3    N     N_R   0.751476 0.184763 0.660514 0.272696
O25   O     O_R   0.708469 0.123384 0.665393 -0.363411
O26   O     O_R   0.719987 0.214725 0.614085 -0.293487
N4    N     N_R   0.624251 0.688719 0.168704 0.252049
O27   O     O_R   0.669665 0.627351 0.174462 -0.345145
O28   O     O_R   0.677707 0.720130 0.124978 -0.389997
H21   H     H_    0.099343 0.785845 0.213777 0.166917
N5    N     N_R   0.766087 0.708984 0.291819 0.249483
O29   O     O_R   0.875849 0.749677 0.317849 -0.396605
O30   O     O_R   0.814318 0.647581 0.289794 -0.367889
N6    N     N_R   0.251897 0.274305 0.496245 0.237860
O31   O     O_R   0.339975 0.311352 0.531469 -0.357948
O32   O     O_R   0.136529 0.229688 0.514602 -0.337105
H22   H     H_    0.258425 0.120002 0.340438 0.144866
H23   H     H_    0.585218 0.321529 0.075283 0.136597
N7    N     N_R   0.736384 0.725813 0.504402 0.232034
O33   O     O_R   0.822733 0.688716 0.468861 -0.377521
O34   O     O_R   0.617577 0.770630 0.486458 -0.376442
H24   H     H_    0.495108 0.382130 0.256694 0.144929
H25   H     H_    0.320229 0.116675 0.244882 0.132317

loop_
_geom_bond_atom_site_label_1
_geom_bond_atom_site_label_2
_geom_bond_distance
_ccdc_geom_bond_type
C13   C19   1.440666 A    
V3    O20   1.707457 S    
C62   C63   1.400320 A    
C62   H18   1.084190 S    
N5    O29   1.299527 A    
C4    C6    1.477456 S    
O2    C1    1.303697 A    
C7    C8    1.390169 A    
C47   C51   1.407162 A    
C56   C57   1.387858 A    
C35   C36   1.543752 S    
C35   C39   1.525651 S    
C2    C48   1.477156 S    
C47   C65   1.474820 S    
C52   C53   1.419420 A    
C56   H24   1.076041 S    
C17   H2    1.084476 S    
C14   C15   1.394828 A    
C39   C40   1.531460 S    
C5    C67   1.474978 S    
C26   C34   1.213906 T    
C16   C17   1.387088 A    
C44   H21   1.110360 S    
O5    C3    1.297894 A    
C18   C19   1.416145 A    
C28   C33   1.481660 S    
C49   H23   1.083970 S    
C16   H7    1.075649 S    
O15   V3    1.989344 S    
C5    C8    1.391692 A    
C22   H1    1.076760 S    
C41   H13   1.110063 S    
C39   C41   1.544319 S    
C7    H3    1.081007 S    
C35   N4    1.457376 S    
O13   C68   1.298206 A    
O8    V2    1.975931 S    
C21   N7    1.442753 S    
C24   C32   1.540879 S    
N1    O21   1.301337 A    
C42   C44   1.550311 S    
C25   C68   1.450474 S    
C29   C31   1.542099 S    
O19   C68   1.300495 A    
C36   C44   1.560812 S    
O1    V2    1.987555 S    
C11   C15   1.410170 A    
C64   H15   1.077008 S    
C47   C50   1.395170 A    
O7    V1    2.154078 S    
C1    O6    1.297790 A    
C23   C30   1.549070 S    
N3    O26   1.300361 A    
O14   V3    1.965280 S    
C40   C43   1.548662 S    
C15   N1    1.437425 S    
C9    C10   1.428220 A    
O19   V4    1.975751 S    
C1    C37   1.454941 S    
C63   N6    1.442707 S    
C3    C26   1.449279 S    
C60   C62   1.402711 A    
C19   C22   1.424911 A    
C49   C50   1.391205 A    
C29   N3    1.456932 S    
C59   C60   1.394535 A    
C12   C13   1.435078 A    
O11   V4    1.965585 S    
C39   N5    1.456113 S    
C7    C11   1.411016 A    
C24   C28   1.549050 S    
N7    O34   1.301613 A    
N2    O24   1.300226 A    
C13   C14   1.408695 A    
C65   O16   1.299571 A    
C59   H22   1.084406 S    
C5    C9    1.404577 A    
O12   C65   1.297479 A    
C30   C32   1.530905 S    
C23   H9    1.109922 S    
C41   C43   1.558715 S    
C38   C66   1.455625 S    
C24   H8    1.110026 S    
C48   C63   1.411564 A    
C17   C18   1.393653 A    
C51   H17   1.077004 S    
C8    H4    1.083783 S    
C53   C57   1.393796 A    
C58   C59   1.387538 A    
C9    H5    1.076463 S    
N3    O25   1.300191 A    
C28   C31   1.549996 S    
C25   C33   1.214625 T    
C29   C30   1.534057 S    
C52   C54   1.438330 A    
N1    O22   1.301406 A    
C23   C27   1.560483 S    
C51   C52   1.426995 A    
C6    C22   1.408150 A    
C60   C61   1.416392 A    
O3    C4    1.298828 A    
C50   H16   1.083625 S    
C27   C28   1.547170 S    
O14   C66   1.303658 A    
O6    V2    1.965812 S    
O12   V3    1.994896 S    
C10   C12   1.438094 A    
C23   C24   1.559419 S    
N4    O28   1.300225 A    
O2    V1    1.965249 S    
C31   C32   1.544252 S    
O4    C2    1.297294 A    
N6    O31   1.301430 A    
C38   C46   1.217737 T    
C36   C40   1.550057 S    
C27   H10   1.110287 S    
O18   V4    1.991108 S    
C40   C45   1.487107 S    
N5    O30   1.300218 A    
O1    C2    1.299234 A    
C12   C16   1.411934 A    
C35   C42   1.535521 S    
C55   C56   1.411301 A    
C61   C64   1.424072 A    
O5    V1    1.959940 S    
O8    C3    1.300288 A    
N7    O33   1.301432 A    
O18   C67   1.296901 A    
O15   C67   1.299168 A    
C57   H14   1.084404 S    
O17   V4    1.702579 S    
C41   C42   1.551276 S    
O9    V2    1.991179 S    
C36   H11   1.110068 S    
C48   C64   1.408043 A    
O4    V1    1.994908 S    
O3    V1    1.989318 S    
V1    O10   1.707542 S    
V4    O20   2.148615 S    
C20   C21   1.400199 A    
C18   C20   1.402740 A    
C14   H6    1.075531 S    
N2    O23   1.299591 A    
C43   H12   1.109617 S    
C42   C46   1.488151 S    
V2    O10   2.148580 S    
C27   C29   1.541974 S    
C43   C44   1.558436 S    
C30   C34   1.482280 S    
O7    V2    1.703880 S    
C6    C21   1.411350 A    
O13   V3    1.960107 S    
C54   C55   1.438144 A    
C54   C58   1.410588 A    
C32   N2    1.454964 S    
C55   C61   1.439055 A    
C37   C45   1.217253 T    
C49   C53   1.403633 A    
O17   V3    2.154025 S    
C10   C11   1.424726 A    
O16   V4    1.992145 S    
C20   H19   1.084197 S    
N4    O27   1.300195 A    
O9    C4    1.296879 A    
C58   H25   1.076142 S    
O11   C66   1.298065 A    
N6    O32   1.301638 A    
C31   H20   1.110159 S    
