data_mof_unit_48662.cif
_audit_creation_date              2012-12-11T14:28:34-0500
_audit_creation_method            fapswitch 2.2
_symmetry_space_group_name_H-M    P1
_symmetry_Int_Tables_number       1
_space_group_crystal_system       triclinic
_cell_length_a                    11.055317
_cell_length_b                    19.125127
_cell_length_c                    18.425411
_cell_angle_alpha                 89.66621
_cell_angle_beta                  90.068414
_cell_angle_gamma                 90.361005
_cell_volume                      3895.6185982

loop_
_atom_site_label
_atom_site_type_symbol
_atom_type_description
_atom_site_fract_x
_atom_site_fract_y
_atom_site_fract_z
_atom_type_partial_charge
C1    C     C_R   0.318523 0.968521 0.645279 0.604042
C2    C     C_R   0.318199 0.969280 0.853801 0.599284
C3    C     C_R   0.321712 0.029055 0.352335 0.572747
C4    C     C_R   0.321548 0.030221 0.146836 0.559747
C5    C     C_R   0.818526 0.468519 0.645276 0.600715
C6    C     C_R   0.819955 0.470518 0.852809 0.583087
C7    C     C_R   0.821708 0.529050 0.352330 0.576380
C8    C     C_R   0.819643 0.529969 0.146797 0.574424
C9    C     C_3   0.055962 0.680635 0.483082 -0.091336
C10   C     C_3   0.100206 0.685841 0.019905 -0.069380
C11   C     C_3   0.159318 0.280190 0.533834 -0.115411
C12   C     C_3   0.209874 0.214958 0.949676 -0.155670
C13   C     C_3   0.555954 0.180634 0.483085 -0.091598
C14   C     C_3   0.716251 0.254866 0.050508 -0.141197
C15   C     C_3   0.659319 0.780196 0.533834 -0.115418
C16   C     C_3   0.713738 0.756422 0.952494 -0.131971
C17   C     C_3   0.057482 0.743654 0.432042 0.052362
C18   C     C_3   0.082860 0.747510 0.072051 0.041004
C19   C     C_3   0.031020 0.270064 0.563083 0.050413
C20   C     C_3   0.089870 0.247279 0.925433 0.040853
C21   C     C_3   0.557476 0.243653 0.432045 0.052197
C22   C     C_3   0.584308 0.251383 0.073654 0.046222
C23   C     C_3   0.531023 0.770065 0.563084 0.050581
C24   C     C_3   0.582371 0.752492 0.927435 0.049529
C25   C     C_R   0.335527 0.989041 0.420747 0.029358
C26   C     C_R   0.334071 0.994204 0.076504 0.028253
C27   C     C_R   0.319908 0.000496 0.571792 0.027676
C28   C     C_R   0.317482 0.004572 0.925228 0.026566
C29   C     C_R   0.835508 0.489030 0.420739 0.030083
C30   C     C_R   0.824266 0.494702 0.075488 0.023467
C31   C     C_R   0.819921 0.500489 0.571785 0.028040
C32   C     C_R   0.824807 0.507755 0.923141 0.023346
C33   C     C_R   0.559980 0.996636 0.430945 0.173601
C34   C     C_R   0.558611 0.001741 0.064251 0.214166
C35   C     C_R   0.533216 0.034960 0.577635 0.188290
C36   C     C_R   0.529491 0.040038 0.917400 0.253647
C37   C     C_R   0.059955 0.496596 0.430908 0.174286
C38   C     C_R   0.040369 0.473043 0.070837 0.250947
C39   C     C_R   0.033248 0.534927 0.577598 0.187786
C40   C     C_R   0.041506 0.527190 0.927637 0.252186
C41   C     C_R   0.660956 0.021635 0.471211 0.292157
C42   C     C_R   0.659452 0.025498 0.022918 0.235822
C43   C     C_R   0.648392 0.037738 0.544903 0.280492
C44   C     C_R   0.645312 0.040992 0.948333 0.276288
C45   C     C_R   0.160946 0.521602 0.471155 0.292553
C46   C     C_R   0.147219 0.478603 0.031227 0.227352
C47   C     C_R   0.148409 0.537712 0.544847 0.280846
C48   C     C_R   0.148329 0.519514 0.966679 0.227287
C49   C     C_R   0.432793 0.009902 0.537849 -0.063774
C50   C     C_R   0.429416 0.016847 0.958786 -0.077202
C51   C     C_R   0.443223 0.997544 0.462577 -0.060555
C52   C     C_R   0.440971 0.004540 0.034073 -0.056393
C53   C     C_R   0.932805 0.509874 0.537830 -0.063298
C54   C     C_R   0.933256 0.508521 0.961719 -0.075948
C55   C     C_R   0.943212 0.497514 0.462558 -0.060478
C56   C     C_R   0.932985 0.493610 0.037137 -0.074604
C57   C     C_R   0.213443 0.993397 0.528255 -0.069606
C58   C     C_R   0.210771 0.997558 0.968707 -0.075485
C59   C     C_R   0.226221 0.974244 0.455720 -0.064452
C60   C     C_R   0.223891 0.979941 0.041972 -0.071439
C61   C     C_R   0.713445 0.493406 0.528257 -0.069165
C62   C     C_R   0.716521 0.511270 0.962456 -0.057811
C63   C     C_R   0.726201 0.474251 0.455720 -0.064892
C64   C     C_R   0.716217 0.492538 0.035915 -0.057317
C65   C     C_R   0.094335 0.999659 0.555721 -0.146838
C66   C     C_R   0.091188 0.000190 0.940301 -0.154669
C67   C     C_R   0.125538 0.948944 0.416366 -0.135328
C68   C     C_R   0.123572 0.953717 0.081576 -0.128379
C69   C     C_R   0.594346 0.499677 0.555735 -0.146783
C70   C     C_R   0.606393 0.524724 0.927973 -0.118339
C71   C     C_R   0.625503 0.448958 0.416379 -0.135830
C72   C     C_R   0.606290 0.477019 0.069757 -0.116273
C73   C     C_R   0.994589 0.972440 0.517298 0.339707
C74   C     C_R   0.993386 0.970016 0.978486 0.303072
C75   C     C_R   0.009337 0.950128 0.445891 0.321872
C76   C     C_R   0.008085 0.950787 0.051017 0.325973
C77   C     C_R   0.494590 0.472449 0.517329 0.340073
C78   C     C_R   0.498792 0.505608 0.961079 0.285286
C79   C     C_R   0.509314 0.450135 0.445921 0.321429
C80   C     C_R   0.498655 0.494023 0.036227 0.282461
C81   C     C_R   0.131615 0.756917 0.644916 0.550514
C82   C     C_R   0.183068 0.770598 0.863469 0.556192
C83   C     C_R   0.134710 0.241840 0.356389 0.568354
C84   C     C_R   0.186493 0.227776 0.136663 0.560670
C85   C     C_R   0.631610 0.256916 0.644918 0.549209
C86   C     C_R   0.686116 0.272222 0.863426 0.562500
C87   C     C_R   0.634712 0.741839 0.356390 0.568536
C88   C     C_R   0.684416 0.728699 0.136400 0.562226
C89   C     C_R   0.499333 0.786656 0.636949 0.553611
C90   C     C_R   0.542542 0.769499 0.855043 0.545852
C91   C     C_R   0.539103 0.229968 0.356091 0.539784
C92   C     C_R   0.542913 0.231219 0.145287 0.533157
C93   C     C_R   0.999333 0.286656 0.636949 0.554580
C94   C     C_R   0.046166 0.267737 0.853628 0.545605
C95   C     C_R   0.039107 0.729970 0.356089 0.539694
C96   C     C_R   0.043605 0.730989 0.145253 0.532258
C97   C     C_3   0.172463 0.772370 0.465424 -0.167824
C98   C     C_3   0.202090 0.780845 0.047225 -0.164250
C99   C     C_3   0.017780 0.199677 0.523930 -0.100900
C100  C     C_3   0.018623 0.204358 0.981687 -0.120290
C101  C     C_3   0.672457 0.272369 0.465428 -0.167731
C102  C     C_3   0.552596 0.315091 0.026748 -0.122834
C103  C     C_3   0.517792 0.699676 0.523933 -0.100913
C104  C     C_3   0.558133 0.686435 0.972049 -0.122251
C105  C     C_3   0.173653 0.708917 0.516798 -0.088211
C106  C     C_3   0.219498 0.719849 0.994165 -0.104582
C107  C     C_3   0.146499 0.210270 0.493284 -0.129535
C108  C     C_3   0.139202 0.171963 0.007504 -0.133465
C109  C     C_3   0.673646 0.208915 0.516800 -0.088283
C110  C     C_3   0.686506 0.318630 0.001583 -0.136012
C111  C     C_3   0.646509 0.710275 0.493286 -0.129539
C112  C     C_3   0.691261 0.689559 0.998543 -0.144846
C113  C     C_3   0.094829 0.749599 0.570348 0.052431
C114  C     C_3   0.146270 0.760012 0.937572 0.063578
C115  C     C_3   0.091383 0.250437 0.429238 0.057497
C116  C     C_3   0.153726 0.232691 0.060499 0.058448
C117  C     C_3   0.594824 0.249596 0.570352 0.052665
C118  C     C_3   0.654650 0.267892 0.940211 0.051648
C119  C     C_3   0.591385 0.750438 0.429239 0.057238
C120  C     C_3   0.650126 0.736191 0.060960 0.051538
C121  C     C_3   0.094487 0.812906 0.519725 -0.108522
C122  C     C_3   0.129808 0.820649 0.988598 -0.126264
C123  C     C_3   0.963855 0.239139 0.457953 -0.132941
C124  C     C_3   0.034334 0.264704 0.036137 -0.095674
C125  C     C_3   0.594482 0.312905 0.519729 -0.108376
C126  C     C_3   0.522251 0.264912 0.963838 -0.107372
C127  C     C_3   0.463859 0.739134 0.457956 -0.133063
C128  C     C_3   0.518612 0.732910 0.035887 -0.114959
C129  C     C_3   0.977019 0.784469 0.484751 -0.103330
C130  C     C_3   0.009706 0.786767 0.014325 -0.116666
C131  C     C_3   0.976108 0.309582 0.498784 -0.145684
C132  C     C_3   0.104928 0.307353 0.979633 -0.072996
C133  C     C_3   0.477013 0.284468 0.484755 -0.103514
C134  C     C_3   0.552658 0.201494 0.011792 -0.100318
C135  C     C_3   0.476103 0.809579 0.498785 -0.145889
C136  C     C_3   0.541256 0.799194 0.990066 -0.109840
C137  C     C_3   0.978150 0.721448 0.537313 -0.158841
C138  C     C_3   0.028159 0.725628 0.961763 -0.106879
C139  C     C_3   0.105114 0.320013 0.469067 -0.090246
C140  C     C_3   0.225094 0.275183 0.004647 -0.108233
C141  C     C_3   0.478144 0.221447 0.537317 -0.158864
C142  C     C_3   0.685382 0.205061 0.988072 -0.094925
C143  C     C_3   0.605107 0.820016 0.469065 -0.090391
C144  C     C_3   0.673171 0.802840 0.016075 -0.089874
Cr1   Cr    Cr6+3 0.488160 0.884660 0.750000 1.075607
Cr2   Cr    Cr6+3 0.488160 0.115340 0.250000 1.067236
Cr3   Cr    Cr6+3 0.988160 0.384660 0.750000 1.061221
Cr4   Cr    Cr6+3 0.988160 0.615340 0.250000 1.060306
Cr5   Cr    Cr6+3 0.173480 0.883120 0.750000 0.997382
Cr6   Cr    Cr6+3 0.173480 0.116880 0.250000 1.022600
Cr7   Cr    Cr6+3 0.673480 0.383120 0.750000 1.001061
Cr8   Cr    Cr6+3 0.673480 0.616880 0.250000 1.020457
Cr9   Cr    Cr6+3 0.333410 0.727260 0.750000 1.019978
Cr10  Cr    Cr6+3 0.333410 0.272740 0.250000 1.019571
Cr11  Cr    Cr6+3 0.833410 0.227260 0.750000 1.025967
Cr12  Cr    Cr6+3 0.833410 0.772740 0.250000 1.010764
H1    H     H_    0.256053 0.679128 0.530224 0.198677
H2    H     H_    0.304345 0.693112 0.980274 0.141143
H3    H     H_    0.216555 0.169177 0.488504 0.118585
H4    H     H_    0.153210 0.117452 0.024989 0.144679
H5    H     H_    0.756042 0.179119 0.530224 0.198661
H6    H     H_    0.747309 0.364039 0.993440 0.121704
H7    H     H_    0.716569 0.669185 0.488507 0.118458
H8    H     H_    0.755998 0.645984 0.005104 0.117865
H9    H     H_    0.243596 0.797628 0.432001 0.107526
H10   H     H_    0.270666 0.804728 0.083645 0.118459
H11   H     H_    0.981681 0.150643 0.548386 0.167274
H12   H     H_    0.938321 0.172261 0.969507 0.124732
H13   H     H_    0.743590 0.297629 0.432006 0.108266
H14   H     H_    0.492865 0.357017 0.046090 0.143114
H15   H     H_    0.481701 0.650642 0.548392 0.166792
H16   H     H_    0.502769 0.643086 0.950667 0.140922
H17   H     H_    0.119296 0.863822 0.542331 0.141773
H18   H     H_    0.151692 0.870988 0.964120 0.137389
H19   H     H_    0.891202 0.218627 0.422346 0.131474
H20   H     H_    0.969815 0.289022 0.074006 0.142948
H21   H     H_    0.619290 0.363822 0.542333 0.141973
H22   H     H_    0.446567 0.270077 0.924763 0.135161
H23   H     H_    0.391206 0.718618 0.422351 0.131240
H24   H     H_    0.442575 0.722748 0.073767 0.133309
H25   H     H_    0.894540 0.813596 0.469725 0.192750
H26   H     H_    0.922946 0.813187 0.023780 0.184189
H27   H     H_    0.906104 0.350576 0.503781 0.109624
H28   H     H_    0.086000 0.362405 0.965266 0.143937
H29   H     H_    0.394527 0.313588 0.469732 0.192660
H30   H     H_    0.495107 0.154147 0.017727 0.107881
H31   H     H_    0.406097 0.850571 0.503781 0.109292
H32   H     H_    0.478452 0.844083 0.984844 0.118636
H33   H     H_    0.901041 0.699704 0.568850 0.127881
H34   H     H_    0.961936 0.700976 0.924447 0.147573
H35   H     H_    0.146781 0.367809 0.446186 0.186374
H36   H     H_    0.308045 0.304154 0.018631 0.140495
H37   H     H_    0.401037 0.199702 0.568855 0.128394
H38   H     H_    0.745117 0.162743 0.973696 0.161590
H39   H     H_    0.646757 0.867815 0.446182 0.186249
H40   H     H_    0.718625 0.851249 0.035127 0.202552
H41   H     H_    0.028689 0.629641 0.461746 0.121905
H42   H     H_    0.083853 0.631100 0.036853 0.140259
H43   H     H_    0.238381 0.297342 0.566534 0.150543
H44   H     H_    0.278958 0.193155 0.912655 0.134636
H45   H     H_    0.528669 0.129647 0.461745 0.121931
H46   H     H_    0.789060 0.247968 0.091007 0.124071
H47   H     H_    0.738381 0.797353 0.566531 0.150455
H48   H     H_    0.789520 0.767755 0.914835 0.135186
H49   H     H_    0.137799 0.929158 0.361844 0.112667
H50   H     H_    0.136102 0.933870 0.136296 0.118469
H51   H     H_    0.077960 0.022473 0.608361 0.143360
H52   H     H_    0.073665 0.021650 0.886888 0.146380
H53   H     H_    0.637745 0.429171 0.361857 0.115047
H54   H     H_    0.603241 0.455345 0.124217 0.128135
H55   H     H_    0.577989 0.522497 0.608375 0.141113
H56   H     H_    0.603466 0.545356 0.873087 0.131910
O1    O     O_R   0.575450 0.828820 0.667950 -0.511506
O2    O     O_R   0.575450 0.828820 0.832050 -0.502071
O3    O     O_R   0.575450 0.171180 0.332050 -0.519533
O4    O     O_R   0.575450 0.171180 0.167950 -0.512477
O5    O     O_R   0.075450 0.328820 0.667950 -0.511270
O6    O     O_R   0.075450 0.328820 0.832050 -0.516937
O7    O     O_R   0.075450 0.671180 0.332050 -0.518862
O8    O     O_R   0.075450 0.671180 0.167950 -0.518247
O9    O     O_R   0.416860 0.942890 0.674680 -0.451297
O10   O     O_R   0.416860 0.942890 0.825320 -0.447517
O11   O     O_R   0.416860 0.057110 0.325320 -0.440335
O12   O     O_R   0.416860 0.057110 0.174680 -0.439322
O13   O     O_R   0.916860 0.442890 0.674680 -0.452917
O14   O     O_R   0.916860 0.442890 0.825320 -0.459681
O15   O     O_R   0.916860 0.557110 0.325320 -0.441056
O16   O     O_R   0.916860 0.557110 0.174680 -0.459813
O17   O     O_R   0.213790 0.953680 0.668330 -0.550334
O18   O     O_R   0.213790 0.953680 0.831670 -0.553946
O19   O     O_R   0.213790 0.046320 0.331670 -0.528940
O20   O     O_R   0.213790 0.046320 0.168330 -0.546686
O21   O     O_R   0.713790 0.453680 0.668330 -0.552859
O22   O     O_R   0.713790 0.453680 0.831670 -0.544799
O23   O     O_R   0.713790 0.546320 0.331670 -0.529273
O24   O     O_R   0.713790 0.546320 0.168330 -0.549145
O25   O     O_R   0.121360 0.817890 0.672660 -0.507328
O26   O     O_R   0.121360 0.817890 0.827340 -0.503041
O27   O     O_R   0.121360 0.182110 0.327340 -0.496549
O28   O     O_R   0.121360 0.182110 0.172660 -0.501184
O29   O     O_R   0.621360 0.317890 0.672660 -0.507963
O30   O     O_R   0.621360 0.317890 0.827340 -0.494875
O31   O     O_R   0.621360 0.682110 0.327340 -0.496989
O32   O     O_R   0.621360 0.682110 0.172660 -0.497105
O33   O     O_R   0.206850 0.711370 0.665820 -0.531250
O34   O     O_R   0.206850 0.711370 0.834180 -0.486136
O35   O     O_R   0.206850 0.288630 0.334180 -0.511956
O36   O     O_R   0.206850 0.288630 0.165820 -0.484031
O37   O     O_R   0.706850 0.211370 0.665820 -0.531026
O38   O     O_R   0.706850 0.211370 0.834180 -0.497027
O39   O     O_R   0.706850 0.788630 0.334180 -0.509906
O40   O     O_R   0.706850 0.788630 0.165820 -0.505158
O41   O     O_R   0.457710 0.733190 0.672630 -0.506642
O42   O     O_R   0.457710 0.733190 0.827370 -0.524893
O43   O     O_R   0.457710 0.266810 0.327370 -0.520010
O44   O     O_R   0.457710 0.266810 0.172630 -0.532065
O45   O     O_R   0.957710 0.233190 0.672630 -0.504578
O46   O     O_R   0.957710 0.233190 0.827370 -0.518069
O47   O     O_R   0.957710 0.766810 0.327370 -0.521069
O48   O     O_R   0.957710 0.766810 0.172630 -0.532296
O49   O     O_3   0.331690 0.831680 0.750000 -0.320067
O50   O     O_3   0.331690 0.168320 0.250000 -0.304356
O51   O     O_3   0.831690 0.331680 0.750000 -0.317879
O52   O     O_3   0.831690 0.668320 0.250000 -0.298742
O53   O     O_3   0.887100 0.957290 0.551605 -0.619139
H57   H     H_    0.898554 0.963020 0.604655 0.314185
O54   O     O_3   0.888680 0.949671 0.943646 -0.649766
H58   H     H_    0.899740 0.956153 0.890599 0.326428
O55   O     O_3   0.910094 0.926513 0.407452 -0.666218
H59   H     H_    0.936017 0.912865 0.358046 0.308918
O56   O     O_3   0.910234 0.924871 0.089341 -0.671860
H60   H     H_    0.935897 0.913711 0.139652 0.309121
O57   O     O_3   0.387125 0.457286 0.551655 -0.619314
H61   H     H_    0.398595 0.463030 0.604702 0.312719
O58   O     O_3   0.401044 0.487023 0.919135 -0.681166
H62   H     H_    0.419576 0.495127 0.867058 0.326036
O59   O     O_3   0.410061 0.426505 0.407503 -0.666582
H63   H     H_    0.435968 0.412846 0.358098 0.309621
O60   O     O_3   0.399447 0.509342 0.077828 -0.684930
H64   H     H_    0.417944 0.501662 0.129985 0.326327
O61   O     O_3   0.769534 0.038389 0.438542 -0.608880
H65   H     H_    0.754697 0.049230 0.386665 0.323682
O62   O     O_3   0.770175 0.038199 0.054955 -0.679415
H66   H     H_    0.757861 0.047171 0.107333 0.340382
O63   O     O_3   0.748481 0.062011 0.581974 -0.673644
H67   H     H_    0.739109 0.050346 0.634135 0.325238
O64   O     O_3   0.741709 0.059339 0.904170 -0.712615
H68   H     H_    0.815779 0.065789 0.933439 0.366789
O65   O     O_3   0.269507 0.538360 0.438469 -0.608972
H69   H     H_    0.254650 0.549180 0.386589 0.323311
O66   O     O_3   0.235972 0.431062 0.046887 -0.679087
H70   H     H_    0.281930 0.422713 0.001894 0.375974
O67   O     O_3   0.248505 0.562006 0.581895 -0.674314
H71   H     H_    0.239144 0.550374 0.634065 0.322406
O68   O     O_3   0.239989 0.565649 0.950777 -0.678214
H72   H     H_    0.284690 0.574864 0.996127 0.374041
O69   O     O_3   0.573461 0.967936 0.362643 -0.677852
H73   H     H_    0.659389 0.956054 0.354494 0.342882
O70   O     O_3   0.573853 0.969797 0.131151 -0.668662
H74   H     H_    0.657883 0.952526 0.135283 0.351164
O71   O     O_3   0.512623 0.064543 0.644860 -0.687950
H75   H     H_    0.572243 0.102286 0.653444 0.344803
O72   O     O_3   0.508780 0.066882 0.848393 -0.665767
H76   H     H_    0.585072 0.083291 0.825888 0.387164
O73   O     O_3   0.073402 0.467883 0.362608 -0.680927
H77   H     H_    0.159325 0.455998 0.354447 0.340942
O74   O     O_3   0.035767 0.438877 0.137200 -0.662507
H78   H     H_    0.119068 0.433178 0.156183 0.379937
O75   O     O_3   0.012690 0.564519 0.644819 -0.690147
H79   H     H_    0.072242 0.602312 0.653341 0.346031
O76   O     O_3   0.038445 0.561407 0.861262 -0.660001
H80   H     H_    0.121791 0.565553 0.841878 0.376648

loop_
_geom_bond_atom_site_label_1
_geom_bond_atom_site_label_2
_ccdc_geom_bond_type
C6    C32   S    
C7    C29   S    
C119  C143  S    
C11   C107  S    
O66   H70   S    
C120  C144  S    
C110  C118  S    
C138  H34   S    
O71   H75   S    
Cr5   O18   S    
C4    O20   A    
C89   O1    A    
C16   C144  S    
Cr8   O32   S    
C57   C59   A    
Cr1   O9    S    
C58   C60   A    
O56   H60   S    
Cr6   O20   S    
C62   C70   A    
C1    O9    A    
C61   C63   A    
C91   O3    A    
C121  H17   S    
C49   C51   A    
C34   C42   A    
C50   C52   A    
C23   C89   S    
C128  H24   S    
C67   H49   S    
C88   O40   A    
C97   C105  S    
C41   C43   A    
C42   C44   A    
C20   C132  S    
C21   C133  S    
Cr3   O14   S    
C99   H11   S    
Cr10  O43   S    
C45   C47   A    
C112  H8    S    
C46   C48   A    
C115  C123  S    
C77   O57   S    
C27   C57   A    
C57   C65   A    
C112  C120  S    
Cr11  O46   S    
C19   C99   S    
C29   C55   A    
C96   O8    A    
Cr7   O22   S    
C30   C56   A    
C100  C124  S    
Cr3   O5    S    
C15   C111  S    
C91   O43   A    
O72   H76   S    
C104  C128  S    
C86   O30   A    
Cr9   O34   S    
C12   C20   S    
C120  C128  S    
C142  H38   S    
C13   C21   S    
C85   C117  S    
C93   O45   A    
C63   C71   A    
C113  C137  S    
C36   C44   A    
C33   C51   A    
C37   C45   A    
C130  C138  S    
C90   O2    A    
C36   C50   A    
C39   C47   A    
C40   C48   A    
C20   C94   S    
C34   C52   A    
C24   C90   S    
C15   H47   S    
Cr8   O24   S    
C28   C58   A    
C98   C106  S    
C33   C41   A    
C4    O12   A    
C7    O15   A    
C10   C18   S    
C5    O13   A    
C126  H22   S    
C46   O66   S    
Cr4   O7    S    
C2    C28   S    
C32   C62   A    
Cr1   O2    S    
C129  C137  S    
C126  C134  S    
Cr6   O27   S    
C83   O35   A    
C45   O65   S    
C10   C138  S    
C16   H48   S    
Cr7   O21   S    
C102  H14   S    
C14   C142  S    
C85   O37   A    
C37   O73   S    
C134  H30   S    
C69   C77   A    
Cr4   O16   S    
C71   C79   A    
C42   O62   S    
C8    O16   A    
Cr12  O39   S    
C87   O39   A    
C74   C76   A    
C110  H6    S    
C105  C113  S    
C78   C80   A    
C9    C105  S    
C66   C74   A    
C76   O56   S    
C124  C132  S    
C93   O5    A    
C97   C121  S    
C59   C67   A    
Cr12  O52   S    
C87   O31   A    
C71   H53   S    
C35   C49   A    
C80   O60   S    
C62   C64   A    
Cr2   O50   S    
C35   C43   A    
C133  H29   S    
C24   C136  S    
C135  C143  S    
C90   O42   A    
C84   C116  S    
O59   H63   S    
C136  H32   S    
C103  H15   S    
C39   O75   S    
C9    C137  S    
C135  H31   S    
C9    H41   S    
C23   C103  S    
C100  C108  S    
C82   O34   A    
C83   C115  S    
C103  C127  S    
C3    O19   A    
C104  C112  S    
C122  H18   S    
C87   C119  S    
O67   H71   S    
Cr7   O29   S    
Cr2   O12   S    
C74   O54   S    
C95   O7    A    
O65   H69   S    
C12   H44   S    
C141  H37   S    
Cr4   O52   S    
C98   H10   S    
C69   H55   S    
C40   C54   A    
Cr1   O49   S    
C15   C143  S    
C10   C106  S    
C67   C75   A    
C36   O72   S    
C14   C110  S    
C44   O64   S    
C3    O11   A    
Cr9   O41   S    
C102  C126  S    
C123  H19   S    
O54   H58   S    
C144  H40   S    
C68   C76   A    
C84   O36   A    
C127  H23   S    
C14   C22   S    
Cr11  O51   S    
C72   C80   A    
C68   H50   S    
C94   O46   A    
C14   H46   S    
C81   O25   A    
C114  C138  S    
C47   O67   S    
C38   C46   A    
C131  C139  S    
C2    O18   A    
C37   C55   A    
C38   C56   A    
Cr10  O35   S    
O62   H66   S    
C22   C92   S    
C25   C59   A    
C26   C60   A    
C33   O69   S    
C27   C49   A    
C119  C127  S    
C29   C63   A    
C30   C64   A    
C73   C75   A    
C31   C61   A    
O58   H62   S    
O76   H80   S    
Cr3   O13   S    
C109  C117  S    
Cr10  O44   S    
C11   C19   S    
C127  C135  S    
C139  H35   S    
C128  C136  S    
Cr11  O45   S    
C101  C109  S    
C35   O71   S    
C2    O10   A    
C70   H56   S    
C103  C111  S    
Cr5   O49   S    
C11   C139  S    
C116  C140  S    
C131  H27   S    
C105  H1    S    
Cr9   O33   S    
O60   H64   S    
C12   C140  S    
C101  H13   S    
C17   C95   S    
C13   C141  S    
C88   C120  S    
Cr2   O3    S    
C19   C93   S    
Cr7   O51   S    
C104  H16   S    
Cr12  O47   S    
Cr8   O52   S    
C77   C79   A    
O55   H59   S    
C32   C54   A    
Cr11  O37   S    
C7    O23   A    
O74   H78   S    
C3    C25   S    
Cr8   O31   S    
O68   H72   S    
Cr1   O10   S    
Cr6   O19   S    
C117  C141  S    
O70   H74   S    
O63   H67   S    
Cr10  O50   S    
C134  C142  S    
C66   H52   S    
O64   H68   S    
C20   C100  S    
C96   O48   A    
C143  H39   S    
C85   O29   A    
Cr5   O26   S    
C86   C118  S    
Cr4   O8    S    
C73   O53   S    
Cr6   O50   S    
C65   H51   S    
C8    O24   A    
C22   C134  S    
Cr6   O28   S    
C102  C110  S    
C16   C112  S    
C12   C108  S    
C21   C91   S    
C116  C124  S    
C123  C131  S    
C121  C129  S    
C88   O32   A    
C4    C26   S    
Cr12  O40   S    
C132  C140  S    
C99   C107  S    
C133  C141  S    
C23   C135  S    
C8    C30   S    
C108  C116  S    
Cr5   O17   S    
C136  C144  S    
Cr3   O6    S    
C132  H28   S    
C39   C53   A    
C97   H9    S    
C6    O14   A    
C92   O4    A    
C11   H43   S    
C60   C68   A    
O73   H77   S    
C81   C113  S    
Cr5   O25   S    
C124  H20   S    
C86   O38   A    
Cr9   O42   S    
C70   C78   A    
C18   C96   S    
O69   H73   S    
C40   O76   S    
Cr8   O23   S    
O75   H79   S    
C95   O47   A    
C106  C114  S    
C111  C119  S    
C41   O61   S    
C94   O6    A    
C65   C73   A    
C5    C31   S    
C28   C50   A    
C58   C66   A    
C72   H54   S    
C34   O70   S    
C13   C109  S    
O53   H57   S    
C21   C101  S    
C15   C23   S    
C16   C24   S    
C89   O41   A    
C84   O28   A    
Cr4   O15   S    
C78   O58   S    
C10   H42   S    
Cr11  O38   S    
C53   C55   A    
C19   C131  S    
C83   O27   A    
C17   C129  S    
C81   O33   A    
C111  H7    S    
C82   C114  S    
C130  H26   S    
C75   O55   S    
O61   H65   S    
C106  H2    S    
C24   C104  S    
C25   C51   A    
C26   C52   A    
C101  C125  S    
C79   O59   S    
C125  C133  S    
O57   H61   S    
C113  C121  S    
C31   C53   A    
C107  C115  S    
C48   O68   S    
C137  H33   S    
C9    C17   S    
Cr10  O36   S    
C125  H21   S    
C140  H36   S    
Cr1   O1    S    
C92   O44   A    
Cr9   O49   S    
C99   C123  S    
C61   C69   A    
C129  H25   S    
C115  C139  S    
C118  C142  S    
C107  H3    S    
C54   C56   A    
C108  H4    S    
C118  C126  S    
C22   C102  S    
C100  H12   S    
C109  H5    S    
Cr7   O30   S    
Cr2   O11   S    
C17   C97   S    
C82   O26   A    
C13   H45   S    
C64   C72   A    
C6    O22   A    
C18   C130  S    
C114  C122  S    
C1    O17   A    
C98   C122  S    
C1    C27   S    
C5    O21   A    
C38   O74   S    
C18   C98   S    
C43   O63   S    
C117  C125  S    
Cr3   O51   S    
C122  C130  S    
Cr2   O4    S    
Cr12  O48   S    
