data_mof_unit_47682.cif
_audit_creation_date              2012-12-11T15:27:38-0500
_audit_creation_method            fapswitch 2.2
_symmetry_space_group_name_H-M    P1
_symmetry_Int_Tables_number       1
_space_group_crystal_system       triclinic
_cell_length_a                    23.23825
_cell_length_b                    7.300282
_cell_length_c                    15.127369
_cell_angle_alpha                 90.035823
_cell_angle_beta                  108.185764
_cell_angle_gamma                 89.951018
_cell_volume                      2438.10586343

loop_
_atom_site_label
_atom_site_type_symbol
_atom_type_description
_atom_site_fract_x
_atom_site_fract_y
_atom_site_fract_z
_atom_type_partial_charge
O1    O     O_R   0.711000 0.648610 0.341170 -0.533032
O2    O     O_R   0.289000 0.351390 0.658830 -0.533034
O3    O     O_R   0.789000 0.148610 0.158830 -0.533078
O4    O     O_R   0.211000 0.851390 0.841170 -0.533079
O5    O     O_R   0.829650 0.322030 0.336650 -0.536580
O6    O     O_R   0.170350 0.677970 0.663350 -0.536579
O7    O     O_R   0.670350 0.822030 0.163350 -0.536224
O8    O     O_R   0.329650 0.177970 0.836650 -0.536223
C1    C     C_R   0.854296 0.485763 0.356740 0.726896
C2    C     C_R   0.145704 0.514237 0.643260 0.726894
C3    C     C_R   0.645705 0.985823 0.143259 0.726307
C4    C     C_R   0.354295 0.014177 0.856742 0.726304
O9    O     O_R   0.713950 0.319280 0.352070 -0.538751
O10   O     O_R   0.286050 0.680720 0.647930 -0.538753
O11   O     O_R   0.786050 0.819280 0.147930 -0.538426
O12   O     O_R   0.213950 0.180720 0.852070 -0.538426
O13   O     O_R   0.672470 0.142870 0.174360 -0.534678
O14   O     O_R   0.327530 0.857130 0.825640 -0.534678
O15   O     O_R   0.827530 0.642870 0.325640 -0.534460
O16   O     O_R   0.172470 0.357130 0.674360 -0.534460
C5    C     C_R   0.701893 0.487376 0.376063 0.682967
C6    C     C_R   0.298108 0.512624 0.623939 0.682972
C7    C     C_R   0.798122 0.987197 0.123927 0.682901
C8    C     C_R   0.201877 0.012803 0.876073 0.682901
O17   O     O_3   0.736530 0.478650 0.191680 -0.379509
O18   O     O_3   0.263470 0.521350 0.808320 -0.379509
O19   O     O_3   0.763470 0.978650 0.308320 -0.379712
O20   O     O_3   0.236530 0.021350 0.691680 -0.379712
V1    V     V_3+5 0.752500 0.206170 0.260820 1.453165
V2    V     V_3+5 0.247500 0.793830 0.739180 1.453157
V3    V     V_3+5 0.747500 0.706170 0.239180 1.454350
V4    V     V_3+5 0.252500 0.293830 0.760820 1.454346
C9    C     C_R   0.827292 0.992173 0.051453 -0.030659
C10   C     C_R   0.172707 0.007828 0.948545 -0.030664
C11   C     C_R   0.672636 0.493285 0.448379 -0.029777
C12   C     C_R   0.327368 0.506715 0.551627 -0.029780
C13   C     C_R   0.823950 0.924513 0.894019 -0.153527
C14   C     C_R   0.176046 0.075539 0.105972 -0.153528
C15   C     C_R   0.676593 0.437382 0.607092 -0.153551
C16   C     C_R   0.323416 0.562664 0.392919 -0.153558
C17   C     C_R   0.794075 0.951336 0.959625 -0.172408
C18   C     C_R   0.205921 0.048700 0.040370 -0.172405
C19   C     C_R   0.706228 0.460598 0.540931 -0.173282
C20   C     C_R   0.293778 0.539420 0.459075 -0.173280
C21   C     C_R   0.889976 0.015410 0.076506 -0.182889
C22   C     C_R   0.110023 0.984577 0.923492 -0.182897
C23   C     C_R   0.609775 0.511935 0.422924 -0.183917
C24   C     C_R   0.390228 0.488070 0.577086 -0.183924
C25   C     C_R   0.920947 0.002897 0.009776 0.076109
C26   C     C_R   0.079051 0.997110 0.990218 0.076110
C27   C     C_R   0.578962 0.503765 0.489938 0.076114
C28   C     C_R   0.421044 0.496262 0.510076 0.076116
C29   C     C_R   0.887217 0.942070 0.919486 0.128354
C30   C     C_R   0.112778 0.057964 0.080505 0.128357
C31   C     C_R   0.613197 0.451015 0.581401 0.128374
C32   C     C_R   0.386811 0.549035 0.418614 0.128377
C33   C     C_R   0.984887 0.032163 0.031898 0.003670
C34   C     C_R   0.015110 0.967848 0.968094 0.003671
C35   C     C_R   0.514845 0.529911 0.467381 0.003345
C36   C     C_R   0.485162 0.470130 0.532637 0.003344
C37   C     C_R   0.980023 0.876088 0.885405 -0.045482
C38   C     C_R   0.019971 0.123938 0.114583 -0.045486
C39   C     C_R   0.520950 0.385731 0.617147 -0.045276
C40   C     C_R   0.479060 0.614335 0.382877 -0.045283
C41   C     C_R   0.917079 0.880461 0.858613 -0.227716
C42   C     C_R   0.082915 0.119587 0.141373 -0.227720
C43   C     C_R   0.583850 0.393603 0.643651 -0.228058
C44   C     C_R   0.416161 0.606482 0.356374 -0.228058
H1    H     H_    0.891128 0.818148 0.793084 0.126305
H2    H     H_    0.108864 0.181925 0.206896 0.126306
H3    H     H_    0.610290 0.337229 0.710431 0.126492
H4    H     H_    0.389724 0.662899 0.289603 0.126494
H5    H     H_    0.086012 0.973921 0.850143 0.118453
H6    H     H_    0.913990 0.026050 0.149853 0.118449
H7    H     H_    0.414325 0.483576 0.650574 0.118415
H8    H     H_    0.585675 0.516427 0.349438 0.118411
H9    H     H_    0.254426 0.069833 0.059907 0.107797
H10   H     H_    0.745569 0.930222 0.940087 0.107795
H11   H     H_    0.245087 0.556674 0.439160 0.107231
H12   H     H_    0.754920 0.443346 0.560846 0.107231
H13   H     H_    0.797921 0.881139 0.824493 0.117209
H14   H     H_    0.202071 0.118947 0.175492 0.117209
H15   H     H_    0.702986 0.400331 0.677463 0.117172
H16   H     H_    0.297025 0.599744 0.322552 0.117174
C45   C     C_1   0.416790 0.006917 0.918692 -0.162941
C46   C     C_1   0.583210 0.993083 0.081308 -0.162943
C47   C     C_1   0.083209 0.507054 0.581308 -0.163839
C48   C     C_1   0.916791 0.492946 0.418692 -0.163840
C49   C     C_1   0.469152 0.002375 0.969935 0.027129
C50   C     C_1   0.530848 0.997625 0.030065 0.027126
C51   C     C_1   0.030847 0.502441 0.530065 0.025127
C52   C     C_1   0.969153 0.497560 0.469935 0.025124
C53   C     C_1   0.005606 0.753355 0.832433 0.295209
N1    N     N_1   0.025740 0.654300 0.789984 -0.362957
C54   C     C_1   0.994384 0.246669 0.167549 0.295213
N2    N     N_1   0.974245 0.345723 0.209993 -0.362956
C55   C     C_1   0.496312 0.266740 0.672805 0.295029
N3    N     N_1   0.476951 0.170684 0.717430 -0.363365
C56   C     C_1   0.503703 0.733335 0.327228 0.295031
N4    N     N_1   0.523067 0.829399 0.282608 -0.363361

loop_
_geom_bond_atom_site_label_1
_geom_bond_atom_site_label_2
_ccdc_geom_bond_type
O17   V3    S    
C25   C29   A    
O1    C5    A    
C53   N1    T    
C47   C51   T    
O19   V1    S    
C9    C21   A    
C16   H16   S    
O3    C7    A    
C54   N2    T    
C10   C18   A    
O15   V3    S    
C55   N3    T    
C25   C33   A    
C33   C38   A    
O7    C3    A    
C35   C40   A    
C26   C30   A    
C4    C45   S    
C36   C39   A    
C40   C44   A    
O9    V1    S    
C23   H8    S    
C14   C18   A    
C1    C48   S    
O4    C8    A    
C37   C53   S    
C3    C46   S    
O1    V3    S    
O13   V1    S    
O2    V4    S    
O3    V1    S    
C28   C36   A    
C1    O15   A    
C40   C56   S    
C15   C31   A    
C48   C52   T    
C2    O16   A    
C7    C9    S    
O2    C6    A    
C10   C22   A    
C11   C19   A    
C16   C20   A    
C43   H3    S    
C44   H4    S    
C13   C29   A    
C34   C37   A    
O11   C7    A    
C11   C23   A    
C35   C36   A    
O12   C8    A    
C38   C54   S    
C14   H14   S    
C24   H7    S    
C13   H13   S    
O10   V2    S    
O5    V1    S    
C39   C43   A    
C2    C47   S    
O7    V3    S    
C38   C42   A    
O8    V4    S    
C46   C50   T    
C17   H10   S    
C45   C49   T    
O18   V4    S    
C23   C27   A    
C16   C32   A    
C19   H12   S    
C32   C44   A    
C8    C10   S    
C21   H6    S    
C26   C34   A    
O5    C1    A    
C31   C43   A    
C56   N4    T    
C14   C30   A    
C21   C25   A    
O8    C4    A    
O9    C5    A    
O14   V2    S    
O6    V2    S    
C12   C20   A    
C27   C35   A    
C51   C52   S    
C29   C41   A    
O16   V4    S    
C3    O13   A    
C20   H11   S    
O6    C2    A    
C15   C19   A    
O11   V3    S    
C30   C42   A    
O12   V4    S    
C6    C12   S    
C22   C26   A    
C9    C17   A    
O10   C6    A    
O20   V2    S    
C5    C11   S    
C15   H15   S    
C39   C55   S    
C33   C34   A    
C42   H2    S    
C41   H1    S    
C12   C24   A    
C27   C31   A    
C13   C17   A    
C37   C41   A    
C24   C28   A    
C18   H9    S    
C4    O14   A    
C49   C50   S    
C22   H5    S    
O4    V2    S    
C28   C32   A    
