data_mof_unit_40439.cif
_audit_creation_date              2012-12-10T17:58:21-0500
_audit_creation_method            fapswitch 2.2
_symmetry_space_group_name_H-M    P1
_symmetry_Int_Tables_number       1
_space_group_crystal_system       triclinic
_cell_length_a                    9.558385
_cell_length_b                    10.829093
_cell_length_c                    15.421207
_cell_angle_alpha                 89.125257
_cell_angle_beta                  74.476416
_cell_angle_gamma                 89.675288
_cell_volume                      1537.81704345

loop_
_atom_site_label
_atom_site_type_symbol
_atom_type_description
_atom_site_fract_x
_atom_site_fract_y
_atom_site_fract_z
_atom_type_partial_charge
C1    C     C_R   0.000168 0.262192 0.500054 0.794926
C2    C     C_R   0.127568 0.063200 0.499283 -0.156910
C3    C     C_R   0.999745 0.871719 0.499981 -0.023042
C4    C     C_R   0.000255 0.128281 0.500019 -0.023042
C5    C     C_R   0.552230 0.420160 0.554049 -0.024978
C6    C     C_R   0.447769 0.579839 0.445951 -0.024977
C7    C     C_R   0.403476 0.420596 0.554835 0.095384
C8    C     C_R   0.596524 0.579404 0.445165 0.095383
C9    C     C_R   0.918524 0.504728 0.672190 0.803013
C10   C     C_R   0.081476 0.495272 0.327810 0.803013
C11   C     C_R   0.874003 0.520301 0.770606 -0.097919
C12   C     C_R   0.999832 0.737807 0.499945 0.794926
C13   C     C_R   0.125997 0.479699 0.229394 -0.097920
C14   C     C_R   0.910801 0.592246 0.911020 -0.235264
C15   C     C_R   0.089199 0.407754 0.088980 -0.235264
C16   C     C_R   0.960302 0.582045 0.817556 -0.035727
C17   C     C_R   0.039697 0.417955 0.182444 -0.035727
C18   C     C_R   0.734678 0.481489 0.817394 -0.228587
C19   C     C_R   0.265322 0.518511 0.182606 -0.228587
C20   C     C_R   0.673634 0.513021 0.907686 0.088165
C21   C     C_R   0.326366 0.486979 0.092314 0.088165
C22   C     C_R   0.769116 0.555989 0.956363 0.130476
C23   C     C_R   0.584812 0.519336 0.095556 -0.034937
C24   C     C_R   0.230884 0.444011 0.043637 0.130476
C25   C     C_R   0.522907 0.497415 0.951973 0.005752
C26   C     C_R   0.477093 0.502585 0.048026 0.005751
C27   C     C_1   0.906354 0.356681 0.228618 0.266401
C28   C     C_1   0.093646 0.643319 0.771382 0.266401
C29   C     C_1   0.563440 0.482994 0.188601 0.234095
C30   C     C_1   0.436560 0.517006 0.811399 0.234095
C31   C     C_1   0.306822 0.337648 0.616054 0.276281
C32   C     C_1   0.693178 0.662352 0.383946 0.276281
C33   C     C_R   0.415188 0.480663 0.904444 -0.034937
C34   C     C_R   0.724678 0.556379 0.049833 -0.251030
C35   C     C_R   0.275322 0.443621 0.950167 -0.251030
C36   C     C_R   0.872684 0.064549 0.500711 -0.173089
C37   C     C_R   0.127316 0.935451 0.499289 -0.173089
C38   C     C_R   0.872431 0.936800 0.500717 -0.156910
Cu1   Cu    Cu3+1 0.140660 0.500020 0.500000 0.981624
Cu2   Cu    Cu3+1 0.859340 0.499980 0.500000 0.981624
H1    H     H_    0.802811 0.576716 0.087417 0.156258
H2    H     H_    0.227290 0.110671 0.498643 0.160400
H3    H     H_    0.590813 0.356897 0.597641 0.124801
H4    H     H_    0.409187 0.643103 0.402359 0.124801
H5    H     H_    0.197189 0.423284 0.912583 0.156258
H6    H     H_    0.324027 0.575558 0.217602 0.156713
H7    H     H_    0.675973 0.424442 0.782398 0.156713
H8    H     H_    0.980911 0.632127 0.948078 0.148386
H9    H     H_    0.019089 0.367873 0.051922 0.148385
H10   H     H_    0.773034 0.113096 0.501300 0.157484
H11   H     H_    0.226965 0.886904 0.498700 0.157484
H12   H     H_    0.772710 0.889329 0.501357 0.160400
N1    N     N_R   0.352080 0.500030 0.499980 -0.182749
N2    N     N_R   0.647920 0.499970 0.500020 -0.182749
N3    N     N_1   0.800791 0.305885 0.266000 -0.251323
N4    N     N_1   0.199209 0.694115 0.733999 -0.251323
N5    N     N_1   0.545492 0.452946 0.263035 -0.269431
N6    N     N_1   0.454508 0.547054 0.736965 -0.269431
N7    N     N_1   0.229726 0.270813 0.665682 -0.300578
N8    N     N_1   0.770273 0.729187 0.334318 -0.300578
O1    O     O_R   0.118740 0.319660 0.500000 -0.581969
O2    O     O_R   0.881260 0.680340 0.500000 -0.581969
O3    O     O_R   0.881170 0.319630 0.500010 -0.591406
O4    O     O_R   0.118830 0.680370 0.499990 -0.591406
O5    O     O_R   0.055570 0.500030 0.629830 -0.566583
O6    O     O_R   0.944430 0.499970 0.370170 -0.566583
O7    O     O_R   0.818000 0.500000 0.629840 -0.574635
O8    O     O_R   0.182000 0.500000 0.370160 -0.574635

loop_
_geom_bond_atom_site_label_1
_geom_bond_atom_site_label_2
_ccdc_geom_bond_type
C16   C28   S    
C2    C4    A    
C21   C26   A    
C9    O7    A    
C11   C18   A    
C10   O8    A    
Cu1   O5    S    
C11   C16   A    
C27   N3    T    
C18   C20   A    
C12   O2    A    
C8    C32   S    
C13   C17   A    
C23   C34   A    
C18   H7    S    
C14   C22   A    
C9    O5    A    
C36   C38   A    
C24   C35   A    
C28   N4    T    
C19   H6    S    
C36   H10   S    
C6    H4    S    
C15   H9    S    
Cu1   O4    S    
C9    C11   S    
C2    C37   A    
Cu1   N1    S    
C34   H1    S    
C2    H2    S    
C37   H11   S    
C23   C29   S    
C38   H12   S    
C15   C24   A    
C33   C35   A    
C7    C31   S    
C20   C22   A    
C6    C8    A    
Cu2   N2    S    
C10   O6    A    
C5    H3    S    
C12   O4    A    
C14   C16   A    
C21   C24   A    
C1    C4    S    
Cu2   O3    S    
C20   C25   A    
C7    N1    A    
C6    N1    A    
C31   N7    T    
C35   H5    S    
C1    O3    A    
C5    N2    A    
Cu1   O1    S    
Cu2   O2    S    
C4    C36   A    
C3    C37   A    
C5    C7    A    
C25   C33   A    
Cu1   O8    S    
C23   C26   A    
C8    N2    A    
Cu1   Cu2   S    
C15   C17   A    
C22   C34   A    
C32   N8    T    
C13   C19   A    
C14   H8    S    
C3    C12   S    
C30   C33   S    
C19   C21   A    
C25   C26   A    
C30   N6    T    
Cu2   O6    S    
C10   C13   S    
C17   C27   S    
C3    C38   A    
C29   N5    T    
Cu2   O7    S    
C1    O1    A    
