data_mof_unit_48331.cif
_audit_creation_date              2012-12-11T17:23:07-0500
_audit_creation_method            fapswitch 2.2
_symmetry_space_group_name_H-M    P1
_symmetry_Int_Tables_number       1
_space_group_crystal_system       triclinic
_cell_length_a                    22.411559
_cell_length_b                    7.090419
_cell_length_c                    19.542135
_cell_angle_alpha                 89.743101
_cell_angle_beta                  99.103362
_cell_angle_gamma                 89.93744
_cell_volume                      3066.2389924

loop_
_atom_site_label
_atom_site_type_symbol
_atom_type_description
_atom_site_fract_x
_atom_site_fract_y
_atom_site_fract_z
_atom_type_partial_charge
O1    O     O_R   0.443980 0.494320 0.557430 -0.532876
O2    O     O_R   0.556020 0.994320 0.442570 -0.525636
O3    O     O_R   0.441210 0.822520 0.414610 -0.534216
O4    O     O_R   0.558790 0.322520 0.585390 -0.537449
C1    C     C_R   0.426851 0.655841 0.389203 0.754385
C2    C     C_R   0.573226 0.154606 0.610713 0.759045
O5    O     O_R   0.436920 0.823940 0.555180 -0.527447
O6    O     O_R   0.563080 0.323940 0.444820 -0.531470
O7    O     O_R   0.551700 0.995760 0.584140 -0.531052
O8    O     O_R   0.448300 0.495760 0.415860 -0.536930
C3    C     C_R   0.421643 0.655286 0.574898 0.713292
C4    C     C_R   0.578351 0.155572 0.425082 0.717121
O9    O     O_3   0.537660 0.661290 0.509340 -0.374012
O10   O     O_3   0.462340 0.161290 0.490660 -0.377891
V1    V     V_3+5 0.493010 0.935560 0.498270 1.544127
V2    V     V_3+5 0.506990 0.435560 0.501730 1.532316
C5    C     C_R   0.753197 0.945319 0.210955 0.437116
C6    C     C_R   0.214512 0.444317 0.749147 0.430507
C7    C     C_R   0.794071 0.093539 0.205553 -0.047595
C8    C     C_R   0.205768 0.592887 0.794222 -0.044842
C9    C     C_R   0.790773 0.256594 0.245334 -0.201122
C10   C     C_R   0.241245 0.756018 0.794159 -0.184285
C11   C     C_R   0.747587 0.272811 0.289980 0.435379
C12   C     C_R   0.284789 0.772141 0.749920 0.435721
C13   C     C_R   0.706803 0.124422 0.295518 -0.047669
C14   C     C_R   0.293449 0.623693 0.704751 -0.047127
C15   C     C_R   0.710031 0.961474 0.255644 -0.174175
C16   C     C_R   0.258035 0.460465 0.704895 -0.193541
C17   C     C_1   0.839429 0.080698 0.159745 0.103033
C18   C     C_1   0.160573 0.580671 0.840255 0.111417
C19   C     C_1   0.661647 0.136993 0.341598 0.122636
C20   C     C_1   0.338451 0.636136 0.658482 0.110003
C21   C     C_1   0.623869 0.146465 0.379845 -0.091489
C22   C     C_1   0.376163 0.645656 0.620155 -0.100328
C23   C     C_1   0.877355 0.071085 0.121698 -0.089860
C24   C     C_1   0.122715 0.571281 0.878398 -0.083992
C25   C     C_R   0.625613 0.079653 0.801095 -0.140625
C26   C     C_R   0.370653 0.718524 0.199033 -0.145783
H1    H     H_    0.702397 0.997973 0.912124 0.187101
H2    H     H_    0.290593 0.759027 0.087666 0.179256
C27   C     C_R   0.613165 0.141765 0.678075 -0.130927
C28   C     C_R   0.386753 0.651889 0.321831 -0.124338
C29   C     C_R   0.908308 0.117557 0.765819 -0.171926
C30   C     C_R   0.095332 0.508888 0.233817 -0.174105
C31   C     C_R   0.873059 0.152308 0.702141 -0.097309
C32   C     C_R   0.132119 0.489996 0.297450 -0.106485
C33   C     C_R   0.810433 0.151147 0.695273 -0.125005
C34   C     C_R   0.193544 0.527684 0.304331 -0.128698
C35   C     C_R   0.780679 0.110757 0.752264 0.051375
C36   C     C_R   0.220316 0.589491 0.247351 0.051683
C37   C     C_R   0.817077 0.068443 0.818310 -0.013775
C38   C     C_R   0.181996 0.614773 0.181225 -0.010849
C39   C     C_R   0.715786 0.112158 0.745394 0.084958
C40   C     C_R   0.284157 0.625948 0.254352 0.084605
C41   C     C_R   0.688635 0.076887 0.804847 -0.012626
C42   C     C_R   0.308664 0.682776 0.195079 -0.008156
C43   C     C_R   0.724034 0.032040 0.867719 -0.148919
C44   C     C_R   0.271300 0.709777 0.132066 -0.162499
C45   C     C_R   0.786579 0.021279 0.874587 0.322752
C46   C     C_R   0.209301 0.682039 0.124823 0.321003
C47   C     C_R   0.676429 0.144363 0.681601 -0.257302
C48   C     C_R   0.324836 0.610964 0.318103 -0.263562
C49   C     C_R   0.588014 0.111094 0.738375 0.376669
C50   C     C_R   0.409484 0.704363 0.261756 0.381395
C51   C     C_R   0.881983 0.076994 0.824480 -0.073259
C52   C     C_R   0.118644 0.569382 0.175152 -0.069094
H3    H     H_    0.957040 0.125294 0.769629 0.123447
H4    H     H_    0.047884 0.473336 0.230087 0.106085
O11   O     O_R   0.051730 0.724670 0.084120 -0.521324
O12   O     O_R   0.948270 0.224670 0.915880 -0.544514
O13   O     O_R   0.063080 0.393540 0.944820 -0.536652
O14   O     O_R   0.936920 0.893540 0.055180 -0.511510
C53   C     C_R   0.077246 0.561886 0.923704 0.765605
C54   C     C_R   0.922836 0.061819 0.076397 0.760161
O15   O     O_R   0.058800 0.395030 0.085390 -0.546351
O16   O     O_R   0.941200 0.895030 0.914610 -0.521135
O17   O     O_R   0.943980 0.223310 0.057440 -0.544363
O18   O     O_R   0.056020 0.723310 0.942560 -0.515442
C55   C     C_R   0.075140 0.563780 0.109331 0.756022
C56   C     C_R   0.925048 0.064542 0.890522 0.761263
O19   O     O_3   0.962360 0.556290 0.990650 -0.366966
O20   O     O_3   0.037640 0.056290 0.009350 -0.358431
V3    V     V_3+5 0.006980 0.281990 0.001730 1.532230
V4    V     V_3+5 0.993020 0.781990 0.998270 1.593433
H5    H     H_    0.678902 0.846327 0.259237 0.216766
H6    H     H_    0.264214 0.345087 0.670499 0.194528
H7    H     H_    0.786607 0.184458 0.644418 0.116992
H8    H     H_    0.218933 0.505219 0.355234 0.109009
H9    H     H_    0.894610 0.184268 0.657634 0.137601
H10   H     H_    0.112910 0.442252 0.341955 0.128796
Cl1   Cl    Cl    0.820894 0.928316 0.954315 -0.638754
Cl2   Cl    Cl    0.170641 0.751912 0.043783 -0.674064
Cl3   Cl    Cl    0.754880 0.737498 0.162325 -0.564442
Cl4   Cl    Cl    0.171560 0.236030 0.746808 -0.640810
H11   H     H_    0.821882 0.371780 0.241720 0.192496
H12   H     H_    0.235076 0.871358 0.828576 0.208956
Cl5   Cl    Cl    0.745763 0.481011 0.338358 -0.629272
Cl6   Cl    Cl    0.327872 0.980204 0.752380 -0.542526
Cl7   Cl    Cl    0.509143 0.106471 0.736694 -0.560011
Cl8   Cl    Cl    0.486612 0.756703 0.263609 -0.614623
H13   H     H_    0.605316 0.053230 0.847037 0.172664
H14   H     H_    0.388948 0.761398 0.153223 0.169331
H15   H     H_    0.693114 0.165854 0.633406 0.112145
H16   H     H_    0.309884 0.573962 0.366145 0.107008

loop_
_geom_bond_atom_site_label_1
_geom_bond_atom_site_label_2
_ccdc_geom_bond_type
C13   C19   S    
C1    C28   S    
C23   C54   S    
C14   C20   S    
C30   C52   A    
O1    C3    A    
C27   C47   A    
O2    C4    A    
O16   V4    S    
C2    O7    A    
O3    V1    S    
C33   C35   A    
C8    C18   S    
O5    C3    A    
C52   C55   S    
C36   C40   A    
C5    Cl3   S    
C12   Cl6   S    
C47   H15   S    
C12   C14   A    
C43   C45   A    
O17   V3    S    
C44   C46   A    
H1    C43   S    
C37   C51   A    
C31   C33   A    
C15   H5    S    
C49   Cl7   S    
C38   C46   A    
C25   C49   A    
C39   C47   A    
C35   C37   A    
C2    C27   S    
C36   C38   A    
C53   O18   A    
C34   H8    S    
C31   H9    S    
C28   C48   A    
C26   C50   A    
C29   C51   A    
O5    V1    S    
O6    V2    S    
C51   C56   S    
O19   V3    S    
C30   C32   A    
O13   V3    S    
C39   C41   A    
C40   C42   A    
H2    C44   S    
O12   C56   A    
C5    C15   A    
C6    C16   A    
O4    C2    A    
O13   C53   A    
C40   C48   A    
C54   O17   A    
C48   H16   S    
C33   H7    S    
O4    V2    S    
O2    V1    S    
O6    C4    A    
C19   C21   T    
O1    V2    S    
C45   Cl1   S    
O12   V3    S    
C29   C31   A    
O14   V4    S    
O14   C54   A    
C11   Cl5   S    
C8    C10   A    
O20   V4    S    
C9    C11   A    
C16   H6    S    
C6    Cl4   S    
C10   C12   A    
C30   H4    S    
C37   C45   A    
C27   C49   A    
C7    C17   S    
C28   C50   A    
O19   V4    S    
C38   C52   A    
C7    C9    A    
C10   H12   S    
C3    C22   S    
O16   C56   A    
O3    C1    A    
C32   H10   S    
C13   C15   A    
C9    H11   S    
C17   C23   T    
C14   C16   A    
C18   C24   T    
C41   C43   A    
O7    V1    S    
C1    O8    A    
C26   H14   S    
O11   V4    S    
O8    V2    S    
C25   H13   S    
O15   V3    S    
C35   C39   A    
C34   C36   A    
C5    C7    A    
C42   C44   A    
C6    C8    A    
C11   C13   A    
O11   C55   A    
C24   C53   S    
C25   C41   A    
C32   C34   A    
O18   V4    S    
C50   Cl8   S    
C26   C42   A    
C29   H3    S    
O20   V3    S    
O9    V2    S    
O10   V1    S    
C4    C21   S    
C46   Cl2   S    
O15   C55   A    
C20   C22   T    
