data_mof_unit_46197.cif
_audit_creation_date              2012-12-11T16:56:07-0500
_audit_creation_method            fapswitch 2.2
_symmetry_space_group_name_H-M    P1
_symmetry_Int_Tables_number       1
_space_group_crystal_system       triclinic
_cell_length_a                    6.937471
_cell_length_b                    14.50177
_cell_length_c                    16.27455
_cell_angle_alpha                 90.506968
_cell_angle_beta                  89.824164
_cell_angle_gamma                 90.091106
_cell_volume                      1637.23720766

loop_
_atom_site_label
_atom_site_type_symbol
_atom_type_description
_atom_site_fract_x
_atom_site_fract_y
_atom_site_fract_z
_atom_type_partial_charge
O1    O     O_R   0.505830 0.583360 0.413880 -0.536410
O2    O     O_R   0.175830 0.595460 0.585520 -0.531118
O3    O     O_R   0.005520 0.416640 0.586120 -0.553225
C1    C     C_R   0.344677 0.619012 0.613188 0.723920
O4    O     O_R   0.176120 0.594390 0.414490 -0.553991
O5    O     O_R   0.005810 0.415570 0.413870 -0.546519
C2    C     C_R   0.345161 0.618133 0.387435 0.734110
O6    O     O_R   0.505540 0.584430 0.586130 -0.515200
O7    O     O_3   0.339200 0.441330 0.500000 -0.361938
V1    V     V_3+5 0.064350 0.510880 0.500000 1.583895
O8    O     O_R   0.676100 0.404540 0.414480 -0.506072
C3    C     C_R   0.844915 0.384557 0.384252 0.766902
O9    O     O_R   0.675810 0.405610 0.585510 -0.519095
C4    C     C_R   0.843757 0.386710 0.615914 0.682935
V2    V     V_3+5 0.564340 0.489120 0.500000 1.658904
O10   O     O_3   0.839360 0.558670 0.500000 -0.364670
C5    C     C_2   0.729352 0.210918 0.787495 -0.164700
C6    C     C_2   0.890565 0.166599 0.811092 0.271376
H1    H     H_    0.597075 0.202721 0.822606 0.099797
C7    C     C_2   0.718311 0.265943 0.710145 0.355119
C8    C     C_2   0.853061 0.330928 0.692368 0.288117
C9    C     C_R   0.760524 0.171754 0.252441 -0.148011
C10   C     C_R   0.883380 0.183247 0.185050 -0.283519
C11   C     C_R   0.008858 0.260014 0.186853 0.709081
C12   C     C_R   0.994831 0.328257 0.249349 0.399524
C13   C     C_R   0.858184 0.318030 0.314664 -0.187466
C14   C     C_R   0.748787 0.236799 0.315322 -0.207131
C15   C     C_3   0.538002 0.220256 0.327758 0.465161
C16   C     C_3   0.551362 0.148802 0.258753 1.064960
H2    H     H_    0.502842 0.191433 0.389058 0.051451
C17   C     C_R   0.474851 0.674027 0.748116 -0.148756
C18   C     C_R   0.352728 0.688324 0.681107 -0.249992
C19   C     C_R   0.229515 0.767102 0.684975 0.451840
C20   C     C_R   0.243063 0.830953 0.751216 0.449195
C21   C     C_R   0.377909 0.817172 0.816087 -0.215465
C22   C     C_R   0.486565 0.736090 0.813569 -0.186069
C23   C     C_3   0.698189 0.720156 0.823461 0.778559
C24   C     C_3   0.684834 0.651779 0.752079 1.091259
C25   C     C_R   0.476472 0.674799 0.253916 -0.027440
C26   C     C_R   0.352807 0.687945 0.320984 -0.291116
C27   C     C_R   0.227752 0.766198 0.318681 0.349338
C28   C     C_R   0.242683 0.831264 0.254376 0.452788
C29   C     C_R   0.377412 0.818068 0.188900 -0.241491
C30   C     C_R   0.486676 0.737086 0.189441 -0.173053
C31   C     C_3   0.700015 0.720948 0.179958 0.633199
C32   C     C_3   0.686534 0.652174 0.250678 0.435390
H3    H     H_    0.766252 0.672344 0.307250 0.053654
O11   O     O_R   0.229930 0.912420 0.917160 -0.537684
O12   O     O_R   0.559420 0.902500 0.088780 -0.520626
O13   O     O_R   0.729660 0.081330 0.089380 -0.517745
C33   C     C_R   0.390523 0.882534 0.118661 0.775249
O14   O     O_R   0.559650 0.901420 0.917750 -0.529943
O15   O     O_R   0.729880 0.080250 0.917130 -0.558428
C34   C     C_R   0.391030 0.881335 0.887560 0.702067
O16   O     O_R   0.229700 0.913500 0.089410 -0.539173
O17   O     O_3   0.396250 0.055540 0.003280 -0.360699
V3    V     V_3+5 0.671130 0.986010 0.003260 1.635410
O18   O     O_R   0.059600 0.091310 0.917720 -0.552098
C35   C     C_R   0.892236 0.109556 0.886837 0.643432
O19   O     O_R   0.059370 0.092380 0.088750 -0.507666
C36   C     C_R   0.890566 0.114833 0.117060 0.832846
V4    V     V_3+5 0.171120 0.007820 0.003230 1.639679
O20   O     O_3   0.896130 0.938240 0.003240 -0.359682
F1    F     F_    0.519796 0.059454 0.284787 -0.726823
O21   O     O_3   0.103952 0.789172 0.622553 -0.556139
H4    H     H_    0.147704 0.759278 0.571151 0.278498
O22   O     O_3   0.130987 0.909387 0.746369 -0.570783
H5    H     H_    0.196104 0.960484 0.775872 0.263396
O23   O     O_3   0.743603 0.678553 0.898296 -0.604221
H6    H     H_    0.739621 0.728570 0.940228 0.324132
F2    F     F_    0.809952 0.797100 0.806766 -0.644087
F3    F     F_    0.718225 0.560990 0.773463 -0.667958
F4    F     F_    0.785896 0.678793 0.682878 -0.645861
O24   O     O_3   0.098136 0.786339 0.380778 -0.605170
H7    H     H_    0.141416 0.756869 0.431857 0.280408
O25   O     O_3   0.131810 0.910057 0.261766 -0.588130
H8    H     H_    0.194612 0.961024 0.231792 0.318328
O26   O     O_3   0.813321 0.799036 0.197893 -0.606893
H9    H     H_    0.768232 0.826063 0.250857 0.298208
O27   O     O_3   0.051457 0.169996 0.760457 -0.611978
H10   H     H_    0.154312 0.130475 0.783016 0.286711
O28   O     O_3   0.752489 0.681140 0.103941 -0.576930
H11   H     H_    0.653454 0.634698 0.088320 0.344350
F5    F     F_    0.716365 0.561517 0.226445 -0.640870
O29   O     O_3   0.565098 0.252041 0.657293 -0.647473
H12   H     H_    0.482582 0.202401 0.679934 0.306430
O30   O     O_3   0.995760 0.349596 0.749598 -0.597646
H13   H     H_    0.072239 0.403468 0.731369 0.321744
F6    F     F_    0.134153 0.273658 0.123806 -0.574407
O31   O     O_3   0.109315 0.405636 0.240948 -0.540929
H14   H     H_    0.050226 0.457810 0.271324 0.321850
F7    F     F_    0.428733 0.296188 0.306663 -0.609274
F8    F     F_    0.447808 0.171419 0.189243 -0.611453

loop_
_geom_bond_atom_site_label_1
_geom_bond_atom_site_label_2
_ccdc_geom_bond_type
O18   V4    S    
O30   H13   S    
C8    O30   S    
C9    C16   S    
C23   O23   S    
C27   C28   A    
C21   C22   A    
C1    O6    A    
C11   F6    S    
O15   C35   A    
C19   O21   S    
C31   C32   S    
O11   C34   A    
C13   C14   A    
C23   C24   S    
C4    C8    S    
C22   C23   S    
C17   C22   A    
O5    C3    A    
V2    O10   S    
O16   V4    S    
C5    C7    S    
O12   V3    S    
O17   V3    S    
O19   V4    S    
C20   C21   A    
C27   O24   S    
O8    V2    S    
C31   O28   S    
O12   C33   A    
C10   C11   A    
V3    O20   S    
C31   O26   S    
O1    V2    S    
O7    V1    S    
C16   F1    S    
O9    C4    A    
C21   C34   S    
O14   C34   A    
C19   C20   A    
C24   F3    S    
O24   H7    S    
O22   H5    S    
C11   C12   A    
C25   C26   A    
O4    C2    A    
O15   V3    S    
O26   H9    S    
C12   C13   A    
O29   H12   S    
C3    C13   S    
O19   C36   A    
O2    C1    A    
C29   C30   A    
V4    O20   S    
O11   V4    S    
C17   C18   A    
C2    C26   S    
C7    O29   S    
C5    C6    D    
C12   O31   S    
C15   F7    S    
O25   H8    S    
C1    C18   S    
O3    C4    A    
C25   C32   S    
C32   F5    S    
C26   C27   A    
O21   H4    S    
O6    V2    S    
C9    C14   A    
O9    V2    S    
O17   V4    S    
C28   C29   A    
O2    V1    S    
C30   C31   S    
C32   H3    S    
C15   C16   S    
O1    C2    A    
O13   V3    S    
O27   H10   S    
C20   O22   S    
O5    V1    S    
O8    C3    A    
C25   C30   A    
C28   O25   S    
C17   C24   S    
C18   C19   A    
C23   F2    S    
O18   C35   A    
O4    V1    S    
O3    V1    S    
V1    O10   S    
C16   F8    S    
C29   C33   S    
O31   H14   S    
C15   H2    S    
C5    H1    S    
C33   O16   A    
O7    V2    S    
O23   H6    S    
O14   V3    S    
C6    C35   S    
C10   C36   S    
C7    C8    D    
C6    O27   S    
O28   H11   S    
C14   C15   S    
O13   C36   A    
C9    C10   A    
C24   F4    S    
