data_mof_unit_6813.cif
_audit_creation_date              2012-12-10T17:53:20-0500
_audit_creation_method            fapswitch 2.2
_symmetry_space_group_name_H-M    P1
_symmetry_Int_Tables_number       1
_space_group_crystal_system       triclinic
_cell_length_a                    23.351746
_cell_length_b                    10.739425
_cell_length_c                    9.974508
_cell_angle_alpha                 90.621584
_cell_angle_beta                  90.949101
_cell_angle_gamma                 94.821705
_cell_volume                      2492.06776692

loop_
_atom_site_label
_atom_site_type_symbol
_atom_type_description
_atom_site_fract_x
_atom_site_fract_y
_atom_site_fract_z
_atom_type_partial_charge
C1    C     C_R   0.505286 0.261785 0.499003 0.939086
C2    C     C_R   0.965589 0.297572 0.387359 -0.122627
C3    C     C_R   0.025053 0.306776 0.378166 -0.116191
C4    C     C_R   0.057920 0.413552 0.427201 -0.012281
C5    C     C_R   0.030807 0.513172 0.485018 -0.052018
C6    C     C_R   0.063753 0.621239 0.535062 -0.099815
C7    C     C_R   0.034888 0.720894 0.590036 0.317537
C8    C     C_R   0.975101 0.710070 0.596725 -0.168859
C9    C     C_R   0.117609 0.421941 0.421996 0.537363
C10   C     C_R   0.124090 0.622785 0.530068 0.550508
C11   C     C_R   0.245402 0.604911 0.408449 -0.018058
C12   C     C_R   0.389786 0.501946 0.498857 0.916624
C13   C     C_R   0.304631 0.598624 0.413770 -0.170085
C14   C     C_R   0.328257 0.509809 0.495092 -0.031989
C15   C     C_R   0.292760 0.427444 0.570511 -0.170247
C16   C     C_R   0.233777 0.433819 0.565632 -0.067664
C17   C     C_R   0.209986 0.521793 0.483849 0.276386
C18   C     C_R   0.760488 0.450829 0.618800 -0.099189
C19   C     C_R   0.701083 0.452747 0.618022 -0.143651
C20   C     C_R   0.672238 0.486812 0.501348 -0.076784
C21   C     C_R   0.703139 0.516084 0.384814 -0.172440
C22   C     C_R   0.762468 0.514698 0.385545 0.329626
C23   C     C_R   0.502260 0.740358 0.499905 0.957500
C24   C     C_R   0.791127 0.482615 0.503167 0.214680
C25   C     C_R   0.574018 0.139207 0.707040 -0.169036
C26   C     C_R   0.609825 0.078589 0.793224 0.281887
C27   C     C_R   0.621821 0.956836 0.763817 -0.131434
C28   C     C_R   0.594131 0.892706 0.655368 0.276339
C29   C     C_R   0.548177 0.943702 0.587670 -0.009794
C30   C     C_R   0.543731 0.072924 0.600116 0.004006
C31   C     C_R   0.515451 0.131418 0.494182 -0.216034
C32   C     C_R   0.497949 0.061972 0.377760 0.297140
C33   C     C_R   0.484879 0.935874 0.389693 0.222508
C34   C     C_R   0.610187 0.493953 0.500629 0.917085
C35   C     C_R   0.510631 0.874635 0.495683 -0.210240
C36   C     C_R   0.397811 0.413686 0.130035 0.281141
C37   C     C_R   0.346861 0.422548 0.055618 0.232785
C38   C     C_R   0.348987 0.413066 0.917183 -0.284259
C39   C     C_R   0.401644 0.400279 0.857639 0.291736
C40   C     C_R   0.452092 0.449436 0.925478 0.029667
C41   C     C_R   0.451163 0.452597 0.069383 0.029264
C42   C     C_R   0.545979 0.546362 0.075297 -0.057060
C43   C     C_R   0.545875 0.548644 0.933757 0.315708
C44   C     C_R   0.882768 0.591807 0.555245 0.582472
C45   C     C_R   0.878137 0.388577 0.453517 0.564866
C46   C     C_R   0.937925 0.395416 0.444736 -0.013888
C47   C     C_R   0.970493 0.503795 0.493111 -0.010651
C48   C     C_R   0.942738 0.602493 0.549535 -0.079888
H1    H     H_    0.941429 0.213784 0.349138 0.206806
H2    H     H_    0.677848 0.427995 0.708274 0.206600
H3    H     H_    0.309401 0.387377 0.862093 0.203780
H4    H     H_    0.226971 0.672552 0.344574 0.172242
H5    H     H_    0.331933 0.662278 0.354417 0.190035
H6    H     H_    0.310370 0.355955 0.629536 0.183912
H7    H     H_    0.782868 0.425998 0.709332 0.181561
N1    N     N_R   0.852127 0.486594 0.506545 -0.354115
N2    N     N_R   0.149097 0.523729 0.475669 -0.368472
N3    N     N_R   0.499460 0.498800 0.142780 -0.115200
N4    N     N_R   0.499440 0.498720 0.857170 -0.132584
O1    O     O_R   0.500000 0.316780 0.614690 -0.599063
O2    O     O_2   0.846038 0.285848 0.408182 -0.505301
O3    O     O_2   0.144348 0.328500 0.365064 -0.487403
O4    O     O_2   0.157991 0.719868 0.581595 -0.472224
O5    O     O_R   0.500000 0.316750 0.385360 -0.557261
O6    O     O_R   0.416160 0.499970 0.614690 -0.615065
O7    O     O_R   0.416150 0.499950 0.385360 -0.599105
O8    O     O_R   0.500000 0.683250 0.614640 -0.588400
O9    O     O_R   0.500000 0.683220 0.385310 -0.580678
O10   O     O_R   0.583850 0.500050 0.614640 -0.584365
O11   O     O_R   0.583840 0.500030 0.385310 -0.628961
O12   O     O_2   0.855078 0.686115 0.607236 -0.498083
Zn1   Zn    Zn3+2 0.500000 0.500020 0.653130 1.038395
Zn2   Zn    Zn3+2 0.500000 0.499980 0.346870 1.049842
H8    H     H_    0.681505 0.542892 0.294005 0.196719
Br1   Br    Br    0.803400 0.561132 0.226182 -0.382754
Br2   Br    Br    0.509920 0.122617 0.197148 -0.307967
H9    H     H_    0.574303 0.238594 0.721749 0.192545
Br3   Br    Br    0.650758 0.170039 0.935323 -0.400700
H10   H     H_    0.656793 0.917211 0.816389 0.222948
Br4   Br    Br    0.639563 0.782768 0.560582 -0.433853
Br5   Br    Br    0.431176 0.854899 0.259318 -0.393647
H11   H     H_    0.583270 0.585765 0.131711 0.175487
H12   H     H_    0.045187 0.229406 0.333624 0.208546
Br6   Br    Br    0.390526 0.271697 0.246221 -0.315797
Br7   Br    Br    0.272661 0.400511 0.136135 -0.368817
Br8   Br    Br    0.401105 0.245752 0.760133 -0.408944
Br9   Br    Br    0.613161 0.630444 0.859819 -0.439285
Br10  Br    Br    0.071881 0.876836 0.657012 -0.340848
H13   H     H_    0.953938 0.787037 0.639081 0.222169
H14   H     H_    0.206332 0.369182 0.623595 0.165569

loop_
_geom_bond_atom_site_label_1
_geom_bond_atom_site_label_2
_ccdc_geom_bond_type
C16   H14   S    
C19   C20   A    
C42   H11   S    
C42   N3    A    
C7    C8    A    
C45   C46   A    
C2    C46   A    
C5    C47   A    
C26   C27   A    
C29   C30   A    
C18   C24   A    
C37   Br7   S    
C28   C29   A    
C41   N3    A    
O8    Zn1   S    
C27   H10   S    
C5    C6    A    
O1    Zn1   S    
C15   C16   A    
C1    C31   S    
C44   O12   S    
C18   C19   A    
C23   O8    A    
C7    Br10  S    
C25   H9    S    
C11   H4    S    
C11   C17   A    
C10   O4    S    
C45   N1    A    
C16   C17   A    
C47   C48   A    
O5    Zn2   S    
C34   O11   A    
C43   N4    A    
N4    Zn1   S    
C20   C34   S    
C40   N4    A    
C13   C14   A    
C36   C41   A    
C22   Br1   S    
C13   H5    S    
C9    O3    S    
C15   H6    S    
C10   N2    A    
C1    O1    A    
C39   C40   A    
C38   H3    S    
C25   C26   A    
O7    Zn2   S    
C12   O7    A    
C21   H8    S    
C23   O9    A    
O10   Zn1   S    
C8    C48   A    
C6    C10   A    
C37   C38   A    
C2    H1    S    
C44   N1    A    
C31   C32   A    
C30   C31   A    
O11   Zn2   S    
C26   Br3   S    
C34   O10   A    
C18   H7    S    
C40   C41   A    
C12   C14   S    
C23   C35   S    
C3    H12   S    
C22   C24   A    
C42   C43   A    
C3    C4    A    
C1    O5    A    
C25   C30   A    
C46   C47   A    
C36   C37   A    
C4    C5    A    
C32   Br2   S    
C6    C7    A    
C24   N1    S    
O6    Zn1   S    
C12   O6    A    
C29   C35   A    
C43   Br9   S    
C32   C33   A    
C2    C3    A    
O9    Zn2   S    
C11   C13   A    
C19   H2    S    
C38   C39   A    
C36   Br6   S    
C45   O2    S    
C33   C35   A    
C9    N2    A    
C28   Br4   S    
C20   C21   A    
C27   C28   A    
C14   C15   A    
C8    H13   S    
C39   Br8   S    
C4    C9    A    
C21   C22   A    
C33   Br5   S    
C44   C48   A    
N3    Zn2   S    
C17   N2    S    
