data_mof_unit_46167.cif
_audit_creation_date              2012-12-10T17:31:20-0500
_audit_creation_method            fapswitch 2.2
_symmetry_space_group_name_H-M    P1
_symmetry_Int_Tables_number       1
_space_group_crystal_system       triclinic
_cell_length_a                    19.175225
_cell_length_b                    18.838179
_cell_length_c                    12.440942
_cell_angle_alpha                 89.86222
_cell_angle_beta                  130.049676
_cell_angle_gamma                 90.247372
_cell_volume                      3440.06215603

loop_
_atom_site_label
_atom_site_type_symbol
_atom_type_description
_atom_site_fract_x
_atom_site_fract_y
_atom_site_fract_z
_atom_type_partial_charge
C1    C     C_R   0.606515 0.895610 0.646268 0.854292
C2    C     C_R   0.611911 0.101691 0.652424 0.845628
C3    C     C_R   0.106517 0.395611 0.646271 0.854294
C4    C     C_R   0.111909 0.601692 0.652421 0.845624
C5    C     C_R   0.250923 0.770511 0.045233 0.096308
C6    C     C_R   0.241184 0.224854 0.038525 0.107470
C7    C     C_R   0.750937 0.270498 0.045259 0.096320
C8    C     C_R   0.741181 0.724852 0.038520 0.107462
C9    C     C_R   0.673426 0.261623 0.034848 0.092991
C10   C     C_R   0.669178 0.738677 0.040426 0.088498
C11   C     C_R   0.173405 0.761645 0.034807 0.092994
C12   C     C_R   0.169177 0.238674 0.040424 0.088507
C13   C     C_R   0.595174 0.230835 0.915586 -0.211587
C14   C     C_R   0.595443 0.779533 0.935775 -0.209298
C15   C     C_R   0.095152 0.730862 0.915536 -0.211584
C16   C     C_R   0.095441 0.279529 0.935770 -0.209302
C17   C     C_R   0.595639 0.204475 0.812305 -0.165504
C18   C     C_R   0.590171 0.804993 0.826789 -0.142096
C19   C     C_R   0.095623 0.704493 0.812264 -0.165494
C20   C     C_R   0.090172 0.304991 0.826788 -0.142093
C21   C     C_R   0.316785 0.819200 0.144267 -0.285028
C22   C     C_R   0.307377 0.175863 0.136403 -0.309971
C23   C     C_R   0.816794 0.319192 0.144283 -0.285015
C24   C     C_R   0.807370 0.675857 0.136391 -0.309972
C25   C     C_R   0.248177 0.825436 0.253251 0.426274
C26   C     C_R   0.230741 0.154524 0.229709 0.437420
C27   C     C_R   0.748197 0.325419 0.253285 0.426292
C28   C     C_R   0.730748 0.654533 0.229724 0.437433
C29   C     C_R   0.681143 0.156495 0.744772 -0.172826
C30   C     C_R   0.662436 0.832598 0.724182 -0.190736
C31   C     C_R   0.181138 0.656499 0.744761 -0.172828
C32   C     C_R   0.162441 0.332602 0.724190 -0.190701
C33   C     C_R   0.676222 0.040166 0.285871 -0.388511
C34   C     C_R   0.176215 0.540181 0.285865 -0.388488
C35   C     C_R   0.344499 0.987899 0.626326 0.067014
C36   C     C_R   0.844505 0.487873 0.626333 0.066952
C37   C     C_R   0.309703 0.984242 0.695687 -0.287226
C38   C     C_R   0.809710 0.484207 0.695695 -0.287262
C39   C     C_R   0.381329 0.095710 0.338376 0.777247
C40   C     C_R   0.385249 0.900662 0.343507 0.770315
C41   C     C_R   0.881330 0.595711 0.338376 0.777250
C42   C     C_R   0.885252 0.400660 0.343511 0.770332
C43   C     C_R   0.367125 0.992075 0.840862 -0.143780
C44   C     C_R   0.867128 0.492053 0.840865 -0.143850
C45   C     C_R   0.460820 0.004855 0.919696 -0.024187
C46   C     C_R   0.960819 0.504852 0.919695 -0.024171
C47   C     C_R   0.495105 0.008714 0.844931 0.165007
C48   C     C_R   0.995103 0.508719 0.844929 0.165064
C49   C     C_R   0.522237 0.012202 0.070666 -0.014588
C50   C     C_R   0.022234 0.512205 0.070664 -0.014591
C51   C     C_R   0.611204 0.036725 0.139374 0.059909
C52   C     C_R   0.111197 0.536736 0.139368 0.059906
C53   C     C_R   0.638965 0.051566 0.063870 -0.348100
C54   C     C_R   0.138957 0.551581 0.063862 -0.348104
C55   C     C_R   0.591493 0.023052 0.928473 0.465415
C56   C     C_R   0.091488 0.523063 0.928468 0.465401
C57   C     C_R   0.500463 0.997309 0.158340 -0.021918
C58   C     C_R   0.000463 0.497307 0.158341 -0.021925
C59   C     C_R   0.654329 0.015828 0.366427 0.642284
C60   C     C_R   0.154326 0.515837 0.366423 0.642278
C61   C     C_R   0.673610 0.287004 0.140616 -0.304463
C62   C     C_R   0.665966 0.705081 0.137695 -0.276955
C63   C     C_R   0.173585 0.787029 0.140570 -0.304456
C64   C     C_R   0.165962 0.205074 0.137686 -0.276945
C65   C     C_R   0.316466 0.846870 0.248342 -0.171690
C66   C     C_R   0.306321 0.144001 0.236656 -0.187584
C67   C     C_R   0.816476 0.346862 0.248358 -0.171686
C68   C     C_R   0.806321 0.644002 0.236657 -0.187586
C69   C     C_R   0.758773 0.159034 0.757007 -0.390917
C70   C     C_R   0.721923 0.809902 0.703662 -0.411122
C71   C     C_R   0.258769 0.659037 0.757000 -0.390935
C72   C     C_R   0.221932 0.309910 0.703676 -0.411175
C73   C     C_R   0.338510 0.692573 0.871526 0.427327
C74   C     C_R   0.293921 0.265600 0.800306 0.431703
C75   C     C_R   0.838514 0.192568 0.871533 0.427290
C76   C     C_R   0.793916 0.765597 0.800300 0.431699
C77   C     C_R   0.338896 0.726894 0.971704 0.358459
C78   C     C_R   0.311041 0.247851 0.924274 0.348297
C79   C     C_R   0.838904 0.226890 0.971714 0.358458
C80   C     C_R   0.811037 0.747849 0.924268 0.348229
C81   C     C_R   0.756650 0.233613 0.951056 -0.097796
C82   C     C_R   0.740582 0.756793 0.933225 -0.104173
C83   C     C_R   0.256639 0.733623 0.951036 -0.097812
C84   C     C_R   0.240586 0.256795 0.933231 -0.104183
C85   C     C_R   0.677290 0.198240 0.834964 0.023619
C86   C     C_R   0.663875 0.798711 0.827715 0.042724
C87   C     C_R   0.177280 0.698251 0.834941 0.023622
C88   C     C_R   0.163878 0.298712 0.827719 0.042713
Cu1   Cu    Cu3+1 0.526340 0.000000 0.421010 0.966617
Cu2   Cu    Cu3+1 0.026340 0.500000 0.421010 0.966606
Cu3   Cu    Cu3+1 0.473640 0.000000 0.578990 0.968146
Cu4   Cu    Cu3+1 0.973640 0.500000 0.578990 0.968145
H1    H     H_    0.365628 0.839553 0.135953 0.237432
H2    H     H_    0.357444 0.156899 0.131436 0.250839
H3    H     H_    0.865629 0.339551 0.135956 0.237432
H4    H     H_    0.857429 0.656886 0.131409 0.250826
N1    N     N_R   0.566260 0.000000 0.302220 -0.219830
N2    N     N_R   0.066260 0.500000 0.302220 -0.219840
N3    N     N_R   0.434410 0.000000 0.697680 -0.212130
N4    N     N_R   0.934410 0.500000 0.697680 -0.212128
O1    O     O_R   0.608610 0.924520 0.551740 -0.561090
O2    O     O_R   0.608610 0.075480 0.551740 -0.548457
O3    O     O_R   0.108610 0.424520 0.551740 -0.561103
O4    O     O_R   0.108610 0.575480 0.551740 -0.548461
O5    O     O_R   0.564110 0.924510 0.685150 -0.524362
O6    O     O_R   0.564110 0.075490 0.685150 -0.544439
O7    O     O_R   0.064110 0.424510 0.685150 -0.524365
O8    O     O_R   0.064110 0.575490 0.685150 -0.544439
O9    O     O_R   0.435880 0.075470 0.314850 -0.594500
O10   O     O_R   0.435880 0.924530 0.314850 -0.604841
O11   O     O_R   0.935880 0.575470 0.314850 -0.594506
O12   O     O_R   0.935880 0.424530 0.314850 -0.604839
O13   O     O_R   0.391380 0.075460 0.448260 -0.579615
O14   O     O_R   0.391380 0.924540 0.448260 -0.565484
O15   O     O_R   0.891380 0.575460 0.448260 -0.579597
O16   O     O_R   0.891380 0.424540 0.448260 -0.565487
O17   O     O_3   0.250845 0.845612 0.362444 -0.582958
C89   C     C_3   0.282404 0.787115 0.454312 0.051494
H5    H     H_    0.349492 0.767932 0.490534 0.135167
H6    H     H_    0.232421 0.742576 0.402052 0.143630
C90   C     C_3   0.294669 0.809047 0.582922 -0.760702
H7    H     H_    0.233614 0.837807 0.551529 0.240859
H8    H     H_    0.304390 0.761185 0.642660 0.240672
H9    H     H_    0.355938 0.843215 0.651824 0.249209
O18   O     O_3   0.213042 0.111099 0.299547 -0.599127
C91   C     C_3   0.179269 0.044775 0.229239 0.077108
H10   H     H_    0.236604 0.007130 0.276505 0.174682
H11   H     H_    0.142825 0.047901 0.114442 0.109820
C92   C     C_3   0.112868 0.014175 0.245414 -0.820160
H12   H     H_    0.048826 0.045161 0.181272 0.214707
H13   H     H_    0.096506 0.958242 0.208428 0.223291
H14   H     H_    0.142695 0.015803 0.356921 0.245118
O19   O     O_3   0.750870 0.345594 0.362482 -0.582966
C93   C     C_3   0.782419 0.287095 0.454341 0.051452
H15   H     H_    0.849503 0.267904 0.490559 0.135173
H16   H     H_    0.732428 0.242561 0.402077 0.143638
C94   C     C_3   0.794690 0.309029 0.582953 -0.760675
H17   H     H_    0.733640 0.337796 0.551565 0.240858
H18   H     H_    0.804402 0.261166 0.642682 0.240684
H19   H     H_    0.855965 0.343190 0.651858 0.249210
O20   O     O_3   0.713060 0.611122 0.299590 -0.599095
C95   C     C_3   0.679274 0.544796 0.229297 0.077128
H20   H     H_    0.736603 0.507149 0.276532 0.174657
H21   H     H_    0.642800 0.547918 0.114492 0.109822
C96   C     C_3   0.612903 0.514202 0.245540 -0.820233
H22   H     H_    0.548848 0.545172 0.181393 0.214730
H23   H     H_    0.596560 0.458261 0.208609 0.223300
H24   H     H_    0.642747 0.515858 0.357051 0.245122
H25   H     H_    0.705989 0.074852 0.121553 0.132140
H26   H     H_    0.205978 0.574871 0.121541 0.132135
H27   H     H_    0.745417 0.057374 0.337917 0.138276
H28   H     H_    0.245409 0.557392 0.337911 0.138289
H29   H     H_    0.432046 0.983674 0.114512 0.135166
H30   H     H_    0.932048 0.483666 0.114515 0.135168
H31   H     H_    0.299343 0.980459 0.514204 0.179880
H32   H     H_    0.799353 0.480421 0.514214 0.179900
H33   H     H_    0.336380 0.989271 0.889046 0.133179
H34   H     H_    0.836384 0.489241 0.889050 0.133182
H35   H     H_    0.237651 0.974779 0.636394 0.142383
H36   H     H_    0.737662 0.474726 0.636405 0.142397
O21   O     O_3   0.639696 0.999285 0.886403 -0.516776
C97   C     C_3   0.735286 0.012499 0.982147 0.073896
H37   H     H_    0.768009 0.986405 0.085052 0.135337
H38   H     H_    0.748969 0.070587 0.995551 0.135486
C98   C     C_3   0.780635 0.982541 0.927421 -0.822985
H39   H     H_    0.744306 0.000134 0.818088 0.261165
H40   H     H_    0.852174 0.001747 0.993753 0.181276
H41   H     H_    0.781854 0.923837 0.932858 0.235951
O22   O     O_3   0.139693 0.499288 0.886407 -0.516778
C99   C     C_3   0.235282 0.512508 0.982149 0.073898
H42   H     H_    0.268007 0.486421 0.085061 0.135336
H43   H     H_    0.248960 0.570597 0.995539 0.135481
C100  C     C_3   0.280634 0.482545 0.927431 -0.822977
H44   H     H_    0.244306 0.500134 0.818096 0.261156
H45   H     H_    0.352173 0.501752 0.993764 0.181273
H46   H     H_    0.281853 0.423841 0.932876 0.235956
H47   H     H_    0.532837 0.229741 0.900209 0.202669
H48   H     H_    0.538149 0.787692 0.932397 0.201439
H49   H     H_    0.032811 0.729777 0.900146 0.202665
H50   H     H_    0.038145 0.287685 0.932388 0.201442
H51   H     H_    0.616171 0.277055 0.136052 0.166160
H52   H     H_    0.608626 0.713374 0.134231 0.195238
H53   H     H_    0.116140 0.777086 0.135996 0.166164
H54   H     H_    0.108618 0.213364 0.134217 0.195230
H55   H     H_    0.758907 0.131019 0.681555 0.221897
H56   H     H_    0.715342 0.828712 0.615400 0.201488
H57   H     H_    0.258905 0.631020 0.681552 0.221899
H58   H     H_    0.215358 0.328729 0.615427 0.201452
O23   O     O_3   0.421977 0.750913 0.091833 -0.578568
C101  C     C_3   0.460898 0.697486 0.195416 0.069161
H59   H     H_    0.481114 0.651479 0.165228 0.151556
H60   H     H_    0.412954 0.679061 0.211744 0.122511
C102  C     C_3   0.545451 0.726975 0.334136 -0.773730
H61   H     H_    0.527089 0.773037 0.367050 0.244976
H62   H     H_    0.576290 0.685272 0.416221 0.189021
H63   H     H_    0.596060 0.744284 0.323215 0.249381
O24   O     O_3   0.396151 0.220941 0.031518 -0.577949
C103  C     C_3   0.450443 0.275448 0.130038 0.055823
H64   H     H_    0.413714 0.306299 0.156537 0.135003
H65   H     H_    0.473107 0.312457 0.087910 0.157442
C104  C     C_3   0.533825 0.242453 0.265351 -0.781078
H66   H     H_    0.569136 0.206962 0.242838 0.252895
H67   H     H_    0.581328 0.284970 0.338671 0.209546
H68   H     H_    0.513231 0.210820 0.316373 0.248647
O25   O     O_3   0.921983 0.250916 0.091834 -0.578578
C105  C     C_3   0.960930 0.197486 0.195412 0.069180
H69   H     H_    0.981168 0.151499 0.165216 0.151601
H70   H     H_    0.912998 0.179030 0.211742 0.122496
C106  C     C_3   0.045470 0.226985 0.334133 -0.773792
H71   H     H_    0.027082 0.273012 0.367075 0.244961
H72   H     H_    0.076348 0.185273 0.416203 0.189048
H73   H     H_    0.096055 0.244347 0.323199 0.249361
O26   O     O_3   0.896147 0.720940 0.031514 -0.577958
C107  C     C_3   0.950433 0.775446 0.130042 0.055824
H74   H     H_    0.913703 0.806281 0.156556 0.135021
H75   H     H_    0.973088 0.812469 0.087917 0.157423
C108  C     C_3   0.033823 0.742451 0.265341 -0.781060
H76   H     H_    0.069142 0.706981 0.242814 0.252888
H77   H     H_    0.081317 0.784968 0.338675 0.209540
H78   H     H_    0.013237 0.710796 0.316351 0.248668
O27   O     O_3   0.417243 0.695866 0.887506 -0.585675
C109  C     C_3   0.440338 0.629818 0.863759 0.048176
H79   H     H_    0.403331 0.583367 0.861624 0.134246
H80   H     H_    0.513165 0.619938 0.952958 0.168957
C110  C     C_3   0.429036 0.633151 0.730607 -0.828611
H81   H     H_    0.464058 0.680751 0.732577 0.254522
H82   H     H_    0.459606 0.585415 0.723539 0.206003
H83   H     H_    0.356085 0.635522 0.635589 0.243865
O28   O     O_3   0.351982 0.242980 0.778201 -0.575793
C111  C     C_3   0.305659 0.190101 0.673241 0.038056
H84   H     H_    0.240778 0.210145 0.574170 0.149855
H85   H     H_    0.291294 0.142910 0.710582 0.163310
C112  C     C_3   0.364253 0.167199 0.638504 -0.723933
H86   H     H_    0.427882 0.143573 0.732826 0.234141
H87   H     H_    0.327209 0.126661 0.555250 0.268058
H88   H     H_    0.379264 0.213318 0.600460 0.227635
O29   O     O_3   0.917245 0.195859 0.887506 -0.585688
C113  C     C_3   0.940347 0.129804 0.863794 0.048139
H89   H     H_    0.903336 0.083359 0.861662 0.134241
H90   H     H_    0.013172 0.119926 0.953009 0.168967
C114  C     C_3   0.929062 0.133119 0.730655 -0.828587
H91   H     H_    0.964082 0.180718 0.732614 0.254529
H92   H     H_    0.959643 0.085381 0.723621 0.205998
H93   H     H_    0.856112 0.135482 0.635625 0.243870
O30   O     O_3   0.851970 0.742973 0.778186 -0.575799
C115  C     C_3   0.805669 0.690037 0.673333 0.038047
H94   H     H_    0.740720 0.710012 0.574260 0.149845
H95   H     H_    0.791419 0.642844 0.710840 0.163346
C116  C     C_3   0.864216 0.667165 0.638487 -0.723845
H96   H     H_    0.927902 0.643605 0.732794 0.234091
H97   H     H_    0.827199 0.626582 0.555333 0.268028
H98   H     H_    0.879103 0.713274 0.600271 0.227692
H99   H     H_    0.531732 0.188133 0.714662 0.157476
H100  H     H_    0.525123 0.826542 0.738815 0.164063
H101  H     H_    0.031717 0.688154 0.714614 0.157461
H102  H     H_    0.025124 0.326540 0.738812 0.164065
O31   O     O_3   0.720691 0.009834 0.510667 -0.573254
C117  C     C_3   0.778488 0.952674 0.540098 0.053125
H103  H     H_    0.817506 0.964495 0.504112 0.128204
H104  H     H_    0.738274 0.903040 0.487889 0.140506
C118  C     C_3   0.847255 0.939255 0.697472 -0.800167
H105  H     H_    0.812643 0.936469 0.742046 0.262829
H106  H     H_    0.882923 0.888290 0.718196 0.230535
H107  H     H_    0.898783 0.982174 0.750371 0.226830
O32   O     O_3   0.220693 0.509841 0.510660 -0.573261
C119  C     C_3   0.278465 0.452663 0.540074 0.053176
H108  H     H_    0.317458 0.464454 0.504030 0.128175
H109  H     H_    0.238232 0.403031 0.487901 0.140491
C120  C     C_3   0.347262 0.439263 0.697453 -0.800140
H110  H     H_    0.312674 0.436491 0.742072 0.262805
H111  H     H_    0.382926 0.388295 0.718175 0.230524
H112  H     H_    0.398792 0.482186 0.750309 0.226830

loop_
_geom_bond_atom_site_label_1
_geom_bond_atom_site_label_2
_ccdc_geom_bond_type
C83   C87   A    
C91   H10   S    
C106  H71   S    
C15   H49   S    
C56   O22   S    
O17   C89   S    
C44   H34   S    
C104  H66   S    
C14   C18   A    
C76   O30   S    
C58   N2    A    
Cu2   O12   S    
C60   O32   S    
C39   C66   S    
C106  H73   S    
C93   C94   S    
C96   H22   S    
C104  H67   S    
C49   C57   A    
C54   H26   S    
O25   C105  S    
C18   H100  S    
C108  H78   S    
C15   C19   A    
C94   H18   S    
C113  C114  S    
C17   H99   S    
C116  H96   S    
C98   H39   S    
C21   H1    S    
C8    C82   A    
C2    C29   S    
C9    C61   A    
C35   C37   A    
C35   H31   S    
C5    C11   A    
C110  H82   S    
C60   N2    A    
C24   H4    S    
C6    C12   A    
C118  H105  S    
Cu1   O2    S    
C107  H75   S    
C32   C72   A    
C99   H42   S    
C2    O2    A    
C3    O3    A    
C6    C22   A    
C113  H90   S    
Cu1   O9    S    
C110  H83   S    
C47   N3    A    
C99   C100  S    
C111  C112  S    
C7    C9    A    
C114  H91   S    
O22   C99   S    
C23   C67   A    
C9    C13   A    
C89   H5    S    
C72   H58   S    
C90   H9    S    
C42   O12   A    
C58   H30   S    
C101  C102  S    
C96   H23   S    
C115  H94   S    
C11   C15   A    
Cu4   O8    S    
C40   O14   A    
C12   C16   A    
C44   C46   A    
C102  H62   S    
C50   C52   A    
C69   C75   A    
C103  H64   S    
C78   O24   S    
C45   C49   A    
Cu1   Cu3   S    
C27   C61   A    
O32   C119  S    
C108  H77   S    
C29   C85   A    
C7    C23   A    
C81   C85   A    
C92   H14   S    
Cu1   O1    S    
C82   C86   A    
C53   C55   A    
O18   C91   S    
C33   C59   A    
C120  H110  S    
C34   C60   A    
C22   H2    S    
C95   C96   S    
C10   C62   A    
Cu2   O11   S    
C41   O15   A    
C74   O28   S    
C35   N3    A    
C39   O13   A    
C21   C65   A    
C30   C70   A    
O28   C111  S    
C52   C54   A    
C53   H25   S    
C20   H102  S    
C41   C68   S    
C29   C69   A    
C45   C47   A    
C48   N4    A    
C94   H19   S    
C115  H95   S    
C116  H97   S    
C63   H53   S    
C32   C88   A    
C27   O19   S    
C76   C80   A    
C6    C84   A    
C55   O21   S    
C80   C82   A    
C10   C14   A    
C41   O11   A    
C118  H106  S    
Cu4   N4    S    
C34   H28   S    
C107  H74   S    
C93   H16   S    
C61   H51   S    
C109  C110  S    
C49   C51   A    
C108  H76   S    
C100  H44   S    
C57   H29   S    
Cu1   O10   S    
C107  C108  S    
C2    O6    A    
Cu3   O13   S    
Cu1   N1    S    
C114  H92   S    
C26   O18   S    
C26   C66   A    
C37   C43   A    
C117  H104  S    
C101  H59   S    
C38   C44   A    
O27   C109  S    
C111  H85   S    
C62   H52   S    
C97   C98   S    
Cu4   O16   S    
C112  H88   S    
Cu4   O7    S    
Cu2   Cu4   S    
Cu3   O5    S    
O26   C107  S    
C16   C20   A    
C102  H63   S    
C57   N1    A    
C103  C104  S    
C110  H81   S    
C20   C88   A    
C50   C58   A    
C25   C65   A    
C3    C32   S    
C36   N4    A    
C18   C86   A    
Cu2   N2    S    
C109  H80   S    
C112  H87   S    
Cu2   O4    S    
C90   H7    S    
C14   H48   S    
C100  H45   S    
C119  H109  S    
C72   C74   A    
C7    C81   A    
C98   H41   S    
C40   C65   S    
C120  H111  S    
C33   H27   S    
O19   C93   S    
C59   N1    A    
C104  H68   S    
C17   C85   A    
C75   O29   S    
C31   C87   A    
C30   C86   A    
C69   H55   S    
O31   C117  S    
C96   H24   S    
C36   H32   S    
C47   C55   A    
C97   H37   S    
C112  H86   S    
C100  H46   S    
C19   H101  S    
O23   C101  S    
C48   C56   A    
C113  H89   S    
C106  H72   S    
C116  H98   S    
C91   H11   S    
C25   C63   A    
C28   C68   A    
C105  H69   S    
C34   C52   A    
C101  H60   S    
C8    C10   A    
C84   C88   A    
C71   H57   S    
C54   C56   A    
C43   H33   S    
C119  C120  S    
C25   O17   S    
C118  H107  S    
C40   O10   A    
C5    C83   A    
C22   C66   A    
C80   O26   S    
C26   C64   A    
C33   C51   A    
C94   H17   S    
C46   C50   A    
C93   H15   S    
C79   C81   A    
C91   C92   S    
Cu3   O14   S    
C73   O27   S    
C114  H93   S    
C3    O7    A    
C37   H35   S    
Cu3   O6    S    
C117  H103  S    
C92   H12   S    
C19   C87   A    
C77   O23   S    
C111  H84   S    
C43   C45   A    
C97   H38   S    
C79   O25   S    
O20   C95   S    
O21   C97   S    
C70   C76   A    
C105  C106  S    
C64   H54   S    
C42   C67   S    
C99   H43   S    
C12   C64   A    
O29   C113  S    
C42   O16   A    
C36   C38   A    
C1    C30   S    
C8    C24   A    
C13   H47   S    
C23   H3    S    
C4    O4    A    
C105  H70   S    
O24   C103  S    
Cu4   O15   S    
C89   H6    S    
Cu2   O3    S    
C90   H8    S    
C4    C31   S    
C27   C67   A    
C119  H108  S    
C24   C68   A    
C38   H36   S    
C13   C17   A    
C117  C118  S    
C46   C48   A    
C78   C84   A    
C39   O9    A    
C5    C21   A    
C73   C77   A    
C98   H40   S    
C102  H61   S    
C74   C78   A    
C120  H112  S    
C71   C73   A    
C77   C83   A    
C95   H20   S    
C59   O31   S    
C103  H65   S    
C28   O20   S    
C4    O8    A    
C1    O1    A    
C51   C53   A    
Cu3   N3    S    
O30   C115  S    
C11   C63   A    
C75   C79   A    
C109  H79   S    
C89   C90   S    
C70   H56   S    
C95   H21   S    
C16   H50   S    
C1    O5    A    
C31   C71   A    
C92   H13   S    
C115  C116  S    
C28   C62   A    
