data_mof_unit_40656.cif
_audit_creation_date              2012-12-10T19:18:01-0500
_audit_creation_method            fapswitch 2.2
_symmetry_space_group_name_H-M    P1
_symmetry_Int_Tables_number       1
_space_group_crystal_system       triclinic
_cell_length_a                    24.450176
_cell_length_b                    24.423155
_cell_length_c                    22.373778
_cell_angle_alpha                 90.005134
_cell_angle_beta                  89.913785
_cell_angle_gamma                 90.00675
_cell_volume                      13360.4960657

loop_
_atom_site_label
_atom_site_type_symbol
_atom_type_description
_atom_site_fract_x
_atom_site_fract_y
_atom_site_fract_z
_atom_type_partial_charge
C1    C     C_R   0.234910 0.278108 0.243680 -0.002684
C2    C     C_R   0.235145 0.722269 0.239307 -0.024443
C3    C     C_R   0.205065 0.628361 0.254500 0.198757
C4    C     C_R   0.339424 0.175313 0.696630 0.214883
C5    C     C_R   0.629694 0.795493 0.255521 0.208958
C6    C     C_R   0.166649 0.666540 0.692475 0.215091
C7    C     C_R   0.796151 0.368744 0.267956 0.207766
C8    C     C_R   0.343582 0.818149 0.298593 0.204731
C9    C     C_R   0.639376 0.198801 0.725772 0.187869
C10   C     C_R   0.173859 0.336157 0.301472 0.197249
C11   C     C_R   0.803511 0.641633 0.719302 0.191849
C12   C     C_R   0.663635 0.172521 0.303535 0.199233
C13   C     C_R   0.733956 0.777029 0.745365 -0.025642
C14   C     C_R   0.356413 0.804705 0.716173 0.198642
C15   C     C_R   0.819470 0.656895 0.300640 0.203439
C16   C     C_R   0.200816 0.363398 0.733437 0.180870
C17   C     C_R   0.148529 0.353358 0.247918 -0.059494
C18   C     C_R   0.855532 0.651120 0.744556 -0.067550
C19   C     C_R   0.354509 0.850136 0.247221 -0.072655
C20   C     C_R   0.650588 0.144690 0.743999 -0.060638
C21   C     C_R   0.851080 0.646530 0.248773 -0.071367
C22   C     C_R   0.146033 0.350677 0.747416 -0.060493
C23   C     C_R   0.646443 0.148257 0.249410 -0.071094
C24   C     C_R   0.277986 0.236100 0.241094 0.003417
C25   C     C_R   0.348137 0.856168 0.743542 -0.059554
C26   C     C_R   0.854845 0.349861 0.746686 -0.071780
C27   C     C_R   0.150404 0.644806 0.244480 -0.060462
C28   C     C_R   0.647970 0.852788 0.748858 -0.061560
C29   C     C_R   0.355628 0.151328 0.244310 -0.067325
C30   C     C_R   0.145663 0.649266 0.748078 -0.071121
C31   C     C_R   0.848794 0.355278 0.245664 -0.067850
C32   C     C_R   0.352057 0.147393 0.750125 -0.073164
C33   C     C_R   0.645619 0.850457 0.246091 -0.059931
C34   C     C_3   0.256688 0.316450 0.103604 0.010422
C35   C     C_R   0.220190 0.736457 0.743052 -0.042365
C36   C     C_3   0.301686 0.290031 0.066510 -0.401387
C37   C     C_3   0.847939 0.836923 0.740027 0.012609
C38   C     C_3   0.889045 0.880749 0.757613 -0.361627
C39   C     C_3   0.281618 0.752389 0.100058 0.012719
C40   C     C_3   0.238598 0.712109 0.078007 -0.385507
C41   C     C_3   0.834216 0.149600 0.714676 0.010842
C42   C     C_3   0.879236 0.107412 0.723320 -0.363077
C43   C     C_3   0.755122 0.724610 0.103838 0.012542
C44   C     C_3   0.715343 0.768484 0.082733 -0.385968
C45   C     C_3   0.154362 0.166789 0.726484 0.010091
C46   C     C_R   0.765262 0.276264 0.246384 -0.024595
C47   C     C_3   0.114484 0.120231 0.738188 -0.356202
C48   C     C_3   0.709564 0.275788 0.120083 0.001452
C49   C     C_3   0.710018 0.278467 0.052234 -0.373935
C50   C     C_3   0.162416 0.852324 0.742148 0.011022
C51   C     C_3   0.118284 0.891489 0.763740 -0.356017
C52   C     C_3   0.755142 0.249206 0.876507 0.000985
C53   C     C_3   0.742072 0.199044 0.914196 -0.336354
C54   C     C_3   0.153977 0.820291 0.267865 0.009249
C55   C     C_3   0.125391 0.873454 0.251423 -0.357069
C56   C     C_3   0.732031 0.741572 0.879314 0.007177
C57   C     C_R   0.268063 0.225543 0.748775 -0.021846
C58   C     C_3   0.771408 0.728722 0.929901 -0.349013
C59   C     C_3   0.182099 0.141204 0.240485 0.012506
C60   C     C_3   0.123245 0.161277 0.242940 -0.395049
C61   C     C_3   0.256991 0.733762 0.877039 0.008830
C62   C     C_3   0.271515 0.774216 0.926147 -0.347103
C63   C     C_3   0.863209 0.182956 0.241812 0.014023
C64   C     C_3   0.848243 0.122517 0.243081 -0.382043
C65   C     C_3   0.270876 0.246142 0.889407 0.009144
C66   C     C_3   0.225577 0.283248 0.912650 -0.361126
C67   C     C_3   0.819646 0.848654 0.278237 0.006114
C68   C     C_R   0.724376 0.767044 0.243831 -0.028197
C69   C     C_3   0.875885 0.872492 0.265405 -0.360580
C70   C     C_3   0.755802 0.810368 0.605729 0.014465
C71   C     C_3   0.803240 0.781782 0.574579 -0.400719
C72   C     C_3   0.348848 0.337481 0.238748 0.008008
C73   C     C_3   0.391030 0.380492 0.255694 -0.362234
C74   C     C_3   0.784785 0.252060 0.598173 0.014918
C75   C     C_3   0.742235 0.212713 0.573292 -0.379409
C76   C     C_3   0.333760 0.650165 0.214355 0.011878
C77   C     C_3   0.378953 0.608046 0.222283 -0.362760
C78   C     C_3   0.240534 0.229146 0.616167 -0.002560
C79   C     C_1   0.999949 0.499964 0.473302 -0.043224
C80   C     C_3   0.245980 0.237901 0.549246 -0.356745
C81   C     C_3   0.653534 0.667365 0.216838 0.011230
C82   C     C_3   0.612177 0.621413 0.224583 -0.362192
C83   C     C_3   0.206467 0.775219 0.615395 0.003060
C84   C     C_3   0.206622 0.776908 0.547532 -0.375777
C85   C     C_3   0.663527 0.348330 0.250049 0.008656
C86   C     C_3   0.619451 0.386843 0.273129 -0.353854
C87   C     C_3   0.257023 0.747564 0.377998 0.001498
C88   C     C_3   0.244545 0.696273 0.414106 -0.336027
C89   C     C_3   0.654233 0.320510 0.763207 0.009518
C90   C     C_1   0.000015 0.499958 0.526713 -0.051775
C91   C     C_3   0.626252 0.373593 0.745284 -0.355860
C92   C     C_3   0.218831 0.239849 0.379217 0.006669
C93   C     C_3   0.261630 0.197466 0.396467 -0.368123
C94   C     C_3   0.678167 0.651838 0.743628 0.001192
C95   C     C_3   0.625106 0.631688 0.715961 -0.365187
C96   C     C_3   0.759242 0.215722 0.383020 0.008918
C97   C     C_3   0.797618 0.258390 0.409364 -0.363417
C98   C     C_3   0.345361 0.679224 0.740791 0.006050
C99   C     C_3   0.366198 0.626518 0.712682 -0.359980
C100  C     C_3   0.752435 0.744205 0.382211 0.010238
C101  C     C_1   0.499930 0.999993 0.473303 -0.043909
C102  C     C_3   0.715070 0.743803 0.436597 -0.345113
C103  C     C_3   0.316594 0.365510 0.775857 0.013071
C104  C     C_3   0.376033 0.349608 0.785775 -0.385165
C105  C     C_3   0.108351 0.309220 0.115666 0.009549
C106  C     C_3   0.088554 0.327668 0.054470 -0.373269
C107  C     C_3   0.956504 0.728622 0.737431 0.013146
C108  C     C_3   0.011881 0.746494 0.761551 -0.335188
C109  C     C_3   0.385378 0.848759 0.113202 0.004471
C110  C     C_3   0.390132 0.874665 0.051591 -0.352531
C111  C     C_3   0.724605 0.042512 0.720715 0.018145
C112  C     C_R   0.777229 0.735251 0.742574 -0.017720
C113  C     C_1   0.499916 0.999984 0.526709 -0.048155
C114  C     C_3   0.744880 0.986147 0.739471 -0.340128
C115  C     C_3   0.849863 0.619624 0.113724 0.004352
C116  C     C_3   0.876152 0.616222 0.052179 -0.351654
C117  C     C_3   0.046628 0.275472 0.720878 0.011125
C118  C     C_3   0.989391 0.255713 0.736823 -0.339219
C119  C     C_3   0.603783 0.166247 0.119911 0.010018
C120  C     C_3   0.589920 0.142093 0.059141 -0.354335
C121  C     C_3   0.271944 0.958804 0.742404 0.011164
C122  C     C_3   0.254376 0.013145 0.769637 -0.327039
C123  C     C_3   0.844945 0.370257 0.882638 0.021513
C124  C     C_1   0.499946 0.999993 0.973301 -0.044348
C125  C     C_3   0.862803 0.368664 0.947740 -0.362293
C126  C     C_3   0.078230 0.721063 0.154351 0.016212
C127  C     C_3   0.017760 0.729617 0.141428 -0.332415
C128  C     C_3   0.613649 0.837826 0.879716 0.015994
C129  C     C_3   0.610910 0.848545 0.946631 -0.360000
C130  C     C_3   0.292615 0.090749 0.135377 0.013706
C131  C     C_3   0.286750 0.032398 0.112444 -0.334958
C132  C     C_3   0.163772 0.614599 0.878108 0.017238
C133  C     C_3   0.155775 0.612105 0.945496 -0.364216
C134  C     C_3   0.898203 0.295971 0.128611 0.022000
C135  C     C_1   0.500012 0.999985 0.026712 -0.051435
C136  C     C_3   0.953301 0.295525 0.097238 -0.371622
C137  C     C_3   0.379904 0.155029 0.883797 0.016347
C138  C     C_3   0.384813 0.132588 0.947003 -0.361289
C139  C     C_3   0.724848 0.925334 0.161116 0.019911
C140  C     C_3   0.734848 0.985974 0.150031 -0.341337
C141  C     C_3   0.603481 0.803795 0.620696 0.012900
C142  C     C_3   0.582121 0.819522 0.559234 -0.370872
C143  C     C_3   0.456990 0.228526 0.236242 0.014470
C144  C     C_3   0.512405 0.246511 0.260168 -0.338894
C145  C     C_3   0.888352 0.347864 0.613688 0.003330
C146  C     C_1   0.999935 0.499997 0.973303 -0.042199
C147  C     C_3   0.894202 0.373030 0.551817 -0.351950
C148  C     C_3   0.224071 0.543120 0.218596 0.018565
C149  C     C_3   0.244443 0.486412 0.235945 -0.342595
C150  C     C_3   0.347290 0.121816 0.613532 0.009085
C151  C     C_3   0.377450 0.115429 0.554438 -0.349889
C152  C     C_3   0.545924 0.776472 0.215987 0.011814
C153  C     C_3   0.488472 0.756633 0.230854 -0.342327
C154  C     C_3   0.103998 0.662540 0.617283 0.012055
C155  C     C_3   0.092268 0.637593 0.556356 -0.353009
C156  C     C_3   0.770912 0.456359 0.246297 0.007372
C157  C     C_1   0.999924 0.499991 0.026709 -0.047773
C158  C     C_3   0.753974 0.510859 0.273595 -0.322625
C159  C     C_3   0.344824 0.870574 0.382959 0.020454
C160  C     C_3   0.364356 0.870750 0.447476 -0.363059
C161  C     C_3   0.579094 0.219397 0.651616 0.016642
C162  C     C_3   0.518678 0.227610 0.638135 -0.331231
C163  C     C_3   0.110527 0.332585 0.376561 0.009565
C164  C     C_3   0.100456 0.348759 0.441303 -0.360532
C165  C     C_3   0.794516 0.591702 0.634105 0.020459
C166  C     C_3   0.788764 0.533745 0.609990 -0.333343
C167  C     C_3   0.666505 0.107413 0.376913 0.011684
C168  C     C_R   0.999951 0.499996 0.090020 0.496297
C169  C     C_3   0.652096 0.097349 0.442167 -0.363532
C170  C     C_3   0.403591 0.782155 0.630003 0.022862
C171  C     C_3   0.432308 0.828201 0.596544 -0.372183
C172  C     C_3   0.872226 0.651393 0.384862 0.024255
C173  C     C_3   0.866429 0.637465 0.450858 -0.363242
C174  C     C_3   0.224696 0.422957 0.659615 0.011783
C175  C     C_3   0.233783 0.483217 0.645523 -0.343318
C176  C     C_R   0.999981 0.500000 0.909985 0.496233
C177  C     C_R   0.500019 0.999981 0.090035 0.486543
C178  C     C_R   0.499970 0.000001 0.909972 0.493807
C179  C     C_R   0.499945 0.999994 0.590020 0.496103
C180  C     C_R   0.277914 0.764661 0.241744 -0.034514
C181  C     C_R   0.499981 1.000000 0.409986 0.495394
C182  C     C_R   0.000020 0.499973 0.590035 0.486188
C183  C     C_R   0.999971 0.499984 0.409972 0.494076
C184  C     C_R   0.105596 0.604890 0.249277 0.542470
C185  C     C_R   0.895031 0.394507 0.749720 0.510626
C186  C     C_R   0.605008 0.894574 0.249566 0.542321
C187  C     C_R   0.394829 0.105257 0.750143 0.514178
C188  C     C_R   0.893975 0.395321 0.249037 0.531668
C189  C     C_R   0.105101 0.605221 0.750022 0.516976
C190  C     C_R   0.395291 0.105947 0.249032 0.535877
C191  C     C_R   0.735587 0.221890 0.737532 -0.024697
C192  C     C_R   0.605298 0.894929 0.749697 0.538265
C193  C     C_R   0.895315 0.605918 0.749037 0.533358
C194  C     C_R   0.105473 0.395116 0.249404 0.542754
C195  C     C_R   0.393932 0.895368 0.748822 0.534235
C196  C     C_R   0.605075 0.105130 0.250067 0.519765
C197  C     C_R   0.105035 0.394565 0.749687 0.541790
C198  C     C_R   0.894723 0.605217 0.250063 0.510507
C199  C     C_R   0.605635 0.104891 0.749214 0.541890
C200  C     C_R   0.394985 0.894548 0.249786 0.510644
C201  C     C_R   0.210515 0.295833 0.190331 0.239308
C202  C     C_R   0.767026 0.724681 0.245749 -0.032965
C203  C     C_R   0.830814 0.746583 0.762516 0.252376
C204  C     C_R   0.288409 0.796715 0.190637 0.262600
C205  C     C_R   0.747713 0.166575 0.750588 0.244736
C206  C     C_R   0.798947 0.715104 0.194331 0.262994
C207  C     C_R   0.170255 0.254513 0.759438 0.243527
C208  C     C_R   0.705504 0.209391 0.193012 0.258043
C209  C     C_R   0.252543 0.832457 0.762208 0.246173
C210  C     C_R   0.806167 0.274514 0.794490 0.239176
C211  C     C_R   0.180727 0.738381 0.228300 0.235151
C212  C     C_R   0.717817 0.799795 0.800586 0.236529
C213  C     C_R   0.225529 0.268017 0.748587 -0.021034
C214  C     C_R   0.264001 0.183601 0.220478 0.243952
C215  C     C_R   0.198188 0.720088 0.798674 0.242846
C216  C     C_R   0.817124 0.263002 0.223648 0.234358
C217  C     C_R   0.280094 0.197461 0.802042 0.256654
C218  C     C_R   0.740090 0.821820 0.234118 0.235201
C219  C     C_R   0.708014 0.792868 0.692131 0.244592
C220  C     C_R   0.331535 0.247178 0.261161 0.253854
C221  C     C_R   0.789687 0.296038 0.689147 0.261510
C222  C     C_R   0.247486 0.666777 0.251116 0.242857
C223  C     C_R   0.297902 0.214612 0.696025 0.257517
C224  C     C_R   0.722824 0.233640 0.247176 -0.026175
C225  C     C_R   0.668886 0.753738 0.253939 0.248649
C226  C     C_R   0.203632 0.710086 0.689763 0.260736
C227  C     C_R   0.754307 0.329556 0.267685 0.245459
C228  C     C_R   0.306579 0.774509 0.295446 0.238466
C229  C     C_R   0.681289 0.237882 0.725706 0.233872
C230  C     C_R   0.217172 0.298610 0.299117 0.251498
C231  C     C_R   0.763760 0.682737 0.721091 0.237924
C232  C     C_R   0.701391 0.215624 0.302213 0.255388
C233  C     C_R   0.314879 0.765094 0.718611 0.219104
C234  C     C_R   0.776697 0.694952 0.298773 0.239464
C235  C     C_R   0.262817 0.779000 0.740896 -0.041980
C236  C     C_R   0.240946 0.322452 0.737217 0.237090
C237  C     C_R   0.165473 0.331594 0.192481 0.185074
C238  C     C_R   0.869755 0.704538 0.763706 0.207740
C239  C     C_R   0.327802 0.838200 0.192746 0.212298
C240  C     C_R   0.705176 0.128326 0.754633 0.199631
C241  C     C_R   0.839777 0.675023 0.195187 0.208548
C242  C     C_R   0.130632 0.295876 0.759177 0.206290
C243  C     C_R   0.667348 0.166837 0.194305 0.213944
C244  C     C_R   0.295207 0.870665 0.764077 0.205455
C245  C     C_R   0.843340 0.318000 0.797990 0.203553
C246  C     C_R   0.778326 0.264344 0.740319 -0.034807
C247  C     C_R   0.138931 0.699210 0.227652 0.188723
C248  C     C_R   0.674868 0.837713 0.802306 0.203283
C249  C     C_R   0.303388 0.141865 0.219499 0.182882
C250  C     C_R   0.161236 0.676362 0.801185 0.203633
C251  C     C_R   0.857564 0.303484 0.219389 0.181964
C252  C     C_R   0.322762 0.159201 0.803209 0.196244
C253  C     C_R   0.700398 0.863047 0.232044 0.186787
C254  C     C_R   0.663243 0.828703 0.694031 0.187688
C255  C     C_R   0.370217 0.204871 0.262772 0.208702
C256  C     C_R   0.829033 0.337575 0.691762 0.212954
H1    H     H_    0.275850 0.348486 0.132292 0.092766
H2    H     H_    0.876613 0.900061 0.800480 0.178819
H3    H     H_    0.403350 0.617745 0.262767 0.174104
H4    H     H_    0.206508 0.255345 0.632360 0.106172
H5    H     H_    0.229615 0.185365 0.623657 0.072433
H6    H     H_    0.254403 0.281696 0.539512 0.174037
H7    H     H_    0.207389 0.225746 0.526780 0.066331
H8    H     H_    0.280003 0.212513 0.531587 0.159349
H9    H     H_    0.694564 0.648430 0.211875 0.117503
H10   H     H_    0.643128 0.689893 0.175001 0.082918
H11   H     H_    0.570414 0.638735 0.229546 0.155551
H12   H     H_    0.613065 0.594186 0.184840 0.070178
H13   H     H_    0.316149 0.728629 0.119575 0.064038
H14   H     H_    0.622252 0.596902 0.264914 0.170326
H15   H     H_    0.234231 0.808012 0.631428 0.110248
H16   H     H_    0.164003 0.784170 0.630777 0.073967
H17   H     H_    0.248363 0.768265 0.530282 0.157046
H18   H     H_    0.193700 0.818055 0.531865 0.072260
H19   H     H_    0.177635 0.745914 0.529918 0.149902
H20   H     H_    0.644088 0.308007 0.241568 0.117394
H21   H     H_    0.679150 0.365184 0.206992 0.068766
H22   H     H_    0.637188 0.427963 0.281707 0.156431
H23   H     H_    0.586378 0.390705 0.239422 0.072412
H24   H     H_    0.297763 0.775197 0.060941 0.149573
H25   H     H_    0.601725 0.370551 0.315268 0.176798
H26   H     H_    0.220123 0.757129 0.351125 0.082766
H27   H     H_    0.264710 0.781767 0.409527 0.123977
H28   H     H_    0.278301 0.687971 0.446005 0.173410
H29   H     H_    0.205872 0.701788 0.439353 0.077479
H30   H     H_    0.239751 0.660573 0.383839 0.204795
H31   H     H_    0.691434 0.331103 0.789242 0.099837
H32   H     H_    0.625355 0.296912 0.792027 0.137050
H33   H     H_    0.588666 0.364488 0.719278 0.162726
H34   H     H_    0.614851 0.397159 0.785880 0.077082
H35   H     H_    0.223762 0.686384 0.115563 0.121998
H36   H     H_    0.654318 0.398781 0.717513 0.173099
H37   H     H_    0.186906 0.219079 0.351734 0.081450
H38   H     H_    0.198855 0.254920 0.420636 0.147064
H39   H     H_    0.295146 0.217148 0.422093 0.185069
H40   H     H_    0.242550 0.165082 0.424401 0.074825
H41   H     H_    0.279093 0.178164 0.355836 0.141111
H42   H     H_    0.667854 0.684968 0.775777 0.091939
H43   H     H_    0.697434 0.616956 0.767902 0.145888
H44   H     H_    0.633755 0.598211 0.683694 0.166270
H45   H     H_    0.597496 0.615957 0.751477 0.082881
H46   H     H_    0.256604 0.685031 0.043299 0.078809
H47   H     H_    0.604404 0.665839 0.692238 0.148259
H48   H     H_    0.783605 0.188671 0.352848 0.086144
H49   H     H_    0.743082 0.190485 0.420319 0.144535
H50   H     H_    0.774864 0.285576 0.440480 0.181609
H51   H     H_    0.830977 0.237778 0.434368 0.066464
H52   H     H_    0.815912 0.283468 0.373093 0.156868
H53   H     H_    0.312330 0.668306 0.772811 0.099249
H54   H     H_    0.379952 0.698769 0.765259 0.137689
H55   H     H_    0.399521 0.635794 0.680437 0.157762
H56   H     H_    0.382282 0.598921 0.747963 0.078943
H57   H     H_    0.203410 0.734533 0.058427 0.167886
H58   H     H_    0.332377 0.605425 0.688859 0.170026
H59   H     H_    0.744346 0.782692 0.357454 0.102863
H60   H     H_    0.795474 0.744177 0.397994 0.103959
H61   H     H_    0.723037 0.706790 0.464077 0.162380
H62   H     H_    0.722571 0.780879 0.464104 0.078250
H63   H     H_    0.671612 0.743742 0.422183 0.187726
H64   H     H_    0.294113 0.359010 0.818749 0.104421
H65   H     H_    0.314941 0.409772 0.764538 0.172413
H66   H     H_    0.400318 0.357948 0.744781 0.170494
H67   H     H_    0.393285 0.373700 0.823381 0.080914
H68   H     H_    0.854001 0.190251 0.709641 0.122113
H69   H     H_    0.378887 0.305319 0.796670 0.143569
H70   H     H_    0.072284 0.302146 0.145044 0.143948
H71   H     H_    0.130374 0.269720 0.109682 0.180170
H72   H     H_    0.124068 0.334486 0.024353 0.153364
H73   H     H_    0.061894 0.295708 0.034601 0.104444
H74   H     H_    0.065017 0.366384 0.058566 0.177605
H75   H     H_    0.939933 0.762614 0.709725 0.104932
H76   H     H_    0.962847 0.692130 0.708427 0.102016
H77   H     H_    0.029272 0.714042 0.790565 0.213369
H78   H     H_    0.040541 0.754233 0.723912 0.049449
H79   H     H_    0.811959 0.139220 0.672663 0.083365
H80   H     H_    0.007349 0.784673 0.788065 0.158805
H81   H     H_    0.384510 0.803471 0.107559 0.082251
H82   H     H_    0.422547 0.859725 0.139124 0.123688
H83   H     H_    0.391497 0.919964 0.055645 0.182516
H84   H     H_    0.428156 0.860397 0.029291 0.079209
H85   H     H_    0.354437 0.862904 0.023749 0.154205
H86   H     H_    0.755327 0.060419 0.689593 0.107055
H87   H     H_    0.685198 0.037364 0.696531 0.113967
H88   H     H_    0.715636 0.967181 0.771307 0.206320
H89   H     H_    0.748809 0.959277 0.699639 0.069878
H90   H     H_    0.861116 0.065964 0.728363 0.152069
H91   H     H_    0.785466 0.989723 0.761357 0.154911
H92   H     H_    0.804699 0.621341 0.107814 0.080910
H93   H     H_    0.860017 0.581513 0.138471 0.123302
H94   H     H_    0.921327 0.613743 0.056543 0.183685
H95   H     H_    0.861280 0.579182 0.028433 0.079462
H96   H     H_    0.865402 0.653040 0.025528 0.155316
H97   H     H_    0.065620 0.244510 0.690893 0.102393
H98   H     H_    0.042781 0.314808 0.696161 0.101189
H99   H     H_    0.969367 0.285247 0.767542 0.209274
H100  H     H_    0.964290 0.251959 0.695686 0.047729
H101  H     H_    0.906927 0.107501 0.683932 0.071955
H102  H     H_    0.991621 0.215099 0.759012 0.161422
H103  H     H_    0.608365 0.211276 0.114540 0.109656
H104  H     H_    0.568969 0.158010 0.150719 0.105202
H105  H     H_    0.584774 0.097060 0.062869 0.182407
H106  H     H_    0.551241 0.160227 0.042323 0.070783
H107  H     H_    0.623255 0.151063 0.026805 0.158882
H108  H     H_    0.237746 0.943536 0.714223 0.102583
H109  H     H_    0.308160 0.966297 0.713343 0.105576
H110  H     H_    0.286945 0.029102 0.799415 0.221662
H111  H     H_    0.246606 0.043512 0.733677 0.057629
H112  H     H_    0.227359 0.336537 0.072721 0.174429
H113  H     H_    0.903413 0.117352 0.763893 0.173746
H114  H     H_    0.216319 0.007529 0.796093 0.158533
H115  H     H_    0.799446 0.367704 0.881301 0.082501
H116  H     H_    0.857489 0.410319 0.863500 0.134805
H117  H     H_    0.843447 0.402874 0.972701 0.072085
H118  H     H_    0.850224 0.329285 0.968472 0.148960
H119  H     H_    0.907963 0.372827 0.950768 0.175525
H120  H     H_    0.091911 0.683694 0.129849 0.124651
H121  H     H_    0.101081 0.757096 0.136972 0.180498
H122  H     H_    0.002864 0.767008 0.164559 0.156070
H123  H     H_    0.011411 0.734439 0.092577 0.108445
H124  H     H_    0.730978 0.689785 0.122287 0.063680
H125  H     H_    0.993843 0.693765 0.157225 0.217775
H126  H     H_    0.612047 0.792677 0.872518 0.080201
H127  H     H_    0.576924 0.856421 0.858762 0.131975
H128  H     H_    0.573092 0.830150 0.965469 0.072897
H129  H     H_    0.646956 0.830066 0.969080 0.152224
H130  H     H_    0.610450 0.893327 0.955332 0.175909
H131  H     H_    0.332813 0.106903 0.119582 0.119471
H132  H     H_    0.259194 0.115911 0.115818 0.174416
H133  H     H_    0.246703 0.015194 0.126528 0.160948
H134  H     H_    0.289112 0.032084 0.062873 0.101245
H135  H     H_    0.778023 0.709242 0.064414 0.150456
H136  H     H_    0.320117 0.006383 0.130537 0.211910
H137  H     H_    0.208549 0.613104 0.868646 0.083117
H138  H     H_    0.144488 0.577673 0.858259 0.139278
H139  H     H_    0.175232 0.574517 0.963557 0.080114
H140  H     H_    0.174759 0.648468 0.966895 0.150661
H141  H     H_    0.111438 0.611286 0.956392 0.173421
H142  H     H_    0.877117 0.334948 0.116415 0.106975
H143  H     H_    0.873733 0.260763 0.111868 0.179573
H144  H     H_    0.975752 0.257261 0.108038 0.145738
H145  H     H_    0.947338 0.297985 0.048111 0.099599
H146  H     H_    0.738129 0.803984 0.064188 0.168260
H147  H     H_    0.977764 0.331333 0.111997 0.185053
H148  H     H_    0.377143 0.200479 0.886491 0.085694
H149  H     H_    0.417871 0.144219 0.859136 0.133892
H150  H     H_    0.421410 0.150254 0.969140 0.075375
H151  H     H_    0.347888 0.143495 0.973422 0.144155
H152  H     H_    0.389027 0.087318 0.945731 0.182648
H153  H     H_    0.688494 0.912620 0.134445 0.128131
H154  H     H_    0.761271 0.902304 0.145091 0.181210
H155  H     H_    0.771333 0.999850 0.175393 0.148314
H156  H     H_    0.741952 0.993213 0.101641 0.110916
H157  H     H_    0.689500 0.782617 0.120508 0.120151
H158  H     H_    0.698734 0.010151 0.164528 0.210204
H159  H     H_    0.568115 0.799020 0.651642 0.144061
H160  H     H_    0.624569 0.763583 0.616396 0.174717
H161  H     H_    0.616634 0.822253 0.527022 0.154204
H162  H     H_    0.552728 0.788104 0.543283 0.098347
H163  H     H_    0.561101 0.859790 0.561391 0.177848
H164  H     H_    0.440402 0.262375 0.208322 0.104871
H165  H     H_    0.463273 0.191855 0.207492 0.101815
H166  H     H_    0.507901 0.284739 0.286602 0.158264
H167  H     H_    0.529907 0.214143 0.289213 0.209694
H168  H     H_    0.688360 0.751472 0.047431 0.079156
H169  H     H_    0.540967 0.254210 0.222433 0.047469
H170  H     H_    0.888064 0.302491 0.608748 0.080943
H171  H     H_    0.924849 0.359543 0.640358 0.123554
H172  H     H_    0.894975 0.418386 0.555199 0.183405
H173  H     H_    0.932867 0.358911 0.530756 0.078267
H174  H     H_    0.859280 0.360528 0.523207 0.155190
H175  H     H_    0.254492 0.561509 0.187461 0.106789
H176  H     H_    0.184409 0.538434 0.194806 0.114202
H177  H     H_    0.215481 0.466940 0.267723 0.202604
H178  H     H_    0.247932 0.460229 0.195522 0.072129
H179  H     H_    0.195558 0.148601 0.720078 0.112223
H180  H     H_    0.285248 0.489548 0.257420 0.153917
H181  H     H_    0.303200 0.128006 0.603581 0.106656
H182  H     H_    0.352040 0.083178 0.639359 0.108232
H183  H     H_    0.421809 0.109374 0.562615 0.185091
H184  H     H_    0.361279 0.079421 0.529834 0.077426
H185  H     H_    0.371695 0.152643 0.526619 0.161682
H186  H     H_    0.565047 0.746070 0.185387 0.105901
H187  H     H_    0.542477 0.816387 0.192310 0.100853
H188  H     H_    0.490344 0.715576 0.252091 0.161732
H189  H     H_    0.468291 0.785626 0.262058 0.206211
H190  H     H_    0.141688 0.187568 0.684372 0.071584
H191  H     H_    0.463729 0.753804 0.189374 0.046887
H192  H     H_    0.107407 0.707657 0.611607 0.109002
H193  H     H_    0.068753 0.653538 0.647233 0.106567
H194  H     H_    0.088537 0.592439 0.560275 0.183817
H195  H     H_    0.053403 0.654346 0.538392 0.071818
H196  H     H_    0.125996 0.647461 0.524833 0.158460
H197  H     H_    0.735953 0.440703 0.219563 0.101910
H198  H     H_    0.806160 0.463767 0.215821 0.105028
H199  H     H_    0.787430 0.527180 0.301921 0.225968
H200  H     H_    0.744922 0.540877 0.237645 0.062910
H201  H     H_    0.072560 0.136786 0.744501 0.157752
H202  H     H_    0.716821 0.505318 0.301563 0.160608
H203  H     H_    0.299419 0.866503 0.383108 0.083669
H204  H     H_    0.355596 0.910663 0.362606 0.132623
H205  H     H_    0.344665 0.904864 0.472279 0.072258
H206  H     H_    0.353410 0.831436 0.469417 0.150459
H207  H     H_    0.409434 0.876264 0.448993 0.176786
H208  H     H_    0.592942 0.181591 0.628041 0.124610
H209  H     H_    0.601989 0.255127 0.633576 0.181108
H210  H     H_    0.503609 0.265396 0.660347 0.158837
H211  H     H_    0.512575 0.231519 0.589149 0.108657
H212  H     H_    0.114402 0.091620 0.699608 0.069761
H213  H     H_    0.494728 0.192018 0.654568 0.216940
H214  H     H_    0.113250 0.287120 0.374256 0.086214
H215  H     H_    0.074694 0.346061 0.349862 0.124696
H216  H     H_    0.096119 0.393919 0.444899 0.178975
H217  H     H_    0.062313 0.329180 0.457786 0.073353
H218  H     H_    0.135198 0.335160 0.469586 0.146739
H219  H     H_    0.835167 0.607788 0.619686 0.114428
H220  H     H_    0.761767 0.617400 0.614021 0.174093
H221  H     H_    0.748256 0.516667 0.622599 0.163909
H222  H     H_    0.792333 0.534147 0.560501 0.096667
H223  H     H_    0.332257 0.270522 0.096379 0.132646
H224  H     H_    0.126794 0.097415 0.778955 0.170750
H225  H     H_    0.821477 0.507198 0.628583 0.210934
H226  H     H_    0.711904 0.108840 0.372768 0.087088
H227  H     H_    0.651200 0.072091 0.350513 0.134450
H228  H     H_    0.671319 0.058681 0.457630 0.082210
H229  H     H_    0.667224 0.131670 0.470217 0.145244
H230  H     H_    0.607034 0.093934 0.447418 0.177544
H231  H     H_    0.361147 0.778420 0.612091 0.151986
H232  H     H_    0.424908 0.743136 0.619621 0.154635
H233  H     H_    0.473862 0.834600 0.615089 0.190897
H234  H     H_    0.435907 0.817553 0.548462 0.088390
H235  H     H_    0.737573 0.308050 0.136891 0.105991
H236  H     H_    0.408461 0.866703 0.600785 0.149538
H237  H     H_    0.874449 0.696824 0.380579 0.082385
H238  H     H_    0.911491 0.634026 0.368572 0.143115
H239  H     H_    0.901359 0.654874 0.476210 0.074315
H240  H     H_    0.827763 0.654907 0.468739 0.149053
H241  H     H_    0.866013 0.592330 0.457003 0.173390
H242  H     H_    0.188667 0.408573 0.633427 0.130826
H243  H     H_    0.261586 0.399823 0.645078 0.178704
H244  H     H_    0.269870 0.498760 0.670408 0.143051
H245  H     H_    0.241093 0.488499 0.596869 0.110944
H246  H     H_    0.667149 0.284972 0.135464 0.074380
H247  H     H_    0.197176 0.507386 0.658517 0.211818
H248  H     H_    0.751793 0.269933 0.035000 0.155550
H249  H     H_    0.697283 0.319876 0.037221 0.071980
H250  H     H_    0.681042 0.247800 0.033918 0.152213
H251  H     H_    0.142760 0.812097 0.733743 0.120470
H252  H     H_    0.179087 0.868644 0.699302 0.069252
H253  H     H_    0.136254 0.932518 0.772264 0.154683
H254  H     H_    0.085926 0.895348 0.729215 0.072167
H255  H     H_    0.284000 0.258273 0.036747 0.157184
H256  H     H_    0.099572 0.875785 0.805638 0.176040
H257  H     H_    0.718586 0.258067 0.848796 0.083353
H258  H     H_    0.762565 0.284240 0.906994 0.123212
H259  H     H_    0.775717 0.191206 0.946373 0.173974
H260  H     H_    0.703466 0.205727 0.939260 0.076197
H261  H     H_    0.736885 0.162632 0.885024 0.203276
H262  H     H_    0.191470 0.830725 0.293470 0.099749
H263  H     H_    0.125660 0.796041 0.296710 0.136249
H264  H     H_    0.087508 0.864501 0.225872 0.162613
H265  H     H_    0.114399 0.896290 0.292646 0.076472
H266  H     H_    0.322410 0.321518 0.038749 0.082521
H267  H     H_    0.152896 0.899275 0.223675 0.171262
H268  H     H_    0.733107 0.706431 0.847843 0.089632
H269  H     H_    0.690272 0.745503 0.898365 0.116670
H270  H     H_    0.772114 0.763091 0.962357 0.170181
H271  H     H_    0.758255 0.690799 0.953226 0.060962
H272  H     H_    0.813284 0.722544 0.911778 0.187936
H273  H     H_    0.198765 0.142005 0.286905 0.104181
H274  H     H_    0.182270 0.098092 0.224612 0.174741
H275  H     H_    0.104467 0.158882 0.197838 0.161868
H276  H     H_    0.099228 0.135507 0.274323 0.087665
H277  H     H_    0.807533 0.857068 0.734904 0.129839
H278  H     H_    0.122100 0.204445 0.258595 0.132420
H279  H     H_    0.291691 0.733099 0.844991 0.090247
H280  H     H_    0.252328 0.692625 0.897454 0.119241
H281  H     H_    0.237910 0.776325 0.959486 0.171305
H282  H     H_    0.309655 0.760984 0.948825 0.060430
H283  H     H_    0.278025 0.815556 0.906685 0.191447
H284  H     H_    0.861891 0.198464 0.288753 0.098181
H285  H     H_    0.905720 0.187135 0.224780 0.173040
H286  H     H_    0.850923 0.104978 0.197365 0.172156
H287  H     H_    0.876784 0.100050 0.272841 0.082625
H288  H     H_    0.860884 0.819690 0.696063 0.083655
H289  H     H_    0.805843 0.117399 0.260148 0.144237
H290  H     H_    0.302150 0.272281 0.866915 0.086866
H291  H     H_    0.290520 0.226061 0.928346 0.144456
H292  H     H_    0.194635 0.258759 0.937327 0.182565
H293  H     H_    0.243045 0.314391 0.943330 0.074866
H294  H     H_    0.205408 0.304641 0.874879 0.155325
H295  H     H_    0.825203 0.811352 0.306018 0.094874
H296  H     H_    0.795679 0.879694 0.303783 0.142185
H297  H     H_    0.871868 0.910156 0.237930 0.160888
H298  H     H_    0.896552 0.882987 0.308057 0.077245
H299  H     H_    0.930274 0.862293 0.762835 0.153032
H300  H     H_    0.901234 0.842143 0.240854 0.168320
H301  H     H_    0.773037 0.843990 0.633761 0.091380
H302  H     H_    0.728922 0.829006 0.571296 0.167352
H303  H     H_    0.831240 0.763760 0.608306 0.129679
H304  H     H_    0.787780 0.748457 0.545409 0.153502
H305  H     H_    0.826293 0.811640 0.546868 0.082980
H306  H     H_    0.308747 0.358392 0.234423 0.127351
H307  H     H_    0.360782 0.320107 0.194473 0.085858
H308  H     H_    0.431978 0.361265 0.260161 0.152893
H309  H     H_    0.392937 0.412548 0.220549 0.074079
H310  H     H_    0.890864 0.912783 0.722438 0.073400
H311  H     H_    0.379599 0.399959 0.298807 0.178056
H312  H     H_    0.818203 0.227485 0.618767 0.063407
H313  H     H_    0.802545 0.275375 0.560224 0.150630
H314  H     H_    0.724346 0.187827 0.609960 0.124372
H315  H     H_    0.761673 0.184804 0.540336 0.074585
H316  H     H_    0.709082 0.235901 0.550742 0.176406
H317  H     H_    0.353393 0.690909 0.209507 0.122208
H318  H     H_    0.311267 0.640014 0.172436 0.083734
H319  H     H_    0.360978 0.566509 0.227077 0.152427
H320  H     H_    0.406402 0.608517 0.182696 0.071766
O1    O     O_3   1.000000 0.500000 0.250000 -0.453217
O2    O     O_R   0.000000 0.454540 0.882020 -0.536628
O3    O     O_3   0.716273 0.916831 0.222918 -0.536301
O4    O     O_3   0.638921 0.845433 0.641257 -0.545120
O5    O     O_3   0.421907 0.216263 0.284744 -0.485490
O6    O     O_3   0.839771 0.367630 0.640575 -0.504127
O7    O     O_3   0.217549 0.575101 0.270782 -0.494234
O8    O     O_3   0.369514 0.166791 0.644973 -0.502378
O9    O     O_3   0.576116 0.782106 0.269479 -0.488444
O10   O     O_3   0.152791 0.639693 0.640125 -0.500788
O11   O     O_3   0.785297 0.419645 0.292558 -0.485664
O12   O     O_3   0.370773 0.827278 0.351910 -0.495589
O13   O     O_R   0.545460 0.000000 0.117980 -0.545654
O14   O     O_3   0.586191 0.215058 0.714142 -0.533150
O15   O     O_3   0.159058 0.358100 0.356248 -0.500931
O16   O     O_3   0.789643 0.590598 0.697084 -0.523310
O17   O     O_3   0.641639 0.156758 0.357989 -0.504934
O18   O     O_3   0.407136 0.791103 0.692592 -0.532789
O19   O     O_3   0.827872 0.628096 0.353165 -0.506217
O20   O     O_3   0.215901 0.416968 0.721709 -0.548038
O21   O     O_R   0.454540 0.000000 0.882020 -0.538575
O22   O     O_R   0.500000 0.954540 0.617980 -0.553111
O23   O     O_R   0.500000 0.045460 0.382020 -0.531390
O24   O     O_R   0.954540 0.500000 0.617980 -0.555848
O25   O     O_R   0.045460 0.500000 0.382020 -0.533758
O26   O     O_R   0.500000 0.045460 0.617980 -0.552903
O27   O     O_R   0.500000 0.954540 0.382020 -0.536682
O28   O     O_R   0.045460 0.500000 0.617980 -0.546732
O29   O     O_3   0.000000 0.500000 0.750000 -0.454361
O30   O     O_R   0.954540 0.500000 0.382020 -0.535629
O31   O     O_R   0.063990 0.609470 0.215390 -0.526249
O32   O     O_R   0.936010 0.390530 0.784610 -0.519682
O33   O     O_R   0.609470 0.936010 0.215390 -0.529392
O34   O     O_R   0.390530 0.063990 0.784610 -0.523880
O35   O     O_R   0.936010 0.390530 0.215390 -0.514759
O36   O     O_R   0.063990 0.609470 0.784610 -0.525262
O37   O     O_R   0.390530 0.063990 0.215390 -0.516847
O38   O     O_R   0.609470 0.936010 0.784610 -0.516014
O39   O     O_R   0.936010 0.609470 0.784610 -0.504013
O40   O     O_3   0.500000 0.000000 0.250000 -0.454456
O41   O     O_R   0.063990 0.390530 0.215390 -0.525173
O42   O     O_R   0.390530 0.936010 0.784610 -0.505822
O43   O     O_R   0.609470 0.063990 0.215390 -0.518602
O44   O     O_R   0.063990 0.390530 0.784610 -0.502945
O45   O     O_R   0.936010 0.609470 0.215390 -0.517011
O46   O     O_R   0.609470 0.063990 0.784610 -0.502114
O47   O     O_R   0.390530 0.936010 0.215390 -0.510846
O48   O     O_R   0.563990 0.109470 0.715390 -0.525775
O49   O     O_R   0.436010 0.890530 0.284610 -0.517242
O50   O     O_R   0.109470 0.436010 0.715390 -0.525304
O51   O     O_3   0.500000 0.000000 0.750000 -0.452531
O52   O     O_R   0.890530 0.563990 0.284610 -0.527370
O53   O     O_R   0.436010 0.890530 0.715390 -0.517624
O54   O     O_R   0.563990 0.109470 0.284610 -0.523077
O55   O     O_R   0.890530 0.563990 0.715390 -0.517800
O56   O     O_R   0.109470 0.436010 0.284610 -0.513519
O57   O     O_R   0.436010 0.109470 0.284610 -0.503945
O58   O     O_R   0.563990 0.890530 0.715390 -0.523092
O59   O     O_R   0.890530 0.436010 0.284610 -0.505478
O60   O     O_R   0.109470 0.563990 0.715390 -0.515553
O61   O     O_R   0.563990 0.890530 0.284610 -0.501845
O62   O     O_R   0.000000 0.454540 0.117980 -0.551513
O63   O     O_R   0.436010 0.109470 0.715390 -0.516677
O64   O     O_R   0.109470 0.563990 0.284610 -0.502583
O65   O     O_R   0.890530 0.436010 0.715390 -0.509871
O66   O     O_3   0.229465 0.275166 0.136430 -0.529347
O67   O     O_3   0.845216 0.797164 0.785891 -0.473978
O68   O     O_3   0.257006 0.790307 0.139589 -0.478540
O69   O     O_3   0.800034 0.149647 0.765679 -0.475050
O70   O     O_3   0.792948 0.747970 0.144254 -0.480443
O71   O     O_3   0.154645 0.202201 0.776466 -0.470555
O72   O     O_3   0.728334 0.223634 0.138361 -0.480163
O73   O     O_R   0.000000 0.545460 0.882020 -0.531376
O74   O     O_3   0.202638 0.847062 0.787113 -0.469742
O75   O     O_3   0.802438 0.238405 0.842152 -0.472977
O76   O     O_3   0.168278 0.792310 0.214919 -0.503038
O77   O     O_3   0.748306 0.790969 0.851822 -0.472670
O78   O     O_3   0.211581 0.173988 0.199496 -0.526094
O79   O     O_3   0.207627 0.750458 0.849959 -0.471079
O80   O     O_3   0.826995 0.210495 0.202840 -0.512450
O81   O     O_3   0.247907 0.205239 0.852352 -0.478614
O82   O     O_3   0.794308 0.835107 0.223593 -0.504336
O83   O     O_3   0.725573 0.771021 0.638266 -0.521499
O84   O     O_R   0.454540 0.000000 0.117980 -0.556210
O85   O     O_3   0.345972 0.297716 0.284604 -0.475931
O86   O     O_3   0.759034 0.289339 0.637576 -0.477556
O87   O     O_3   0.299911 0.649741 0.265615 -0.476004
O88   O     O_3   0.289980 0.244703 0.644173 -0.480985
O89   O     O_3   0.652480 0.700999 0.268234 -0.473365
O90   O     O_3   0.225810 0.723527 0.634536 -0.478352
O91   O     O_3   0.704686 0.342994 0.294008 -0.468849
O92   O     O_3   0.304008 0.737909 0.342745 -0.473542
O93   O     O_3   0.669057 0.291581 0.711043 -0.502505
O94   O     O_3   0.244809 0.284634 0.350851 -0.481900
O95   O     O_R   0.545460 0.000000 0.882020 -0.531870
O96   O     O_3   0.712365 0.672111 0.697881 -0.512879
O97   O     O_3   0.715058 0.242504 0.354629 -0.476822
O98   O     O_3   0.324644 0.713436 0.695365 -0.508807
O99   O     O_3   0.740921 0.697739 0.346844 -0.474060
O100  O     O_3   0.295627 0.334614 0.727585 -0.518053
O101  O     O_3   0.142228 0.350435 0.139980 -0.552052
O102  O     O_3   0.921369 0.716084 0.785810 -0.488438
O103  O     O_3   0.337592 0.868644 0.141617 -0.504676
O104  O     O_3   0.717470 0.075358 0.772159 -0.493632
O105  O     O_3   0.870242 0.666319 0.143819 -0.510062
O106  O     O_R   0.000000 0.545460 0.117980 -0.551179
O107  O     O_3   0.077241 0.282393 0.773913 -0.486179
O108  O     O_3   0.652498 0.141962 0.141125 -0.499885
O109  O     O_3   0.284822 0.921633 0.788763 -0.489693
O110  O     O_3   0.870436 0.326771 0.851450 -0.496859
O111  O     O_3   0.085639 0.715520 0.216719 -0.533265
O112  O     O_3   0.661836 0.861918 0.856474 -0.496563
O113  O     O_3   0.289212 0.090508 0.198457 -0.536916
O114  O     O_3   0.138536 0.662618 0.855940 -0.501502
O115  O     O_3   0.906402 0.291586 0.190995 -0.534982
O116  O     O_3   0.333392 0.131727 0.856102 -0.508555
Zn1   Zn    Zn3+2 0.064970 0.500000 0.299470 0.961235
Zn2   Zn    Zn3+2 0.435030 0.000000 0.200530 0.918176
Zn3   Zn    Zn3+2 1.000000 0.435030 0.799470 0.949954
Zn4   Zn    Zn3+2 0.000000 0.564970 0.200530 0.919590
Zn5   Zn    Zn3+2 0.435030 0.000000 0.799470 0.941000
Zn6   Zn    Zn3+2 0.564970 0.000000 0.200530 0.920188
Zn7   Zn    Zn3+2 1.000000 0.564970 0.799470 0.949159
Zn8   Zn    Zn3+2 0.000000 0.435030 0.200530 0.919516
Zn9   Zn    Zn3+2 0.935030 0.500000 0.700530 0.918537
Zn10  Zn    Zn3+2 0.500000 0.935030 0.299470 0.951896
Zn11  Zn    Zn3+2 0.500000 0.064970 0.700530 0.919245
Zn12  Zn    Zn3+2 0.935030 0.500000 0.299470 0.940488
Zn13  Zn    Zn3+2 0.064970 0.500000 0.700530 0.920956
Zn14  Zn    Zn3+2 0.500000 0.064970 0.299470 0.951456
Zn15  Zn    Zn3+2 0.500000 0.935030 0.700530 0.914782
Zn16  Zn    Zn3+2 0.564970 0.000000 0.799470 0.960200

loop_
_geom_bond_atom_site_label_1
_geom_bond_atom_site_label_2
_ccdc_geom_bond_type
C130  H132  S    
O2    Zn3   S    
C126  C127  S    
C219  C254  A    
C84   H18   S    
C101  C113  T    
O40   Zn2   S    
C115  O105  S    
C41   O69   S    
C158  H199  S    
C17   C194  S    
C169  H228  S    
C78   O88   S    
C145  O6    S    
C146  C157  T    
C204  O68   S    
O43   Zn6   S    
C19   C200  S    
C186  O33   A    
O41   Zn8   S    
C104  H67   S    
C195  O53   A    
C13   C112  S    
O106  Zn4   S    
C69   H298  S    
C126  H121  S    
C143  O5    S    
C26   C185  S    
C197  O50   A    
C143  C144  S    
C51   H253  S    
C220  C255  A    
C59   H273  S    
C105  H71   S    
C52   O75   S    
C46   C224  S    
C129  H130  S    
C171  H233  S    
C30   C189  S    
C164  H218  S    
C154  H192  S    
C203  C238  A    
C221  O86   S    
C216  O80   S    
C156  H198  S    
C146  C176  S    
C23   C196  S    
C98   H54   S    
C48   H246  S    
C147  H173  S    
C151  H183  S    
C82   H11   S    
C217  C252  A    
C58   H270  S    
C133  H141  S    
C209  C244  A    
C119  O108  S    
C168  O62   A    
C221  C256  A    
C52   H258  S    
C59   C60   S    
C13   C212  A    
C93   H41   S    
C159  H204  S    
C80   H7    S    
C176  O73   A    
C204  C239  A    
C52   H257  S    
C255  O5    S    
C157  C168  S    
C185  O65   A    
C99   H58   S    
O24   Zn9   S    
C56   H268  S    
C45   O71   S    
C48   H235  S    
C155  H195  S    
C145  C147  S    
C140  H155  S    
C68   C202  S    
C75   H314  S    
O36   Zn7   S    
O39   Zn7   S    
C135  C177  S    
C133  H140  S    
C174  H242  S    
C73   H308  S    
C160  H206  S    
C92   H37   S    
C69   H300  S    
C50   H251  S    
C37   O67   S    
C34   H1    S    
C108  H77   S    
C43   C44   S    
C209  C235  A    
C37   C38   S    
C27   C247  A    
C202  C234  A    
C143  H165  S    
C12   C23   A    
C67   O82   S    
C97   H50   S    
C31   C251  A    
C150  H182  S    
C76   C77   S    
C154  C155  S    
C4    C32   A    
C205  O69   S    
C24   C220  A    
C6    C30   A    
C118  H102  S    
C89   H31   S    
C3    C222  A    
C127  H123  S    
C209  O74   S    
C85   H21   S    
C162  H211  S    
C253  O3    S    
C65   O81   S    
C77   H319  S    
C100  H59   S    
C53   H261  S    
C169  H230  S    
C186  O61   A    
C21   C241  A    
C57   C223  A    
C25   C244  A    
C187  O34   A    
C91   H33   S    
C97   H52   S    
C11   C231  A    
C103  H64   S    
C124  C135  T    
C176  O2    A    
C154  H193  S    
C48   O72   S    
C190  O57   A    
O29   Zn13  S    
O64   Zn1   S    
C177  O84   A    
C72   C73   S    
C141  O4    S    
C67   H296  S    
C44   H146  S    
C139  C140  S    
C165  H220  S    
O40   Zn6   S    
C75   H316  S    
C85   H20   S    
C121  H108  S    
C49   H249  S    
C172  H237  S    
C156  C158  S    
C130  C131  S    
C71   H305  S    
C53   H260  S    
C234  O99   S    
C7    C227  A    
C56   H269  S    
C123  H115  S    
C165  O16   S    
C111  H87   S    
C12   O17   S    
C41   H68   S    
C29   C255  A    
C5    O9    S    
C83   H16   S    
O54   Zn14  S    
O63   Zn11  S    
C161  O14   S    
C125  H119  S    
C148  H175  S    
C109  H82   S    
C128  H127  S    
C71   H304  S    
C106  H72   S    
C98   C99   S    
C39   O68   S    
C95   H47   S    
C87   O92   S    
C74   O86   S    
C76   H317  S    
C178  O21   A    
C161  H209  S    
C29   C249  A    
C55   H264  S    
C185  O32   A    
O51   Zn16  S    
C11   C18   A    
C218  C253  A    
O50   Zn13  S    
C118  H99   S    
C134  H142  S    
C141  H160  S    
C167  H227  S    
C208  O72   S    
C208  C243  A    
C2    C222  A    
C212  C248  A    
C190  O37   A    
C128  C129  S    
C149  H177  S    
C8    C228  A    
C200  O47   A    
C50   H252  S    
C167  C169  S    
C83   O90   S    
C85   C86   S    
C106  H73   S    
C43   H135  S    
O49   Zn10  S    
C93   H39   S    
C2    C211  A    
C122  H110  S    
C112  C231  A    
C57   C217  A    
C174  H243  S    
C123  H116  S    
C189  O60   A    
C191  C205  A    
C158  H202  S    
C78   C80   S    
O31   Zn4   S    
C170  C171  S    
C64   H286  S    
C115  C116  S    
C143  H164  S    
C10   C230  A    
C40   H35   S    
C92   O94   S    
C85   O91   S    
C211  C247  A    
C151  H185  S    
C104  H66   S    
C174  C175  S    
C40   H57   S    
C60   H276  S    
C198  O52   A    
C36   H266  S    
C39   H24   S    
C61   O79   S    
C5    C225  A    
C131  H133  S    
C5    C33   A    
C245  O110  S    
C142  H162  S    
C107  C108  S    
C33   C186  S    
C153  H188  S    
C89   C91   S    
O56   Zn1   S    
C12   C232  A    
C127  H122  S    
C168  O106  A    
C102  H63   S    
C136  H144  S    
C81   H9    S    
C117  H97   S    
C99   H56   S    
C2    C180  S    
C174  O20   S    
C38   H2    S    
O21   Zn5   S    
O95   Zn16  S    
C88   H28   S    
O27   Zn10  S    
C54   O76   S    
C231  O96   S    
C8    C19   A    
C74   H312  S    
C45   H179  S    
C240  O104  S    
C173  H241  S    
C80   H6    S    
C39   C40   S    
C76   O87   S    
C247  O111  S    
C20   C240  A    
C43   H124  S    
C164  H216  S    
C165  H219  S    
C227  O91   S    
C43   O70   S    
C47   H224  S    
C145  H171  S    
C116  H96   S    
O53   Zn15  S    
C130  O113  S    
C19   C239  A    
C96   H49   S    
C83   C84   S    
C62   H281  S    
C191  C229  A    
C74   H313  S    
C214  C249  A    
C95   H45   S    
C173  H240  S    
C107  H76   S    
C94   H42   S    
C254  O4    S    
C159  O12   S    
O61   Zn10  S    
C56   O77   S    
O29   Zn7   S    
C57   C213  S    
C72   O85   S    
C184  O64   A    
C138  H151  S    
C206  C241  A    
C35   C235  S    
C14   O18   S    
C126  H120  S    
C103  C104  S    
C110  H85   S    
C101  C181  S    
C52   C53   S    
C47   H201  S    
C44   H168  S    
C54   C55   S    
C32   C187  S    
C160  H205  S    
C156  O11   S    
C125  H117  S    
O23   Zn14  S    
O38   Zn16  S    
C184  O31   A    
C158  H200  S    
C161  H208  S    
C208  C224  A    
C4    C223  A    
C136  H145  S    
C172  O19   S    
C65   H291  S    
O62   Zn8   S    
C87   H26   S    
O51   Zn11  S    
C38   H299  S    
C60   H278  S    
C88   H29   S    
C44   H157  S    
C137  H149  S    
C81   H10   S    
C210  C246  A    
C216  C251  A    
C51   H256  S    
C166  H221  S    
C93   H40   S    
C105  H70   S    
C56   C58   S    
C129  H129  S    
C171  H236  S    
C86   H22   S    
C179  O26   A    
C61   C62   S    
C256  O6    S    
C107  O102  S    
C36   H255  S    
C239  O103  S    
C11   O16   S    
C63   C64   S    
C54   H262  S    
C102  H61   S    
C152  C153  S    
C1    C24   S    
C181  O23   A    
C77   H3    S    
C144  H166  S    
C78   H4    S    
C150  C151  S    
C82   H12   S    
C70   O83   S    
C96   H48   S    
C139  H154  S    
O73   Zn7   S    
C132  H137  S    
C195  O42   A    
C35   C215  A    
C58   H271  S    
C14   C233  A    
C39   H13   S    
C132  O114  S    
O1    Zn4   S    
C181  O27   A    
C128  H126  S    
C87   C88   S    
C58   H272  S    
C95   H44   S    
C159  H203  S    
C80   H8    S    
O58   Zn15  S    
C1    C201  A    
C170  H231  S    
C161  C162  S    
C148  O7    S    
C194  O56   A    
C36   H223  S    
C238  O102  S    
C140  H156  S    
C150  O8    S    
C196  O43   A    
C139  O3    S    
C133  H139  S    
O51   Zn5   S    
C61   H280  S    
C123  C125  S    
C221  C246  A    
C92   H38   S    
C8    O12   S    
C81   O89   S    
C96   O97   S    
C167  O17   S    
C108  H78   S    
C28   C248  A    
C233  O98   S    
C223  O88   S    
C109  O103  S    
C215  O79   S    
C42   H113  S    
C1    C230  A    
C41   H79   S    
C188  O59   A    
C249  O113  S    
C226  O90   S    
C70   C71   S    
C198  O45   A    
C119  H103  S    
C120  H105  S    
C104  H69   S    
C110  H83   S    
C72   H307  S    
C129  H128  S    
C114  H91   S    
C199  O48   A    
C230  O94   S    
C219  O83   S    
C130  H131  S    
O52   Zn12  S    
O1    Zn8   S    
C122  H114  S    
C84   H17   S    
C160  H207  S    
C163  H215  S    
C244  O109  S    
O35   Zn8   S    
C100  H60   S    
C169  H229  S    
O33   Zn6   S    
C91   H36   S    
C97   H51   S    
C136  H147  S    
C193  O39   A    
C189  O36   A    
O28   Zn13  S    
C207  C242  A    
C67   H295  S    
C68   C225  A    
C7    O11   S    
C194  O41   A    
C127  H125  S    
C51   H254  S    
C180  C228  A    
O47   Zn2   S    
C75   H315  S    
C37   H277  S    
C171  H234  S    
O25   Zn1   S    
C164  H217  S    
C156  H197  S    
C53   H259  S    
C225  O89   S    
C34   H112  S    
C9    C20   A    
C159  C160  S    
C228  O92   S    
C98   H53   S    
C50   C51   S    
C147  H174  S    
C151  H184  S    
C40   H46   S    
C125  H118  S    
C148  H176  S    
C109  H81   S    
O45   Zn4   S    
C163  O15   S    
C48   C49   S    
C71   H303  S    
C46   C216  A    
O46   Zn16  S    
C163  H214  S    
C76   H318  S    
O57   Zn14  S    
C22   C242  A    
C64   H287  S    
C251  O115  S    
C232  O97   S    
O51   Zn15  S    
C16   C22   A    
C155  H196  S    
O44   Zn3   S    
C118  H100  S    
C134  H143  S    
C66   H294  S    
C141  H159  S    
C83   H15   S    
O42   Zn5   S    
C180  C204  A    
C119  C120  S    
C106  H74   S    
C73   H309  S    
C105  C106  S    
C122  H111  S    
C72   H306  S    
C108  H80   S    
C175  H247  S    
C26   C256  A    
C109  C110  S    
C210  C245  A    
O48   Zn11  S    
O29   Zn3   S    
C237  O101  S    
C152  H187  S    
C6    C226  A    
C3    C27   A    
C92   C93   S    
C115  H93   S    
C222  O87   S    
C150  H181  S    
C120  H107  S    
C120  H106  S    
C94   C95   S    
C87   H27   S    
C152  O9    S    
C114  H89   S    
C199  O46   A    
C34   O66   S    
C89   H32   S    
O84   Zn2   S    
C131  H136  S    
O22   Zn15  S    
C84   H19   S    
C142  H163  S    
C250  O114  S    
C191  C246  S    
C29   C190  S    
C69   H297  S    
C162  H210  S    
C112  C203  A    
O59   Zn12  S    
C117  C118  S    
C77   H320  S    
C144  H169  S    
C162  H213  S    
C126  O111  S    
C172  H238  S    
C42   H90   S    
C91   H34   S    
C165  C166  S    
C197  O44   A    
C178  O95   A    
C35   C226  A    
C207  O71   S    
C63   O80   S    
C99   H55   S    
C163  C164  S    
C207  C213  A    
C21   C198  S    
C62   H283  S    
C81   C82   S    
C218  O82   S    
O1    Zn1   S    
C103  O100  S    
C212  O77   S    
C183  O30   A    
C121  H109  S    
C49   H250  S    
C179  O22   A    
C94   O96   S    
C28   C254  A    
O34   Zn5   S    
C224  C232  A    
C206  O70   S    
C252  O116  S    
C16   C236  A    
C10   C17   A    
C70   H301  S    
C42   H101  S    
C16   O20   S    
C147  H172  S    
C15   C234  A    
C9    C229  A    
C45   C47   S    
C220  O85   S    
C145  H170  S    
C27   C184  S    
C22   C197  S    
C141  C142  S    
C200  O49   A    
C79   C90   T    
C121  O109  S    
C62   H282  S    
C59   O78   S    
C79   C183  S    
C132  C133  S    
C55   H265  S    
O60   Zn13  S    
C215  C250  A    
C173  H239  S    
C182  O28   A    
C94   H43   S    
C213  C236  A    
C34   C36   S    
C25   C195  S    
C26   C245  A    
C9    O14   S    
C41   C42   S    
C193  O55   A    
C155  H194  S    
C18   C193  S    
C217  O81   S    
O13   Zn6   S    
C236  O100  S    
C24   C214  A    
C119  H104  S    
C116  H95   S    
C166  H225  S    
C28   C192  S    
C149  H178  S    
C98   O98   S    
C6    O10   S    
O26   Zn11  S    
C140  H158  S    
C73   H311  S    
C115  H92   S    
C128  O112  S    
C49   H248  S    
C7    C31   A    
C74   C75   S    
C63   H285  S    
C229  O93   S    
C90   C182  S    
C45   H190  S    
C175  H245  S    
C148  C149  S    
C15   O19   S    
C153  H191  S    
C187  O63   A    
C248  O112  S    
C138  H150  S    
C30   C250  A    
O65   Zn9   S    
C67   C69   S    
C65   H290  S    
C31   C188  S    
C68   C218  A    
C20   C199  S    
C60   H275  S    
C88   H30   S    
C107  H75   S    
C117  O107  S    
C137  H148  S    
C38   H310  S    
O1    Zn12  S    
C46   C227  A    
C131  H134  S    
O40   Zn10  S    
C96   C97   S    
C166  H222  S    
C142  H161  S    
C100  C102  S    
C121  C122  S    
C183  O25   A    
C134  C136  S    
C153  H189  S    
C86   H23   S    
C13   C219  A    
C182  O24   A    
C233  C235  A    
C54   H263  S    
C241  O105  S    
C211  O76   S    
C102  H62   S    
C203  O67   S    
C105  O101  S    
C116  H94   S    
C242  O107  S    
C134  O115  S    
C78   H5    S    
C192  O58   A    
C117  H98   S    
C111  C114  S    
C139  H153  S    
O32   Zn3   S    
C132  H138  S    
C89   O93   S    
C59   H274  S    
C114  H88   S    
C3    O7    S    
C4    O8    S    
C123  O110  S    
C172  C173  S    
O40   Zn14  S    
C103  H65   S    
C154  O10   S    
C201  O66   S    
C124  C178  S    
O55   Zn9   S    
C177  O13   A    
C170  H232  S    
C10   O15   S    
C50   O74   S    
C201  C237  A    
C210  O75   S    
C111  O104  S    
O29   Zn9   S    
C137  C138  S    
C32   C252  A    
C170  O18   S    
C111  H86   S    
C82   H14   S    
C188  O35   A    
C138  H152  S    
C33   C253  A    
C66   H292  S    
C14   C25   A    
C192  O38   A    
C61   H279  S    
C137  O116  S    
C113  C179  S    
C37   H288  S    
C86   H25   S    
C63   H284  S    
C100  O99   S    
C175  H244  S    
C70   H302  S    
O30   Zn12  S    
C144  H167  S    
C47   H212  S    
C18   C238  A    
C15   C21   A    
C205  C240  A    
C55   H267  S    
C214  O78   S    
C152  H186  S    
C65   C66   S    
C202  C206  A    
C243  O108  S    
C167  H226  S    
C66   H293  S    
C196  O54   A    
C23   C243  A    
C149  H180  S    
C110  H84   S    
O37   Zn2   S    
C64   H289  S    
C17   C237  A    
