data_mof_unit_8926.cif
_audit_creation_date              2012-12-11T14:56:39-0500
_audit_creation_method            fapswitch 2.2
_symmetry_space_group_name_H-M    P1
_symmetry_Int_Tables_number       1
_space_group_crystal_system       triclinic
_cell_length_a                    10.546795
_cell_length_b                    10.709374
_cell_length_c                    17.032298
_cell_angle_alpha                 79.354696
_cell_angle_beta                  90.726799
_cell_angle_gamma                 119.054453
_cell_volume                      1646.0990707

loop_
_atom_site_label
_atom_site_type_symbol
_atom_type_description
_atom_site_fract_x
_atom_site_fract_y
_atom_site_fract_z
_atom_type_partial_charge
C1    C     C_R   0.222299 0.853520 0.128701 0.557683
C2    C     C_R   0.734598 0.285511 0.296806 -0.147354
C3    C     C_R   0.753462 0.297982 0.214763 0.229047
C4    C     C_R   0.651200 0.317766 0.166284 0.055408
C5    C     C_1   0.633030 0.871426 0.211028 -0.037488
C6    C     C_1   0.659861 0.855603 0.279047 -0.054930
C7    C     C_1   0.181212 0.824969 0.211595 -0.034036
C8    C     C_1   0.152227 0.820639 0.280050 -0.034662
C9    C     C_1   0.661433 0.356847 0.779913 0.010236
C10   C     C_1   0.685893 0.401857 0.709353 -0.026097
C11   C     C_R   0.634745 0.717351 0.804906 0.124272
C12   C     C_R   0.636526 0.276344 0.088463 0.603935
C13   C     C_R   0.621934 0.700695 0.726573 -0.112353
C14   C     C_R   0.666731 0.822541 0.664053 0.022197
C15   C     C_R   0.726694 0.962473 0.679595 -0.145216
C16   C     C_R   0.733670 0.979327 0.758449 -0.179191
C17   C     C_R   0.685327 0.856471 0.821299 0.038109
C18   C     C_R   0.300275 0.005573 0.739480 0.252027
C19   C     C_R   0.278105 0.975640 0.662254 0.128049
C20   C     C_R   0.195396 0.830253 0.652919 0.008611
C21   C     C_R   0.182893 0.716723 0.715374 0.216842
C22   C     C_R   0.239197 0.755314 0.787149 -0.172396
C23   C     C_R   0.600458 0.881820 0.130402 0.558512
C24   C     C_R   0.273275 0.890270 0.804205 -0.053067
C25   C     C_R   0.682728 0.813398 0.358796 0.549074
C26   C     C_R   0.681282 0.384668 0.399522 0.597401
C27   C     C_R   0.104185 0.810812 0.359392 0.564163
C28   C     C_R   0.676866 0.800662 0.584526 0.541028
C29   C     C_R   0.718320 0.446642 0.625586 0.571729
C30   C     C_R   0.104976 0.803036 0.584944 0.577127
C31   C     C_R   0.293149 0.907636 0.888214 0.583089
C32   C     C_R   0.639250 0.288757 0.861402 0.601705
C33   C     C_R   0.646086 0.867957 0.899052 0.588475
C34   C     C_R   0.546397 0.343951 0.199468 0.104885
C35   C     C_R   0.543893 0.349914 0.280023 -0.119821
C36   C     C_R   0.640526 0.324294 0.328072 -0.036552
Cr1   Cr    Cr6+3 0.402240 0.783890 0.019450 1.081506
Cr2   Cr    Cr6+3 0.382360 0.097900 0.991800 1.080461
Cr3   Cr    Cr6+3 0.715380 0.118170 0.988700 1.008413
Cr4   Cr    Cr6+3 0.936650 0.882420 0.465510 1.005415
Cr5   Cr    Cr6+3 0.605770 0.565620 0.493360 1.041992
Cr6   Cr    Cr6+3 0.921340 0.550490 0.496380 1.042842
H1    H     H_    0.255908 0.680718 0.830702 0.162450
H2    H     H_    0.473317 0.383846 0.303586 0.164179
H3    H     H_    0.807384 0.265927 0.335672 0.136056
H4    H     H_    0.580035 0.592376 0.714495 0.139661
H5    H     H_    0.764825 0.057085 0.631094 0.144669
H6    H     H_    0.767209 0.086632 0.770054 0.134211
O1    O     O_R   0.521780 0.757110 0.108900 -0.448507
O2    O     O_R   0.513330 0.228330 0.898660 -0.454256
O3    O     O_R   0.739230 0.266130 0.888050 -0.563269
O4    O     O_R   0.712580 0.991850 0.918770 -0.537863
O5    O     O_3   0.499990 0.999980 0.999980 -0.328735
O6    O     O_R   0.083770 0.911170 0.376030 -0.505069
O7    O     O_R   0.808770 0.880340 0.383890 -0.510192
O8    O     O_R   0.584340 0.689460 0.394160 -0.502714
O9    O     O_R   0.614320 0.443940 0.423590 -0.474509
O10   O     O_R   0.805020 0.410040 0.421340 -0.524474
O11   O     O_R   0.049240 0.685450 0.403290 -0.500100
O12   O     O_R   0.275160 0.783810 0.101120 -0.502587
O13   O     O_R   0.077520 0.903010 0.551800 -0.500417
O14   O     O_R   0.802980 0.872780 0.546830 -0.511873
O15   O     O_R   0.578090 0.681300 0.569920 -0.527733
O16   O     O_R   0.608530 0.436370 0.586530 -0.465723
O17   O     O_R   0.798770 0.401880 0.597100 -0.499439
O18   O     O_R   0.043450 0.677890 0.566230 -0.474717
O19   O     O_3   0.821250 0.666180 0.485090 -0.285604
O20   O     O_R   0.237900 0.972600 0.090980 -0.489250
O21   O     O_R   0.511190 0.220540 0.061620 -0.458032
O22   O     O_R   0.736920 0.257720 0.063840 -0.466482
O23   O     O_R   0.710450 0.984050 0.081720 -0.491717
O24   O     O_R   0.524090 0.765520 0.933110 -0.459141
O25   O     O_R   0.277300 0.791600 0.938160 -0.507086
O26   O     O_R   0.240210 0.981010 0.915190 -0.503184
Br1   Br    Br    0.415736 0.389224 0.136609 -0.470792
Br2   Br    Br    0.375142 0.128383 0.568891 -0.481112
O27   O     O_3   0.131301 0.575317 0.702918 -0.554022
C37   C     C_3   0.034393 0.466513 0.768379 0.017762
H7    H     H_    0.956439 0.372189 0.742836 0.166155
H8    H     H_    0.967022 0.503273 0.796622 0.137343
C38   C     C_3   0.113736 0.415668 0.833220 -0.281235
H9    H     H_    0.227195 0.453914 0.810221 0.186021
H10   H     H_    0.118176 0.462937 0.886668 0.157451
C39   C     C_3   0.037497 0.251543 0.865120 -0.438709
H11   H     H_    0.002375 0.190648 0.816059 0.129137
H12   H     H_    0.943141 0.219111 0.907108 0.220395
H13   H     H_    0.112193 0.222151 0.899956 0.144943
O28   O     O_3   0.878808 0.311078 0.177952 -0.532926
C40   C     C_3   0.942545 0.235685 0.224276 0.023436
H14   H     H_    0.980170 0.188600 0.183147 0.182011
H15   H     H_    0.864283 0.140745 0.270127 0.115072
C41   C     C_3   0.076184 0.342371 0.260755 -0.270658
H16   H     H_    0.162409 0.419007 0.211903 0.213118
H17   H     H_    0.048401 0.408670 0.292594 0.171009
C42   C     C_3   0.135504 0.261788 0.319512 -0.434103
H18   H     H_    0.051185 0.185733 0.369315 0.162076
H19   H     H_    0.230977 0.341773 0.345365 0.152099
H20   H     H_    0.169918 0.199339 0.288300 0.195342
Br3   Br    Br    0.572511 0.546257 0.887895 -0.498448
O29   O     O_3   0.366880 0.148149 0.749318 -0.547202
C43   C     C_3   0.261144 0.190267 0.760080 0.028860
H21   H     H_    0.296470 0.254606 0.807983 0.171202
H22   H     H_    0.150274 0.096651 0.782420 0.129263
C44   C     C_3   0.256860 0.290785 0.683835 -0.251704
H23   H     H_    0.262860 0.389645 0.698855 0.155664
H24   H     H_    0.353454 0.331116 0.641669 0.245751
C45   C     C_3   0.118738 0.216298 0.641600 -0.411085
H25   H     H_    0.098407 0.108280 0.632891 0.200623
H26   H     H_    0.129778 0.285657 0.582114 0.155707
H27   H     H_    0.023803 0.201398 0.677500 0.131930

loop_
_geom_bond_atom_site_label_1
_geom_bond_atom_site_label_2
_ccdc_geom_bond_type
Cr3   O3    S    
C12   O21   A    
C43   H21   S    
C42   H18   S    
C37   C38   S    
C25   O8    A    
C15   H5    S    
Cr6   O10   S    
C44   H24   S    
C38   H9    S    
C42   H20   S    
C7    C8    T    
Cr5   O19   S    
C20   C30   S    
O27   C37   S    
C33   O4    A    
Cr3   O5    S    
C18   O29   S    
C18   C24   A    
C19   Br2   S    
C39   H12   S    
C18   C19   A    
C5    C6    T    
C37   H8    S    
C31   O25   A    
C6    C25   S    
C15   C16   A    
C1    O20   A    
Cr4   O14   S    
C11   Br3   S    
C34   C35   A    
C41   H16   S    
C12   O22   A    
C9    C32   S    
C35   C36   A    
C16   C17   A    
Cr4   O19   S    
Cr6   O17   S    
C45   H25   S    
C39   H13   S    
C40   H15   S    
C9    C10   T    
C33   O24   A    
C34   Br1   S    
Cr1   O5    S    
Cr3   O4    S    
Cr2   O21   S    
C43   H22   S    
C21   C22   A    
C45   H26   S    
C16   H6    S    
C17   C33   S    
C44   H23   S    
C38   H10   S    
C2    H3    S    
C4    C34   A    
C27   O6    A    
C23   O23   A    
C39   H11   S    
C1    O12   A    
C37   H7    S    
C31   O26   A    
C41   C42   S    
Cr4   O13   S    
Cr5   O8    S    
Cr1   O1    S    
C22   H1    S    
C5    C23   S    
Cr4   O7    S    
C41   H17   S    
O28   C40   S    
C40   C41   S    
C35   H2    S    
C26   O10   A    
C32   O2    A    
C30   O18   A    
C29   O17   A    
C26   C36   S    
Cr2   O20   S    
C43   C44   S    
Cr4   O6    S    
Cr6   O19   S    
C45   H27   S    
C22   C24   A    
Cr1   O24   S    
C4    C12   S    
Cr5   O15   S    
C3    C4    A    
C38   C39   S    
Cr2   O26   S    
C32   O3    A    
C2    C36   A    
Cr1   O25   S    
C11   C17   A    
C3    O28   S    
C1    C7    S    
C25   O7    A    
Cr6   O11   S    
C42   H19   S    
Cr2   O2    S    
C19   C20   A    
C2    C3    A    
C24   C31   S    
Cr5   O9    S    
C27   O11   A    
C11   C13   A    
C10   C29   S    
C13   H4    S    
Cr2   O5    S    
O29   C43   S    
Cr3   O22   S    
C26   O9    A    
C29   O16   A    
Cr1   O12   S    
C23   O1    A    
C28   O15   A    
C20   C21   A    
C30   O13   A    
C21   O27   S    
Cr6   O18   S    
C8    C27   S    
Cr3   O23   S    
C14   C15   A    
Cr5   O16   S    
C14   C28   S    
C40   H14   S    
C13   C14   A    
C44   C45   S    
C28   O14   A    
