data_mof_unit_59344.cif
_audit_creation_date              2012-12-11T15:14:39-0500
_audit_creation_method            fapswitch 2.2
_symmetry_space_group_name_H-M    P1
_symmetry_Int_Tables_number       1
_space_group_crystal_system       triclinic
_cell_length_a                    22.345194
_cell_length_b                    7.226139
_cell_length_c                    19.256913
_cell_angle_alpha                 89.999856
_cell_angle_beta                  99.028661
_cell_angle_gamma                 89.999825
_cell_volume                      3070.878063

loop_
_atom_site_label
_atom_site_type_symbol
_atom_type_description
_atom_site_fract_x
_atom_site_fract_y
_atom_site_fract_z
_atom_type_partial_charge
O1    O     O_R   0.448470 0.506130 0.415700 -0.528608
O2    O     O_R   0.551530 0.006130 0.584300 -0.528608
O3    O     O_R   0.436320 0.174490 0.555800 -0.536876
O4    O     O_R   0.563680 0.674490 0.444200 -0.536876
C1    C     C_R   0.421545 0.344269 0.575515 0.754833
C2    C     C_R   0.578455 0.844269 0.424485 0.754834
O5    O     O_R   0.441350 0.176340 0.414480 -0.539486
O6    O     O_R   0.558650 0.676340 0.585520 -0.539486
O7    O     O_R   0.556600 0.007100 0.441970 -0.524113
O8    O     O_R   0.443400 0.507100 0.558030 -0.524114
C3    C     C_R   0.426745 0.344829 0.389457 0.853178
C4    C     C_R   0.573255 0.844828 0.610542 0.853180
O9    O     O_3   0.537810 0.339550 0.509190 -0.381516
O10   O     O_3   0.462190 0.839550 0.490810 -0.381518
V1    V     V_3+5 0.492990 0.064280 0.498300 1.524522
V2    V     V_3+5 0.507010 0.564280 0.501700 1.524521
C5    C     C_R   0.870288 0.987967 0.694911 0.320782
C6    C     C_R   0.129710 0.487924 0.305091 0.320790
H1    H     H_    0.956252 0.015955 0.762154 0.109391
H2    H     H_    0.043745 0.515898 0.237848 0.109390
H3    H     H_    0.787190 0.998503 0.579937 0.158103
H4    H     H_    0.212808 0.498477 0.420064 0.158102
C7    C     C_R   0.885939 0.943076 0.821291 -0.075681
C8    C     C_R   0.114061 0.443071 0.178709 -0.075680
C9    C     C_R   0.592287 0.811016 0.739004 0.322083
C10   C     C_R   0.407713 0.311011 0.260996 0.322087
C11   C     C_R   0.630412 0.806257 0.803858 -0.197307
C12   C     C_R   0.369588 0.306242 0.196142 -0.197309
C13   C     C_R   0.692162 0.838609 0.808665 -0.177317
C14   C     C_R   0.307838 0.338596 0.191335 -0.177317
C15   C     C_R   0.718978 0.878717 0.748601 0.041582
C16   C     C_R   0.281022 0.378715 0.251399 0.041581
C17   C     C_R   0.680252 0.887085 0.681544 -0.026011
C18   C     C_R   0.319748 0.387086 0.318455 -0.026008
C19   C     C_R   0.783063 0.910919 0.753628 0.035608
C20   C     C_R   0.216937 0.410917 0.246372 0.035608
C21   C     C_R   0.807405 0.952953 0.691570 0.060763
C22   C     C_R   0.192594 0.452932 0.308431 0.060763
C23   C     C_R   0.768816 0.963168 0.627013 -0.255814
C24   C     C_R   0.231182 0.463152 0.372987 -0.255820
C25   C     C_R   0.706402 0.930223 0.620939 0.304929
C26   C     C_R   0.293598 0.430225 0.379060 0.304927
C27   C     C_R   0.824017 0.904633 0.818381 -0.206363
C28   C     C_R   0.175983 0.404648 0.181618 -0.206361
C29   C     C_R   0.908444 0.985722 0.759802 -0.233897
C30   C     C_R   0.091553 0.485684 0.240200 -0.233898
C31   C     C_R   0.616445 0.851149 0.677563 -0.120487
C32   C     C_R   0.383555 0.351151 0.322437 -0.120489
H5    H     H_    0.809504 0.873702 0.867823 0.101832
H6    H     H_    0.190499 0.373748 0.132175 0.101829
H7    H     H_    0.717573 0.831114 0.860869 0.123967
H8    H     H_    0.282427 0.331085 0.139132 0.123967
H9    H     H_    0.612170 0.776036 0.851518 0.116281
H10   H     H_    0.387830 0.276010 0.148482 0.116280
C33   C     C_3   0.777687 0.843357 0.314783 0.295886
C34   C     C_3   0.222314 0.343336 0.685219 0.295888
C35   C     C_3   0.792278 0.021831 0.277446 0.282352
C36   C     C_3   0.207716 0.521813 0.722549 0.282349
H11   H     H_    0.702107 0.202505 0.260664 0.164136
H12   H     H_    0.297879 0.702517 0.739320 0.164127
C37   C     C_1   0.875969 0.940353 0.121663 -0.183703
C38   C     C_1   0.124031 0.440353 0.878337 -0.183703
C39   C     C_1   0.624585 0.853898 0.379389 -0.154628
C40   C     C_1   0.375414 0.353899 0.620610 -0.154624
C41   C     C_3   0.778422 0.729639 0.246527 -0.306428
C42   C     C_3   0.221584 0.229633 0.753480 -0.306426
C43   C     C_3   0.792966 0.911743 0.208836 -0.036086
C44   C     C_3   0.207034 0.411741 0.791163 -0.036085
C45   C     C_3   0.709992 0.773294 0.226090 0.333471
C46   C     C_3   0.290012 0.273313 0.773913 0.333468
C47   C     C_3   0.709314 0.882972 0.294575 -0.004206
C48   C     C_3   0.290685 0.382976 0.705423 -0.004205
C49   C     C_3   0.724651 0.951259 0.188772 0.258949
C50   C     C_3   0.275347 0.451282 0.811224 0.258952
C51   C     C_3   0.723782 0.065430 0.256819 -0.285861
C52   C     C_3   0.276210 0.565437 0.743171 -0.285863
C53   C     C_1   0.838504 0.928858 0.160854 -0.001616
C54   C     C_1   0.161496 0.428856 0.839146 -0.001612
C55   C     C_1   0.662929 0.865442 0.341366 0.030213
C56   C     C_1   0.337069 0.365444 0.658633 0.030215
H13   H     H_    0.799931 0.592369 0.242551 0.145137
H14   H     H_    0.200080 0.092357 0.757462 0.145138
O11   O     O_R   0.056650 0.288730 0.942060 -0.534112
O12   O     O_R   0.943350 0.788730 0.057940 -0.534113
O13   O     O_R   0.058660 0.616870 0.085540 -0.536166
O14   O     O_R   0.941340 0.116870 0.914460 -0.536166
C57   C     C_R   0.072597 0.448808 0.111066 0.700282
C58   C     C_R   0.927403 0.948809 0.888934 0.700282
O15   O     O_R   0.063700 0.618520 0.944220 -0.534778
O16   O     O_R   0.936300 0.118520 0.055780 -0.534778
O17   O     O_R   0.948460 0.787610 0.915680 -0.533766
O18   O     O_R   0.051540 0.287610 0.084320 -0.533765
C59   C     C_R   0.078703 0.450043 0.924536 0.709520
C60   C     C_R   0.921297 0.950043 0.075464 0.709520
O19   O     O_3   0.962230 0.453430 0.990860 -0.373920
O20   O     O_3   0.037770 0.953430 0.009140 -0.373919
V3    V     V_3+5 0.007010 0.728750 0.001700 1.424678
V4    V     V_3+5 0.992990 0.228750 0.998300 1.424678
N1    N     N_2   0.805545 0.782662 0.384000 -0.510934
H15   H     H_    0.791129 0.854339 0.424588 0.247751
C61   C     C_3   0.870415 0.756080 0.393090 -0.540410
H16   H     H_    0.885522 0.682864 0.443452 0.186177
H17   H     H_    0.893931 0.891664 0.394595 0.220351
H18   H     H_    0.883177 0.670785 0.349715 0.201970
N2    N     N_2   0.194457 0.282618 0.616005 -0.510934
H19   H     H_    0.208870 0.354292 0.575413 0.247754
C62   C     C_3   0.129588 0.256015 0.606916 -0.540416
H20   H     H_    0.114483 0.182790 0.556557 0.186178
H21   H     H_    0.106067 0.391591 0.605409 0.220356
H22   H     H_    0.116830 0.170721 0.650295 0.201975
N3    N     N_2   0.696493 0.005790 0.118955 -0.509579
H23   H     H_    0.705315 0.914908 0.080553 0.250370
C63   C     C_3   0.633320 0.056691 0.112554 -0.510692
H24   H     H_    0.616796 0.103110 0.057950 0.187914
H25   H     H_    0.627438 0.172641 0.148729 0.213630
H26   H     H_    0.605798 0.936260 0.124590 0.215082
N4    N     N_2   0.303504 0.505834 0.881038 -0.509581
H27   H     H_    0.294691 0.414948 0.919443 0.250370
C64   C     C_3   0.366673 0.556776 0.887432 -0.510699
H28   H     H_    0.383199 0.603181 0.942038 0.187914
H29   H     H_    0.372543 0.672745 0.851261 0.213638
H30   H     H_    0.394201 0.436367 0.875387 0.215088
O21   O     O_3   0.665746 0.644554 0.198912 -0.638796
H31   H     H_    0.679646 0.592596 0.156550 0.286553
O22   O     O_3   0.334264 0.144594 0.801095 -0.638796
H32   H     H_    0.320366 0.092638 0.843459 0.286550
N5    N     N_2   0.895479 0.029853 0.633217 -0.530633
H33   H     H_    0.930101 0.125726 0.641361 0.255834
C65   C     C_3   0.912059 0.868612 0.595963 -0.583009
H34   H     H_    0.949063 0.791342 0.629041 0.199638
H35   H     H_    0.928164 0.912910 0.546861 0.200061
H36   H     H_    0.872414 0.775791 0.581584 0.211890
N6    N     N_2   0.104517 0.529779 0.366786 -0.530643
H37   H     H_    0.069890 0.625637 0.358647 0.255833
C66   C     C_3   0.087947 0.368521 0.404036 -0.583023
H38   H     H_    0.050943 0.291250 0.370960 0.199642
H39   H     H_    0.071845 0.412807 0.453141 0.200071
H40   H     H_    0.127595 0.275707 0.418408 0.211895
O23   O     O_3   0.530863 0.776738 0.734209 -0.653445
H41   H     H_    0.521183 0.750655 0.781784 0.288650
O24   O     O_3   0.469137 0.276730 0.265791 -0.653445
H42   H     H_    0.478818 0.250651 0.218216 0.288648
O25   O     O_3   0.670644 0.941821 0.555729 -0.664065
H43   H     H_    0.695860 0.973798 0.519416 0.271214
O26   O     O_3   0.329357 0.441835 0.444269 -0.664066
H44   H     H_    0.304141 0.473846 0.480580 0.271216
N7    N     N_2   0.838209 0.155693 0.304707 -0.520304
H45   H     H_    0.851490 0.237596 0.266023 0.256096
C67   C     C_3   0.825679 0.261509 0.364487 -0.538346
H46   H     H_    0.866680 0.341129 0.386684 0.202453
H47   H     H_    0.813911 0.169079 0.406280 0.204380
H48   H     H_    0.787794 0.359603 0.348148 0.216471
N8    N     N_2   0.161779 0.655652 0.695283 -0.520303
H49   H     H_    0.148495 0.737557 0.733964 0.256099
C68   C     C_3   0.174304 0.761461 0.635499 -0.538366
H50   H     H_    0.133300 0.841058 0.613298 0.202446
H51   H     H_    0.186079 0.669028 0.593711 0.204382
H52   H     H_    0.212185 0.859575 0.651836 0.216477

loop_
_geom_bond_atom_site_label_1
_geom_bond_atom_site_label_2
_ccdc_geom_bond_type
C66   H40   S    
C42   C44   S    
C61   H16   S    
C7    C29   A    
C11   C13   A    
C62   H21   S    
N3    H23   S    
C43   C53   S    
C48   C52   S    
O2    C4    A    
C2    O7    A    
C47   C55   S    
O26   H44   S    
O19   V4    S    
C36   C52   S    
C66   H38   S    
C23   C25   A    
C35   N7    S    
C39   C55   T    
O5    C3    A    
N2    C62   S    
C50   C52   S    
O12   V3    S    
C16   C20   A    
N7    C67   S    
C5    C29   A    
C65   H34   S    
C67   H47   S    
O14   C58   A    
C68   H51   S    
C45   O21   S    
C44   C50   S    
O25   H43   S    
O11   C59   A    
C9    O23   S    
C7    C27   A    
C6    N6    S    
C45   C47   S    
O24   H42   S    
N7    H45   S    
C37   C53   T    
C18   C26   A    
C34   C48   S    
O11   V4    S    
O1    C3    A    
C46   C50   S    
C62   H20   S    
C15   C17   A    
C45   C49   S    
C43   C49   S    
C34   C36   S    
N8    C68   S    
C10   O24   S    
C19   C27   A    
C9    C31   A    
C10   C32   A    
C65   H36   S    
O5    V1    S    
O22   H32   S    
O6    V2    S    
C22   C24   A    
C57   O18   A    
C68   H52   S    
O15   C59   A    
C40   C56   T    
C3    C32   S    
C34   C42   S    
C35   C43   S    
C4    C31   S    
C6    C30   A    
C33   C41   S    
O16   C60   A    
C64   H29   S    
C44   C54   S    
O23   H41   S    
C47   C51   S    
O13   C57   A    
O18   V4    S    
O21   H31   S    
C49   N3    S    
O4    C2    A    
C67   H48   S    
C12   H10   S    
C37   C60   S    
C27   H5    S    
O12   C60   A    
C41   C43   S    
H12   C52   S    
C48   C56   S    
C1    C40   S    
O15   V3    S    
C16   C18   A    
C2    C39   S    
O4    V2    S    
N5    C65   S    
C36   N8    S    
C42   H14   S    
C41   H13   S    
N1    H15   S    
H3    C23   S    
C58   O17   A    
O6    C4    A    
H4    C24   S    
O20   V3    S    
H1    C29   S    
N3    C63   S    
O1    V2    S    
C5    C21   A    
O17   V3    S    
O2    V1    S    
C46   O22   S    
C36   C44   S    
N1    C61   S    
C61   H18   S    
C7    C58   S    
C33   C35   S    
N6    H37   S    
C8    C28   A    
C62   H22   S    
C15   C19   A    
C20   C28   A    
C18   C32   A    
C49   C51   S    
N5    H33   S    
H11   C51   S    
O3    V1    S    
C63   H24   S    
C13   H7    S    
C64   H30   S    
C28   H6    S    
C66   H39   S    
C50   N4    S    
C14   H8    S    
C19   C21   A    
C13   C15   A    
C38   C54   T    
C5    N5    S    
O3    C1    A    
C64   H28   S    
C11   H9    S    
C25   O25   S    
C9    C11   A    
N2    H19   S    
C38   C59   S    
C10   C12   A    
C8    C30   A    
C63   H26   S    
N4    C64   S    
O7    V1    S    
C17   C25   A    
C1    O8    A    
C21   C23   A    
O8    V2    S    
C67   H46   S    
C20   C22   A    
C14   C16   A    
C35   C51   S    
C42   C46   S    
C41   C45   S    
C24   C26   A    
C17   C31   A    
C12   C14   A    
C6    C22   A    
O14   V4    S    
C8    C57   S    
C33   C47   S    
C34   N2    S    
O13   V3    S    
C61   H17   S    
O9    V2    S    
C33   N1    S    
C68   H50   S    
N6    C66   S    
O10   V1    S    
C46   C48   S    
C63   H25   S    
N8    H49   S    
N4    H27   S    
C26   O26   S    
O16   V4    S    
H2    C30   S    
C65   H35   S    
