data_mof_unit_8353.cif
_audit_creation_date              2012-12-10T20:27:55-0500
_audit_creation_method            fapswitch 2.2
_symmetry_space_group_name_H-M    P1
_symmetry_Int_Tables_number       1
_space_group_crystal_system       triclinic
_cell_length_a                    12.819434
_cell_length_b                    10.663597
_cell_length_c                    9.872266
_cell_angle_alpha                 90.161475
_cell_angle_beta                  97.533981
_cell_angle_gamma                 90.123167
_cell_volume                      1337.89143893

loop_
_atom_site_label
_atom_site_type_symbol
_atom_type_description
_atom_site_fract_x
_atom_site_fract_y
_atom_site_fract_z
_atom_type_partial_charge
C1    C     C_R   0.498485 0.260105 0.499758 0.858289
C2    C     C_R   0.027414 0.522476 0.552964 0.142959
C3    C     C_R   0.973125 0.444168 0.450275 0.170748
C4    C     C_R   0.866188 0.419570 0.452753 0.123824
C5    C     C_R   0.868710 0.562477 0.648284 -0.258134
C6    C     C_R   0.975782 0.577563 0.653540 -0.225023
C7    C     C_R   0.516068 0.064080 0.621606 0.131173
C8    C     C_R   0.487997 0.128290 0.499972 -0.095159
C9    C     C_R   0.443964 0.064310 0.381991 -0.228077
C10   C     C_R   0.443571 0.934603 0.382009 -0.248741
C11   C     C_R   0.486719 0.871379 0.500352 -0.104458
C12   C     C_R   0.298237 0.499474 0.472729 0.868905
C13   C     C_R   0.515035 0.936304 0.621856 0.143994
C14   C     C_3   0.614510 0.928358 0.718904 -0.495440
C15   C     C_3   0.616306 0.070432 0.717842 -0.484503
C16   C     C_R   0.424164 0.436352 0.058104 0.076021
C17   C     C_R   0.567585 0.574874 0.084116 0.515122
C18   C     C_R   0.568461 0.572685 0.939529 -0.266095
C19   C     C_R   0.423725 0.436920 0.915532 0.209919
C20   C     C_3   0.401976 0.299308 0.905699 -0.045178
C21   C     C_3   0.402825 0.298963 0.060115 -0.507933
C22   C     C_R   0.498022 0.739799 0.499891 0.874310
C23   C     C_R   0.701586 0.495140 0.527260 0.888404
C24   C     C_R   0.813933 0.488220 0.545733 -0.056122
C25   C     C_R   0.186269 0.490616 0.455438 -0.042747
C26   C     C_R   0.027298 0.394446 0.347279 -0.211158
C27   C     C_R   0.133639 0.418419 0.349637 -0.218093
C28   C     C_R   0.133423 0.544377 0.554829 -0.266508
H1    H     H_    0.680280 0.885140 0.672270 0.197649
H2    H     H_    0.605185 0.112609 0.817823 0.194547
H3    H     H_    0.682740 0.110270 0.669676 0.201825
H4    H     H_    0.625934 0.627511 0.894277 0.160527
H5    H     H_    0.467632 0.245034 0.871569 0.176884
H6    H     H_    0.325534 0.278020 0.094771 0.202265
H7    H     H_    0.470306 0.245833 0.113987 0.192415
H8    H     H_    0.827886 0.613267 0.720710 0.161695
H9    H     H_    0.988700 0.337319 0.264749 0.156190
H10   H     H_    0.017379 0.636714 0.732435 0.148198
H11   H     H_    0.175544 0.376393 0.272557 0.152811
H12   H     H_    0.175606 0.601724 0.635237 0.151337
H13   H     H_    0.414281 0.113667 0.289400 0.161455
H14   H     H_    0.414476 0.884526 0.288991 0.161221
H15   H     H_    0.600764 0.888207 0.818779 0.204493
N1    N     N_R   0.499290 0.499140 0.142710 -0.142981
N2    N     N_R   0.499290 0.499180 0.857070 -0.139468
O1    O     O_R   0.500010 0.316790 0.614690 -0.619930
O2    O     O_R   0.500000 0.316760 0.385350 -0.628922
O3    O     O_R   0.346360 0.499990 0.595720 -0.617736
O4    O     O_R   0.346350 0.499960 0.366370 -0.621129
O5    O     O_R   0.500000 0.683240 0.614650 -0.615851
O6    O     O_R   0.499990 0.683210 0.385310 -0.614683
O7    O     O_R   0.653650 0.500040 0.633630 -0.630105
O8    O     O_R   0.653640 0.500010 0.404280 -0.552745
Zn1   Zn    Zn3+2 0.500010 0.500020 0.653130 0.937570
Zn2   Zn    Zn3+2 0.499990 0.499980 0.346870 0.970997
C29   C     C_3   0.809788 0.319426 0.360453 -0.901582
H16   H     H_    0.857973 0.232763 0.364673 0.225151
H17   H     H_    0.733850 0.290386 0.393218 0.241250
H18   H     H_    0.795568 0.353859 0.253593 0.258214
O9    O     O_3   0.642503 0.642823 0.167557 -0.609674
C30   C     C_3   0.629782 0.773354 0.144355 0.082522
H19   H     H_    0.611844 0.817109 0.240735 0.188360
H20   H     H_    0.564137 0.799204 0.063349 0.092372
C31   C     C_3   0.732761 0.829465 0.109333 -0.357794
H21   H     H_    0.799090 0.798204 0.185631 0.242304
H22   H     H_    0.747276 0.795742 0.006879 0.206816
C32   C     C_3   0.729175 0.972624 0.109579 -0.961693
H23   H     H_    0.661188 0.006633 0.038044 0.260699
H24   H     H_    0.802687 0.010588 0.077152 0.269000
H25   H     H_    0.722075 0.008203 0.213868 0.267817
C33   C     C_3   0.294668 0.268800 0.825148 -0.836939
H26   H     H_    0.297907 0.282306 0.714363 0.259992
H27   H     H_    0.274467 0.169293 0.842149 0.233283
H28   H     H_    0.231944 0.329774 0.857094 0.241073

loop_
_geom_bond_atom_site_label_1
_geom_bond_atom_site_label_2
_ccdc_geom_bond_type
C8    C9    A    
C33   H28   S    
C23   C24   S    
C6    H10   S    
C26   H9    S    
C12   O4    A    
C16   C21   S    
C21   H7    S    
C30   C31   S    
C1    C8    S    
C9    C10   A    
C16   N1    A    
C11   C22   S    
C9    H13   S    
C19   C20   S    
C29   H18   S    
C22   O5    A    
C12   C25   S    
C12   O3    A    
C32   H25   S    
C31   H21   S    
O1    Zn1   S    
C7    C15   S    
C17   C18   A    
C23   O7    A    
C17   N1    A    
C7    C8    A    
C20   C33   S    
C2    C6    A    
C13   C14   S    
C4    C29   S    
C25   C28   A    
O3    Zn1   S    
C11   C13   A    
N1    Zn2   S    
C31   H22   S    
C26   C27   A    
O5    Zn1   S    
C5    C24   A    
C16   C19   A    
C20   H5    S    
O7    Zn1   S    
N2    Zn1   S    
C23   O8    A    
C2    C3    A    
O8    Zn2   S    
C22   O6    A    
C5    C6    A    
C4    C24   A    
C1    O1    A    
C5    H8    S    
C10   H14   S    
C31   C32   S    
C28   H12   S    
C17   O9    S    
C3    C4    A    
C18   N2    A    
C7    C13   A    
C18   H4    S    
C29   H16   S    
C15   H2    S    
O2    Zn2   S    
C10   C11   A    
C27   H11   S    
C33   H27   S    
C14   C15   S    
O9    C30   S    
C2    C28   A    
C21   H6    S    
C14   H1    S    
O6    Zn2   S    
C33   H26   S    
C20   C21   S    
O4    Zn2   S    
C25   C27   A    
C15   H3    S    
C30   H20   S    
C1    O2    A    
C19   N2    A    
C32   H23   S    
C29   H17   S    
C14   H15   S    
C32   H24   S    
C3    C26   A    
C30   H19   S    
