data_mof_unit_25448.cif
_audit_creation_date              2012-12-11T14:30:08-0500
_audit_creation_method            fapswitch 2.2
_symmetry_space_group_name_H-M    P1
_symmetry_Int_Tables_number       1
_space_group_crystal_system       triclinic
_cell_length_a                    12.904001
_cell_length_b                    12.904007
_cell_length_c                    26.889476
_cell_angle_alpha                 90.0
_cell_angle_beta                  90.000026
_cell_angle_gamma                 120.000217
_cell_volume                      3877.58207583

loop_
_atom_site_label
_atom_site_type_symbol
_atom_type_description
_atom_site_fract_x
_atom_site_fract_y
_atom_site_fract_z
_atom_type_partial_charge
C1    C     C_R   0.556819 0.459617 0.820867 0.545255
C2    C     C_R   0.895180 0.439479 0.677683 0.565834
C3    C     C_R   0.540382 0.097201 0.820867 0.545256
C4    C     C_R   0.560521 0.455701 0.677683 0.565835
C5    C     C_R   0.902798 0.443181 0.820867 0.545254
C6    C     C_R   0.544299 0.104820 0.677683 0.565836
C7    C     C_R   0.454138 0.560195 0.322412 0.576418
C8    C     C_R   0.440626 0.894790 0.177296 0.578522
C9    C     C_R   0.106057 0.545862 0.322412 0.576419
C10   C     C_R   0.454164 0.559374 0.177296 0.578524
C11   C     C_R   0.439805 0.893943 0.322412 0.576419
C12   C     C_R   0.105210 0.545836 0.177296 0.578523
C13   C     C_R   0.026269 0.501756 0.969954 -0.044278
C14   C     C_R   0.483138 0.992571 0.526804 -0.049339
C15   C     C_R   0.498244 0.524514 0.969954 -0.044277
C16   C     C_R   0.007428 0.490567 0.526804 -0.049340
C17   C     C_R   0.475486 0.973731 0.969954 -0.044278
C18   C     C_R   0.509434 0.516861 0.526804 -0.049339
C19   C     C_R   0.474810 0.971606 0.475553 -0.045106
C20   C     C_R   0.036915 0.512149 0.021964 -0.047482
C21   C     C_R   0.496796 0.525189 0.475553 -0.045105
C22   C     C_R   0.475233 0.963084 0.021964 -0.047482
C23   C     C_R   0.028394 0.503205 0.475553 -0.045105
C24   C     C_R   0.487851 0.524767 0.021964 -0.047481
C25   C     C_R   0.128869 0.717871 0.961731 -0.048676
C26   C     C_R   0.574090 0.868806 0.538508 -0.046998
C27   C     C_R   0.282129 0.411000 0.961731 -0.048675
C28   C     C_R   0.131193 0.705285 0.538508 -0.046996
C29   C     C_R   0.589001 0.871131 0.961731 -0.048676
C30   C     C_R   0.294715 0.425908 0.538508 -0.046996
C31   C     C_R   0.562899 0.844392 0.487655 -0.048143
C32   C     C_R   0.146170 0.727964 0.013188 -0.051544
C33   C     C_R   0.281492 0.437098 0.487655 -0.048143
C34   C     C_R   0.581793 0.853829 0.013187 -0.051543
C35   C     C_R   0.155607 0.718508 0.487655 -0.048145
C36   C     C_R   0.272035 0.418208 0.013187 -0.051543
C37   C     C_R   0.029423 0.591719 0.889417 -0.135538
C38   C     C_R   0.559772 0.981822 0.608435 -0.132221
C39   C     C_R   0.408281 0.437704 0.889417 -0.135537
C40   C     C_R   0.018177 0.577950 0.608435 -0.132220
C41   C     C_R   0.562296 0.970577 0.889417 -0.135538
C42   C     C_R   0.422050 0.440226 0.608435 -0.132222
C43   C     C_R   0.514437 0.881228 0.404898 -0.182374
C44   C     C_R   0.112196 0.637744 0.095233 -0.167013
C45   C     C_R   0.366790 0.485561 0.404898 -0.182367
C46   C     C_R   0.525547 0.887803 0.095233 -0.167013
C47   C     C_R   0.118772 0.633210 0.404898 -0.182375
C48   C     C_R   0.362255 0.474453 0.095233 -0.167013
C49   C     C_R   0.061967 0.535653 0.125757 0.013985
C50   C     C_R   0.470115 0.936412 0.373353 0.002297
C51   C     C_R   0.464347 0.526315 0.125757 0.013984
C52   C     C_R   0.063588 0.533703 0.373353 0.002295
C53   C     C_R   0.473685 0.938032 0.125757 0.013984
C54   C     C_R   0.466297 0.529884 0.373353 0.002298
C55   C     C_R   0.523753 0.060582 0.626576 0.037931
C56   C     C_R   0.972469 0.477476 0.868404 0.011892
C57   C     C_R   0.536828 0.476246 0.626576 0.037930
C58   C     C_R   0.505007 0.027531 0.868404 0.011893
C59   C     C_R   0.939417 0.463171 0.626576 0.037929
C60   C     C_R   0.522524 0.494993 0.868404 0.011893
C61   C     C_R   0.063168 0.604969 0.939983 0.039446
C62   C     C_R   0.539503 0.947327 0.558181 0.033646
C63   C     C_R   0.395031 0.458200 0.939983 0.039447
C64   C     C_R   0.052672 0.592177 0.558181 0.033641
C65   C     C_R   0.541800 0.936831 0.939983 0.039445
C66   C     C_R   0.407823 0.460495 0.558181 0.033645
C67   C     C_R   0.518447 0.899461 0.455885 0.038068
C68   C     C_R   0.096384 0.626594 0.043665 0.026530
C69   C     C_R   0.381014 0.481551 0.455884 0.038068
C70   C     C_R   0.530210 0.903615 0.043665 0.026531
C71   C     C_R   0.100538 0.618986 0.455885 0.038067
C72   C     C_R   0.373405 0.469791 0.043664 0.026532
C73   C     C_R   0.978676 0.386783 0.895124 0.414462
C74   C     C_R   0.462335 0.099265 0.595326 0.436089
C75   C     C_R   0.613217 0.591893 0.895124 0.414462
C76   C     C_R   0.900734 0.363070 0.595326 0.436094
C77   C     C_R   0.408107 0.021324 0.895124 0.414462
C78   C     C_R   0.636930 0.537663 0.595326 0.436096
C79   C     C_R   0.430747 0.011290 0.392392 0.440106
C80   C     C_R   0.992064 0.423171 0.104270 0.449226
C81   C     C_R   0.580544 0.569254 0.392392 0.440106
C82   C     C_R   0.431107 0.007935 0.104270 0.449227
C83   C     C_R   0.988710 0.419456 0.392392 0.440106
C84   C     C_R   0.576828 0.568894 0.104270 0.449227
C85   C     C_R   0.983614 0.389764 0.947399 -0.041886
C86   C     C_R   0.434054 0.058124 0.546865 -0.023221
C87   C     C_R   0.610236 0.593851 0.947399 -0.041885
C88   C     C_R   0.941875 0.375930 0.546865 -0.023221
C89   C     C_R   0.406150 0.016385 0.947399 -0.041885
C90   C     C_R   0.624070 0.565945 0.546865 -0.023223
C91   C     C_R   0.424993 0.024564 0.444140 -0.033374
C92   C     C_R   0.992588 0.409169 0.052227 -0.043087
C93   C     C_R   0.599572 0.575007 0.444141 -0.033373
C94   C     C_R   0.416581 0.007411 0.052227 -0.043087
C95   C     C_R   0.975436 0.400428 0.444141 -0.033375
C96   C     C_R   0.590830 0.583419 0.052227 -0.043087
C97   C     C_R   0.960758 0.297743 0.030082 0.201026
C98   C     C_R   0.363295 0.079327 0.466057 0.224643
C99   C     C_R   0.702258 0.663016 0.030082 0.201027
C100  C     C_R   0.920673 0.283967 0.466058 0.224644
C101  C     C_R   0.336985 0.039242 0.030082 0.201027
C102  C     C_R   0.716033 0.636706 0.466058 0.224644
C103  C     C_R   0.355931 0.079964 0.518457 0.233151
C104  C     C_R   0.951708 0.286814 0.977163 0.210462
C105  C     C_R   0.724035 0.644069 0.518458 0.233144
C106  C     C_R   0.335107 0.048293 0.977163 0.210462
C107  C     C_R   0.920035 0.275966 0.518458 0.233153
C108  C     C_R   0.713187 0.664895 0.977163 0.210462
Cr1   Cr    Cr6+3 0.487630 0.241180 0.750000 1.125075
Cr2   Cr    Cr6+3 0.753550 0.512370 0.750000 1.125086
Cr3   Cr    Cr6+3 0.758820 0.246450 0.750000 1.125080
Cr4   Cr    Cr6+3 0.241180 0.487630 0.250000 1.126448
Cr5   Cr    Cr6+3 0.512370 0.753550 0.250000 1.126448
Cr6   Cr    Cr6+3 0.246450 0.758820 0.250000 1.126448
H1    H     H_    0.167977 0.725575 0.111293 0.176895
H2    H     H_    0.541883 0.820567 0.389948 0.147079
H3    H     H_    0.274425 0.442404 0.111293 0.176895
H4    H     H_    0.179432 0.721317 0.389948 0.147080
H5    H     H_    0.557597 0.832022 0.111293 0.176895
H6    H     H_    0.278683 0.458114 0.389948 0.147081
H7    H     H_    0.604452 0.949604 0.632823 0.149117
H8    H     H_    0.047224 0.668415 0.866921 0.150674
H9    H     H_    0.345150 0.395546 0.632823 0.149118
H10   H     H_    0.621190 0.952775 0.866921 0.150674
H11   H     H_    0.050396 0.654850 0.632823 0.149126
H12   H     H_    0.331585 0.378810 0.866921 0.150673
H13   H     H_    0.194352 0.814801 0.029652 0.143017
H14   H     H_    0.593639 0.786492 0.472849 0.121926
H15   H     H_    0.185199 0.379553 0.029652 0.143015
H16   H     H_    0.213507 0.807148 0.472849 0.121927
H17   H     H_    0.620448 0.805647 0.029652 0.143016
H18   H     H_    0.192852 0.406358 0.472849 0.121927
H19   H     H_    0.612199 0.828640 0.562164 0.170566
H20   H     H_    0.162609 0.798030 0.939327 0.174485
H21   H     H_    0.216440 0.387798 0.562164 0.170573
H22   H     H_    0.635419 0.837390 0.939326 0.174484
H23   H     H_    0.171359 0.783560 0.562164 0.170582
H24   H     H_    0.201970 0.364581 0.939326 0.174485
O1    O     O_R   0.460870 0.120930 0.805240 -0.431869
O2    O     O_R   0.660060 0.539130 0.694760 -0.445347
O3    O     O_R   0.879070 0.339940 0.805240 -0.431868
O4    O     O_R   0.460870 0.120930 0.694760 -0.445356
O5    O     O_R   0.660060 0.539130 0.805240 -0.431868
O6    O     O_R   0.879070 0.339940 0.694760 -0.445351
O7    O     O_R   0.120930 0.460870 0.305240 -0.432767
O8    O     O_R   0.539130 0.660060 0.194760 -0.431481
O9    O     O_R   0.339940 0.879070 0.305240 -0.432768
O10   O     O_R   0.120930 0.460870 0.194760 -0.431481
O11   O     O_R   0.539130 0.660060 0.305240 -0.432768
O12   O     O_R   0.339940 0.879070 0.194760 -0.431480
O13   O     O_R   0.498910 0.350470 0.801870 -0.499764
O14   O     O_R   0.851560 0.501090 0.698130 -0.465814
O15   O     O_R   0.649530 0.148440 0.801870 -0.499763
O16   O     O_R   0.498910 0.350470 0.698130 -0.465819
O17   O     O_R   0.851560 0.501090 0.801870 -0.499763
O18   O     O_R   0.649530 0.148440 0.698130 -0.465815
O19   O     O_R   0.350470 0.498910 0.301870 -0.515442
O20   O     O_R   0.501090 0.851560 0.198130 -0.507832
O21   O     O_R   0.148440 0.649530 0.301870 -0.515442
O22   O     O_R   0.350470 0.498910 0.198130 -0.507832
O23   O     O_R   0.501090 0.851560 0.301870 -0.515442
O24   O     O_R   0.148440 0.649530 0.198130 -0.507832
O25   O     O_3   0.666667 0.333333 0.750000 -0.296594
O26   O     O_3   0.333333 0.666667 0.250000 -0.334000
F1    F     F_    0.923018 0.328966 0.134446 -0.522609
F2    F     F_    0.394773 0.065599 0.359129 -0.531495
F3    F     F_    0.671033 0.594051 0.134446 -0.522609
F4    F     F_    0.934403 0.329172 0.359129 -0.531489
F5    F     F_    0.405950 0.076982 0.134446 -0.522609
F6    F     F_    0.670828 0.605231 0.359129 -0.531489
F7    F     F_    0.437873 0.185253 0.610792 -0.571613
F8    F     F_    0.997318 0.307099 0.869366 -0.588595
F9    F     F_    0.747381 0.562127 0.610792 -0.571603
F10   F     F_    0.309780 0.002683 0.869366 -0.588596
F11   F     F_    0.814745 0.252619 0.610792 -0.571607
F12   F     F_    0.692903 0.690220 0.869366 -0.588595
S1    S     S_3+6 0.969513 0.186825 0.067068 0.127654
O27   O     O_2   0.846484 0.095925 0.084745 -0.190314
O28   O     O_2   0.021238 0.127221 0.036340 -0.122375
O29   O     O_3   0.060520 0.246268 0.116486 -0.490069
H25   H     H_    0.056953 0.177149 0.134112 0.389035
S2    S     S_3+6 0.294301 0.144014 0.429332 0.149540
O30   O     O_2   0.198103 0.048079 0.397653 -0.159375
O31   O     O_2   0.239358 0.200659 0.460169 -0.195491
O32   O     O_3   0.398597 0.251462 0.392821 -0.450375
H26   H     H_    0.353082 0.261735 0.365471 0.382510
S3    S     S_3+6 0.813176 0.782689 0.067069 0.127655
O33   O     O_2   0.904074 0.750559 0.084745 -0.190315
O34   O     O_2   0.872781 0.894018 0.036340 -0.122373
O35   O     O_3   0.753733 0.814253 0.116486 -0.490069
H27   H     H_    0.822852 0.879804 0.134112 0.389035
S4    S     S_3+6 0.855987 0.150285 0.429332 0.149542
O36   O     O_2   0.951922 0.150022 0.397655 -0.159370
O37   O     O_2   0.799339 0.038697 0.460170 -0.195495
O38   O     O_3   0.748540 0.147132 0.392820 -0.450368
H28   H     H_    0.738260 0.091335 0.365473 0.382504
S5    S     S_3+6 0.217313 0.030489 0.067069 0.127654
O39   O     O_2   0.249445 0.153517 0.084745 -0.190314
O40   O     O_2   0.105985 0.978765 0.036340 -0.122374
O41   O     O_3   0.185748 0.939481 0.116486 -0.490069
H29   H     H_    0.120197 0.943049 0.134112 0.389035
S6    S     S_3+6 0.849715 0.705701 0.429332 0.149540
O42   O     O_2   0.849978 0.801900 0.397655 -0.159368
O43   O     O_2   0.961303 0.760643 0.460170 -0.195500
O44   O     O_3   0.852867 0.601408 0.392821 -0.450366
H30   H     H_    0.908666 0.646926 0.365474 0.382503
S7    S     S_3+6 0.224541 0.060318 0.548517 0.112920
O45   O     O_2   0.237776 0.179645 0.560882 -0.212176
O46   O     O_2   0.119454 0.992098 0.514637 -0.131868
O47   O     O_3   0.199755 0.982072 0.601533 -0.530397
H31   H     H_    0.124517 0.973680 0.615048 0.375137
S8    S     S_3+6 0.894272 0.144659 0.948120 0.133642
O48   O     O_2   0.997455 0.131685 0.930108 -0.152645
O49   O     O_2   0.820562 0.045458 0.983502 -0.189416
O50   O     O_3   0.807294 0.133223 0.899674 -0.502128
H32   H     H_    0.825117 0.089711 0.873783 0.386990
S9    S     S_3+6 0.835778 0.775459 0.548518 0.112930
O51   O     O_2   0.941871 0.762228 0.560883 -0.212122
O52   O     O_2   0.872643 0.880546 0.514637 -0.131897
O53   O     O_3   0.782315 0.800243 0.601534 -0.530396
H33   H     H_    0.849133 0.875527 0.615031 0.375141
S10   S     S_3+6 0.250390 0.105730 0.948121 0.133642
O54   O     O_2   0.134232 0.002549 0.930109 -0.152643
O55   O     O_2   0.224901 0.179441 0.983502 -0.189416
O56   O     O_3   0.325933 0.192708 0.899674 -0.502128
H34   H     H_    0.264599 0.174885 0.873783 0.386990
S11   S     S_3+6 0.939680 0.164222 0.548518 0.112912
O57   O     O_2   0.820354 0.058129 0.560883 -0.212176
O58   O     O_2   0.007902 0.127357 0.514638 -0.131887
O59   O     O_3   0.017925 0.217684 0.601534 -0.530396
H35   H     H_    0.026358 0.150852 0.615039 0.375127
S12   S     S_3+6 0.855342 0.749613 0.948121 0.133642
O60   O     O_2   0.868317 0.865770 0.930108 -0.152644
O61   O     O_2   0.954542 0.775105 0.983502 -0.189416
O62   O     O_3   0.866778 0.674071 0.899674 -0.502128
H36   H     H_    0.910289 0.735406 0.873783 0.386990

loop_
_geom_bond_atom_site_label_1
_geom_bond_atom_site_label_2
_ccdc_geom_bond_type
C44   C49   A    
C4    O16   A    
S7    O47   S    
C80   C92   A    
C77   F10   S    
C82   C94   A    
S5    O41   S    
C18   C21   A    
C2    O6    A    
C5    C56   S    
C3    O15   A    
C6    C55   S    
C8    O20   A    
C50   C79   A    
C99   S3    S    
C12   C49   S    
C25   H20   S    
O44   H30   S    
C78   C90   A    
S9    O53   S    
C31   C67   A    
C99   C108  A    
C20   C92   A    
C77   C89   A    
O35   H27   S    
S6    O43   D    
C30   H21   S    
C32   H13   S    
Cr1   O13   S    
C103  S7    S    
C41   C58   A    
Cr2   O14   S    
C24   C96   A    
C101  S5    S    
Cr6   O24   S    
C9    O21   A    
C98   C103  A    
C14   C62   A    
C96   C99   A    
Cr6   O9    S    
C11   O23   A    
Cr4   O7    S    
C102  C105  A    
C84   C96   A    
S5    O40   D    
C84   F3    S    
S2    O30   D    
S3    O35   S    
Cr2   O17   S    
C58   C77   A    
C7    O11   A    
C55   C74   A    
Cr6   O26   S    
C48   C51   A    
C38   C55   A    
C94   C101  A    
O41   H29   S    
S1    O28   D    
S6    O44   S    
C107  S11   S    
C89   C106  A    
C42   H9    S    
C78   F9    S    
O62   H36   S    
C19   C67   A    
Cr1   O4    S    
Cr5   O20   S    
C6    O4    A    
Cr3   O18   S    
C34   C70   A    
C1    O13   A    
C79   C91   A    
C13   C20   A    
C33   C69   A    
C32   C68   A    
C25   C32   A    
C82   F5    S    
C35   C71   A    
C26   C31   A    
C79   F2    S    
C40   C59   A    
C22   C94   A    
C100  S4    S    
C9    C52   S    
C31   H14   S    
C48   C72   A    
C86   C103  A    
C14   C19   A    
C42   C57   A    
O53   H33   S    
C92   C97   A    
C44   H1    S    
C24   C72   A    
C2    O14   A    
Cr4   O26   S    
C16   C88   A    
C37   H8    S    
C27   H24   S    
S3    O34   D    
S6    O42   D    
C87   C108  A    
C45   C69   A    
S7    O45   D    
C18   C90   A    
S4    O38   S    
Cr5   O11   S    
C17   C89   A    
C14   C86   A    
Cr4   O19   S    
C1    C60   S    
C88   C107  A    
C41   H10   S    
C2    C59   S    
C41   C65   A    
S10   O56   S    
S9    O51   D    
C5    O17   A    
Cr5   O23   S    
C29   C34   A    
C37   C56   A    
S12   O62   S    
Cr4   O10   S    
C21   C69   A    
C53   C82   A    
C47   H4    S    
S2    O32   S    
S4    O37   D    
Cr5   O8    S    
C98   S2    S    
C52   C83   A    
C8    O12   A    
O50   H32   S    
C1    O5    A    
C23   C71   A    
C43   H2    S    
C4    O2    A    
O59   H35   S    
C81   C93   A    
C97   S1    S    
S11   O57   D    
S8    O50   S    
S1    O29   S    
C83   C95   A    
S11   O59   S    
S12   O61   D    
O56   H34   S    
Cr3   O25   S    
C25   C61   A    
C81   F6    S    
C74   C86   A    
C73   F8    S    
S10   O55   D    
Cr1   O16   S    
Cr3   O15   S    
C35   H16   S    
C73   C85   A    
C74   F7    S    
C30   C66   A    
C85   C104  A    
C27   C63   A    
Cr3   O6    S    
C10   O8    A    
C29   C65   A    
C39   C60   A    
C28   C64   A    
C45   H6    S    
C75   C87   A    
C15   C24   A    
S11   O58   D    
S8    O49   D    
C34   H17   S    
O47   H31   S    
C16   C23   A    
C105  S9    S    
Cr1   O25   S    
C44   C68   A    
C3    O1    A    
Cr6   O12   S    
C13   C85   A    
C10   O22   A    
C80   F1    S    
O29   H25   S    
C33   H18   S    
C15   C87   A    
C108  S12   S    
C101  C106  A    
C28   C35   A    
C76   C88   A    
C18   C66   A    
S5    O39   D    
C100  C107  A    
C15   C63   A    
C56   C73   A    
Cr4   O22   S    
C30   C33   A    
C75   F12   S    
C95   C100  A    
C93   C102  A    
C57   C78   A    
C20   C68   A    
C76   F11   S    
C42   C66   A    
C28   H23   S    
C90   C105  A    
S7    O46   D    
C8    C53   S    
C45   C54   A    
C37   C61   A    
Cr2   O25   S    
C43   C50   A    
C48   H3    S    
C7    O19   A    
C27   C36   A    
S9    O52   D    
C39   C63   A    
C83   F4    S    
C60   C75   A    
C17   C65   A    
C17   C22   A    
C40   C64   A    
C49   C80   A    
C97   C104  A    
Cr1   O1    S    
C10   C51   S    
S4    O36   D    
C12   O10   A    
Cr2   O2    S    
C26   C62   A    
S3    O33   D    
C26   H19   S    
C36   H15   S    
Cr5   O26   S    
C11   O9    A    
O32   H26   S    
C106  S10   S    
C21   C93   A    
C40   H11   S    
C59   C76   A    
C46   C53   A    
C9    O7    A    
S12   O60   D    
C23   C95   A    
C46   H5    S    
C11   C50   S    
C91   C98   A    
C102  S6    S    
Cr2   O5    S    
S10   O54   D    
S2    O31   D    
Cr6   O21   S    
C46   C70   A    
C38   H7    S    
C19   C91   A    
Cr3   O3    S    
C12   O24   A    
O38   H28   S    
C3    C58   S    
C29   H22   S    
C13   C61   A    
S8    O48   D    
C43   C67   A    
S1    O27   D    
C47   C52   A    
C47   C71   A    
C39   H12   S    
C104  S8    S    
C16   C64   A    
C7    C54   S    
C5    O3    A    
C51   C84   A    
C22   C70   A    
C54   C81   A    
C6    O18   A    
C36   C72   A    
C4    C57   S    
C38   C62   A    
