data_mof_unit_61554.cif
_audit_creation_date              2012-12-10T17:08:25-0500
_audit_creation_method            fapswitch 2.2
_symmetry_space_group_name_H-M    P1
_symmetry_Int_Tables_number       1
_space_group_crystal_system       triclinic
_cell_length_a                    18.977665
_cell_length_b                    18.635404
_cell_length_c                    18.512522
_cell_angle_alpha                 108.941573
_cell_angle_beta                  109.499013
_cell_angle_gamma                 109.88666
_cell_volume                      5045.04686722

loop_
_atom_site_label
_atom_site_type_symbol
_atom_type_description
_atom_site_fract_x
_atom_site_fract_y
_atom_site_fract_z
_atom_type_partial_charge
C1    C     C_R   0.376697 0.379775 0.496501 1.042464
C2    C     C_R   0.233187 0.242422 0.408684 -0.170449
C3    C     C_R   0.305703 0.313069 0.491046 -0.206827
C4    C     C_R   0.618711 0.498156 0.620993 1.072615
C5    C     C_R   0.314654 0.316998 0.570424 0.682411
C6    C     C_R   0.253469 0.250625 0.569582 -0.246764
C7    C     C_R   0.183740 0.178353 0.489790 -0.160663
C8    C     C_R   0.406249 0.537267 0.237622 0.336044
C9    C     C_R   0.406438 0.527380 0.159532 -0.191649
C10   C     C_R   0.330671 0.496858 0.084217 0.653319
C11   C     C_R   0.255574 0.482182 0.088216 -0.215426
C12   C     C_3   0.810024 0.500553 0.808503 -0.640509
C13   C     C_R   0.254367 0.493508 0.167013 -0.094853
C14   C     C_R   0.327400 0.511221 0.239572 -0.048145
C15   C     C_R   0.317801 0.503574 0.310413 -0.250177
C16   C     C_R   0.628893 0.620468 0.510131 0.955514
C17   C     C_R   0.239746 0.485392 0.310795 0.301689
C18   C     C_R   0.173226 0.479474 0.244414 0.631066
C19   C     C_R   0.181646 0.487531 0.174981 -0.262982
C20   C     C_R   0.719711 0.812669 0.646810 -0.255682
C21   C     C_R   0.741017 0.900117 0.689689 0.633899
C22   C     C_R   0.780168 0.958277 0.665135 0.615710
C23   C     C_3   0.848461 0.553813 0.766169 0.794549
C24   C     C_R   0.803360 0.930482 0.601886 -0.374129
C25   C     C_R   0.784539 0.842686 0.559883 0.007998
C26   C     C_R   0.735098 0.780766 0.576199 -0.004271
C27   C     C_R   0.706006 0.690129 0.523133 -0.134097
C28   C     C_R   0.382749 0.503068 0.378556 1.070458
C29   C     C_R   0.747139 0.667521 0.475926 0.440250
C30   C     C_R   0.803401 0.731111 0.468691 -0.146628
C31   C     C_R   0.817423 0.816003 0.505183 -0.061696
C32   C     C_R   0.000020 0.379784 0.880315 0.837418
C33   C     C_R   0.877359 0.500640 0.876655 1.087485
C34   C     C_3   0.766445 0.544143 0.852165 0.795716
C35   C     C_R   0.003666 0.619633 0.124356 0.918603
C36   C     C_R   0.117192 0.496076 0.115062 0.893109
C37   C     C_R   0.997260 0.117211 0.620125 0.815929
C38   C     C_R   0.119205 0.116272 0.495651 0.971658
C39   C     C_R   0.997532 0.877769 0.379698 0.922772
C40   C     C_3   0.672516 0.401961 0.657764 0.756875
C41   C     C_R   0.880766 0.879361 0.499936 0.872178
C42   C     C_R   0.022968 0.243974 0.912198 -0.318512
C43   C     C_R   0.023041 0.172803 0.921706 0.693792
C44   C     C_R   0.010046 0.101276 0.852320 0.351708
C45   C     C_R   0.216878 0.241167 0.327425 0.679420
C46   C     C_R   0.000348 0.102516 0.774702 -0.314200
C47   C     C_R   0.002369 0.175237 0.764642 0.086789
C48   C     C_R   0.009469 0.244583 0.832504 0.030468
C49   C     C_R   0.003566 0.313058 0.818724 -0.033674
C50   C     C_R   0.995603 0.315849 0.742333 -0.098025
C51   C     C_R   0.991894 0.249973 0.677441 -0.151632
C52   C     C_3   0.737978 0.402222 0.735628 0.727622
C53   C     C_R   0.995657 0.180385 0.688092 -0.050295
C54   C     C_R   0.918548 0.576559 0.230836 0.334699
C55   C     C_R   0.846963 0.549024 0.242289 -0.275162
C56   C     C_R   0.149415 0.166951 0.247730 -0.230390
C57   C     C_R   0.812095 0.602748 0.259084 0.642292
C58   C     C_R   0.855324 0.689069 0.276489 0.194881
C59   C     C_R   0.933834 0.720683 0.274237 -0.132187
C60   C     C_R   0.955227 0.659226 0.235016 -0.027561
C61   C     C_R   0.011519 0.684117 0.201516 -0.044638
C62   C     C_R   0.066120 0.772916 0.233349 -0.154513
C63   C     C_R   0.060846 0.835727 0.292468 -0.120871
C64   C     C_3   0.775772 0.557575 0.699852 -0.020509
C65   C     C_R   0.993848 0.810251 0.310990 0.013833
C66   C     C_3   0.689863 0.537053 0.779054 0.155207
C67   C     C_R   0.097216 0.093032 0.246708 -0.246775
C68   C     C_3   0.687297 0.498320 0.688329 -0.552322
C69   C     C_R   0.108857 0.094110 0.325481 0.630533
C70   C     C_R   0.174167 0.170731 0.407865 -0.097625
Cl1   Cl    Cl    0.680796 0.358285 0.559779 -0.422324
Cl2   Cl    Cl    0.797964 0.745758 0.280422 -0.468866
Cl3   Cl    Cl    0.897569 0.507619 0.711727 -0.461443
Cl4   Cl    Cl    0.588418 0.476036 0.771505 -0.255698
Cl5   Cl    Cl    0.840758 0.656973 0.937453 -0.419576
Cl6   Cl    Cl    0.798135 0.668594 0.730875 -0.461145
Cl7   Cl    Cl    0.221630 0.467910 0.393009 -0.426961
Cl8   Cl    Cl    0.508315 0.600410 0.332554 -0.580076
Cl9   Cl    Cl    0.735696 0.562374 0.429366 -0.435213
Cl10  Cl    Cl    0.005573 0.009279 0.861826 -0.434835
Cl11  Cl    Cl    0.970452 0.514533 0.232180 -0.420580
Cl12  Cl    Cl    0.782068 0.333243 0.702956 -0.426297
F1    F     F_    0.914802 0.638418 0.831102 -0.504742
F2    F     F_    0.692578 0.363221 0.770329 -0.477563
F3    F     F_    0.034780 0.173224 0.998304 -0.599023
F4    F     F_    0.736835 0.571189 0.260155 -0.558310
F5    F     F_    0.737268 0.502603 0.894904 -0.515249
F6    F     F_    0.383755 0.384862 0.649282 -0.574411
F7    F     F_    0.262376 0.312362 0.323708 -0.656435
F8    F     F_    0.058440 0.018286 0.319480 -0.674905
F9    F     F_    0.588854 0.345163 0.634295 -0.523787
F10   F     F_    0.331163 0.486447 0.008442 -0.603877
F11   F     F_    0.099946 0.465637 0.247988 -0.544647
F12   F     F_    0.724274 0.928534 0.755960 -0.565163
F13   F     F_    0.799417 0.042897 0.705558 -0.594561
H1    H     H_    0.138002 0.166535 0.186208 0.242967
H2    H     H_    0.034139 0.298439 0.967985 0.178216
H3    H     H_    0.989014 0.044987 0.722301 0.201214
H4    H     H_    0.987089 0.253889 0.618961 0.182621
H5    H     H_    0.112662 0.793845 0.212457 0.185572
H6    H     H_    0.817644 0.485256 0.237189 0.239605
H7    H     H_    0.107289 0.904439 0.321556 0.184968
H8    H     H_    0.772992 0.533594 0.635058 0.218847
H9    H     H_    0.698733 0.603839 0.798042 0.202348
H10   H     H_    0.046772 0.034582 0.184335 0.235368
H11   H     H_    0.260244 0.256058 0.631962 0.203454
H12   H     H_    0.466334 0.546102 0.157967 0.234367
H13   H     H_    0.198210 0.460643 0.028881 0.168772
H14   H     H_    0.695785 0.772735 0.673516 0.235471
H15   H     H_    0.837350 0.978460 0.587293 0.182104
H16   H     H_    0.836483 0.714256 0.434143 0.178999
H17   H     H_    0.990915 0.368654 0.732390 0.204704
O1    O     O_R   0.408680 0.356690 0.448550 -0.590848
O2    O     O_R   0.947460 0.091580 0.539110 -0.613280
O3    O     O_R   0.143620 0.091630 0.552020 -0.617607
O4    O     O_R   0.408070 0.460080 0.551430 -0.563898
O5    O     O_R   0.039640 0.091620 0.448010 -0.569635
O6    O     O_R   0.052540 0.908440 0.460910 -0.629365
O7    O     O_R   0.948560 0.908430 0.356900 -0.513241
O8    O     O_R   0.960360 0.908390 0.552000 -0.624814
O9    O     O_R   0.856380 0.908390 0.447990 -0.565103
O10   O     O_R   0.592400 0.448290 0.540670 -0.582307
O11   O     O_R   0.591790 0.551690 0.643550 -0.605587
O12   O     O_R   0.049530 0.460050 0.906180 -0.623878
O13   O     O_R   0.591930 0.539920 0.448570 -0.542470
O14   O     O_R   0.591320 0.643310 0.551450 -0.645606
O15   O     O_R   0.408210 0.448310 0.356450 -0.563263
O16   O     O_R   0.407600 0.551710 0.459330 -0.592790
O17   O     O_R   0.946070 0.356680 0.906240 -0.588258
O18   O     O_R   0.853500 0.448330 0.905250 -0.515525
O19   O     O_R   0.956960 0.551700 0.905190 -0.545349
O20   O     O_R   0.945120 0.539960 0.088480 -0.575381
O21   O     O_R   0.048580 0.643330 0.088420 -0.619915
O22   O     O_R   0.037690 0.448310 0.089470 -0.549225
O23   O     O_R   0.141150 0.551680 0.089410 -0.635992
O24   O     O_R   0.051440 0.091580 0.643120 -0.619509
Zn1   Zn    Zn3+2 0.500410 0.430960 0.431310 1.195489
Zn2   Zn    Zn3+2 0.499590 0.569040 0.568690 1.148613
Zn3   Zn    Zn3+2 0.928250 0.430980 0.997370 1.222392
Zn4   Zn    Zn3+2 0.066400 0.569030 0.997290 1.118804
Zn5   Zn    Zn3+2 0.069430 0.000010 0.569460 1.066547
Zn6   Zn    Zn3+2 0.930570 0.000010 0.430560 1.149952

loop_
_geom_bond_atom_site_label_1
_geom_bond_atom_site_label_2
_ccdc_geom_bond_type
C33   O18   A    
C25   C31   A    
C64   H8    S    
C66   C68   S    
C63   C65   A    
C40   Cl1   S    
C27   C29   A    
C22   F13   S    
C32   O12   A    
O6    Zn5   S    
C35   O21   A    
C7    C70   A    
O3    Zn5   S    
C15   C28   S    
C54   C60   A    
O20   Zn3   S    
C12   C23   S    
C26   C27   A    
C29   C30   A    
C23   F1    S    
C64   C68   S    
C19   C36   S    
C30   C31   A    
C21   F12   S    
C66   Cl4   S    
C57   F4    S    
C15   C17   A    
C18   C19   A    
C41   O9    A    
C52   F2    S    
O16   Zn2   S    
O7    Zn6   S    
O19   Zn4   S    
C46   C47   A    
C38   O5    A    
C7    C38   S    
C45   C56   A    
C8    C9    A    
O17   Zn3   S    
C1    O4    A    
C45   F7    S    
C9    C10   A    
C28   O15   A    
C34   Cl5   S    
C47   C53   A    
C37   C53   S    
C33   O19   A    
C16   C27   S    
C46   H3    S    
C10   F10   S    
C59   C60   A    
C41   O8    A    
C21   C22   A    
C8    Cl8   S    
C39   C65   S    
C34   C66   S    
C69   C70   A    
C1    O1    A    
C23   Cl3   S    
C63   H7    S    
O18   Zn3   S    
C50   H17   S    
C32   O17   A    
C12   C52   S    
C44   C46   A    
C50   C51   A    
O4    Zn2   S    
C2    C45   A    
C51   H4    S    
O23   Zn4   S    
C13   C19   A    
C43   F3    S    
C66   H9    S    
C44   Cl10  S    
C24   H15   S    
C24   C25   A    
C42   H2    S    
O22   Zn3   S    
C4    C68   S    
C67   H10   S    
O11   Zn2   S    
C37   O2    A    
O13   Zn1   S    
C58   C59   A    
C40   C52   S    
C4    O11   A    
C60   C61   A    
C1    C3    S    
C43   C44   A    
C62   C63   A    
C47   C48   A    
C29   Cl9   S    
C17   Cl7   S    
C17   C18   A    
C64   Cl6   S    
C37   O24   A    
C4    O10   A    
C35   C61   S    
C42   C48   A    
C52   Cl12  S    
C6    H11   S    
C62   H5    S    
C48   C49   A    
C55   C57   A    
O1    Zn1   S    
C42   C43   A    
C12   C34   S    
C69   F8    S    
C56   C67   A    
C36   O23   A    
O2    Zn6   S    
C16   O13   A    
C67   C69   A    
C56   H1    S    
C54   C55   A    
O14   Zn2   S    
C8    C14   A    
C31   C41   S    
O9    Zn6   S    
O12   Zn4   S    
O8    Zn5   S    
O10   Zn1   S    
C3    C5    A    
C36   O22   A    
C6    C7    A    
C9    H12   S    
C39   O6    A    
C55   H6    S    
C30   H16   S    
C2    C3    A    
C25   C26   A    
C23   C64   S    
C2    C70   A    
C59   C65   A    
C38   O3    A    
C11   C13   A    
C58   Cl2   S    
C57   C58   A    
C5    C6    A    
C20   C26   A    
C39   O7    A    
O24   Zn5   S    
O5    Zn6   S    
C22   C24   A    
C34   F5    S    
C40   F9    S    
C61   C62   A    
C32   C49   S    
C10   C11   A    
C20   H14   S    
C20   C21   A    
O21   Zn4   S    
C49   C50   A    
C40   C68   S    
C11   H13   S    
C5    F6    S    
C18   F11   S    
C14   C15   A    
O15   Zn1   S    
C51   C53   A    
C12   C33   S    
C13   C14   A    
C16   O14   A    
C35   O20   A    
C54   Cl11  S    
C28   O16   A    
