data_mof_unit_27750.cif
_audit_creation_date              2012-12-10T18:45:04-0500
_audit_creation_method            fapswitch 2.2
_symmetry_space_group_name_H-M    P1
_symmetry_Int_Tables_number       1
_space_group_crystal_system       triclinic
_cell_length_a                    10.708561
_cell_length_b                    9.84755
_cell_length_c                    10.625354
_cell_angle_alpha                 89.944991
_cell_angle_beta                  89.962144
_cell_angle_gamma                 90.015533
_cell_volume                      1120.47560798

loop_
_atom_site_label
_atom_site_type_symbol
_atom_type_description
_atom_site_fract_x
_atom_site_fract_y
_atom_site_fract_z
_atom_type_partial_charge
C1    C     C_R   0.259904 0.499946 0.500738 0.856545
C2    C     C_R   0.740061 0.499984 0.500262 0.824989
C3    C     C_R   0.935922 0.620838 0.527156 -0.212056
C4    C     C_R   0.063872 0.620863 0.527173 -0.202108
C5    C     C_R   0.568744 0.072317 0.586867 0.465343
C6    C     C_R   0.431391 0.073162 0.412237 0.477840
C7    C     C_R   0.565996 0.927639 0.587952 -0.210925
C8    C     C_R   0.434367 0.927622 0.411651 -0.233767
C9    C     C_R   0.503521 0.500070 0.260434 0.868316
C10   C     C_R   0.503230 0.499909 0.739553 0.867721
C11   C     C_R   0.715544 0.619613 0.130587 -0.180536
C12   C     C_R   0.715989 0.617718 0.868152 -0.194189
C13   C     C_R   0.815456 0.676261 0.064519 -0.131374
C14   C     C_R   0.815856 0.674799 0.933547 -0.147854
C15   C     C_R   0.613413 0.560891 0.933734 0.099757
C16   C     C_R   0.613315 0.561476 0.065641 0.087000
C17   C     C_R   0.511832 0.499770 0.128227 -0.099723
C18   C     C_R   0.511811 0.499247 0.871702 -0.084222
C19   C     C_R   0.415848 0.434258 0.064487 -0.195489
C20   C     C_R   0.415800 0.434069 0.935936 -0.211316
C21   C     C_R   0.063814 0.378889 0.478059 -0.202402
C22   C     C_R   0.936038 0.379211 0.476442 -0.215169
C23   C     C_R   0.872470 0.500077 0.501179 -0.000105
C24   C     C_R   0.127402 0.499917 0.502142 -0.006380
H1    H     H_    0.339575 0.385797 0.114617 0.161112
H2    H     H_    0.339446 0.385544 0.886203 0.148362
H3    H     H_    0.720400 0.619835 0.232205 0.147946
H4    H     H_    0.721198 0.616490 0.766555 0.142428
H5    H     H_    0.893448 0.719970 0.115084 0.139798
H6    H     H_    0.894331 0.716692 0.882385 0.148199
H7    H     H_    0.887119 0.714644 0.547767 0.150673
H8    H     H_    0.112620 0.714796 0.547357 0.155270
H9    H     H_    0.616785 0.871637 0.658854 0.156769
H10   H     H_    0.385016 0.869919 0.341169 0.164636
N1    N     N_R   0.500000 0.857200 0.500000 -0.109252
N2    N     N_R   0.500000 0.142810 0.500000 -0.149648
O1    O     O_R   0.316770 0.614620 0.499990 -0.622612
O2    O     O_R   0.683230 0.614620 0.500010 -0.637706
O3    O     O_R   0.316800 0.385290 0.500000 -0.605909
O4    O     O_R   0.683200 0.385290 0.500000 -0.613390
O5    O     O_R   0.500010 0.614690 0.316770 -0.626082
O6    O     O_R   0.499990 0.614690 0.683230 -0.626627
O7    O     O_R   0.500040 0.385360 0.316770 -0.560846
O8    O     O_R   0.499960 0.385360 0.683230 -0.563796
Zn1   Zn    Zn3+2 0.500000 0.653120 0.500000 0.936327
Zn2   Zn    Zn3+2 0.500000 0.346880 0.500000 1.016966
H11   H     H_    0.112370 0.284617 0.459555 0.150881
H12   H     H_    0.887468 0.285443 0.455267 0.145991
O9    O     O_3   0.632138 0.144273 0.678735 -0.605883
C25   C     C_3   0.760720 0.110508 0.680818 0.075754
H13   H     H_    0.814458 0.206150 0.669235 0.175253
H14   H     H_    0.791435 0.041529 0.603292 0.100056
C26   C     C_3   0.794421 0.049057 0.808602 -0.337830
H15   H     H_    0.772512 0.123311 0.884211 0.238632
H16   H     H_    0.738203 0.956079 0.825582 0.221705
C27   C     C_3   0.932701 0.012629 0.814972 -0.989637
H17   H     H_    0.956330 0.936663 0.741463 0.257955
H18   H     H_    0.953721 0.968234 0.908536 0.270557
H19   H     H_    0.991138 0.104746 0.801554 0.273328
O10   O     O_3   0.369893 0.149026 0.320622 -0.606765
C28   C     C_3   0.256315 0.090611 0.279266 0.041828
H20   H     H_    0.186453 0.173577 0.272469 0.156817
H21   H     H_    0.215579 0.015543 0.346367 0.115062
C29   C     C_3   0.272645 0.030860 0.147141 -0.325399
H22   H     H_    0.292918 0.114342 0.079623 0.227029
H23   H     H_    0.352812 0.959487 0.144911 0.223175
C30   C     C_3   0.155230 0.956016 0.104918 -0.982640
H24   H     H_    0.135758 0.869081 0.168710 0.264383
H25   H     H_    0.168909 0.916415 0.008075 0.272147
H26   H     H_    0.073910 0.026012 0.105116 0.265090

loop_
_geom_bond_atom_site_label_1
_geom_bond_atom_site_label_2
_ccdc_geom_bond_type
C28   C29   S    
C25   H14   S    
C12   C15   A    
C2    O4    A    
N2    Zn2   S    
C1    O1    A    
C10   O6    A    
C11   C13   A    
C11   C16   A    
C2    O2    A    
C15   C18   A    
C9    O5    A    
C19   C20   A    
C27   H19   S    
C11   H3    S    
C4    C24   A    
C30   H26   S    
C29   H22   S    
C26   C27   S    
C25   H13   S    
C12   C14   A    
C8    H10   S    
C26   H15   S    
C3    H7    S    
C7    H9    S    
C5    O9    S    
C4    H8    S    
C20   H2    S    
C14   H6    S    
O3    Zn2   S    
C19   H1    S    
C10   O8    A    
C6    C8    A    
C13   H5    S    
C17   C19   A    
C6    N2    A    
C22   H12   S    
C18   C20   A    
C26   H16   S    
C28   H20   S    
C10   C18   S    
O7    Zn2   S    
C9    O7    A    
C25   C26   S    
C29   C30   S    
O4    Zn2   S    
O1    Zn1   S    
C30   H24   S    
N1    Zn1   S    
C5    N2    A    
C6    O10   S    
C27   H17   S    
C12   H4    S    
C1    C24   S    
C28   H21   S    
O9    C25   S    
C21   C24   A    
C9    C17   S    
C2    C23   S    
C5    C7    A    
C1    O3    A    
C22   C23   A    
C16   C17   A    
O2    Zn1   S    
O5    Zn1   S    
O8    Zn2   S    
C13   C14   A    
C30   H25   S    
C3    C23   A    
C21   C22   A    
C7    N1    A    
C8    N1    A    
C15   C16   A    
C3    C4    A    
C27   H18   S    
O10   C28   S    
C21   H11   S    
O6    Zn1   S    
C29   H23   S    
