data_mof_unit_16945.cif
_audit_creation_date              2013-03-05T16:09:57-0500
_audit_creation_method            fapswitch 2.2
_symmetry_space_group_name_H-M    P1
_symmetry_Int_Tables_number       1
_space_group_crystal_system       triclinic
_cell_length_a                    10.803272
_cell_length_b                    9.908814
_cell_length_c                    10.963496
_cell_angle_alpha                 89.992397
_cell_angle_beta                  95.41131
_cell_angle_gamma                 89.998567
_cell_volume                      1168.38568973

loop_
_atom_site_label
_atom_site_type_symbol
_atom_site_description
_atom_site_fract_x
_atom_site_fract_y
_atom_site_fract_z
_atom_type_partial_charge
O1    O     O_R   0.316770 0.614620 0.499990 -0.552281
O2    O     O_R   0.683230 0.614620 0.500010 -0.552338
O3    O     O_R   0.316800 0.385290 0.500000 -0.608771
O4    O     O_R   0.683200 0.385290 0.500000 -0.609463
C1    C     C_R   0.260825 0.500830 0.509622 0.944124
C2    C     C_R   0.739204 0.500834 0.490470 0.943989
O5    O     O_R   0.500010 0.614690 0.316770 -0.606891
O6    O     O_R   0.499990 0.614690 0.683230 -0.606889
O7    O     O_R   0.500040 0.385360 0.316770 -0.537202
O8    O     O_R   0.499960 0.385360 0.683230 -0.537490
C3    C     C_R   0.508304 0.499610 0.260706 0.918202
C4    C     C_R   0.491778 0.499604 0.739321 0.917486
Zn1   Zn    Zn3+2 0.500000 0.653120 0.500000 1.101148
Zn2   Zn    Zn3+2 0.500000 0.346880 0.500000 1.111728
C5    C     C_R   0.567636 0.742078 0.114291 -0.097182
C6    C     C_R   0.432805 0.742154 0.885796 -0.097093
H1    H     H_    0.623968 0.745574 0.200887 0.202909
H2    H     H_    0.376434 0.745737 0.799229 0.203036
C7    C     C_R   0.540170 0.863366 0.053707 0.051898
C8    C     C_R   0.460379 0.863408 0.946372 0.051949
H3    H     H_    0.573088 0.957186 0.094905 0.230603
H4    H     H_    0.427519 0.957259 0.905179 0.230688
C9    C     C_R   0.477654 0.619291 0.937967 0.045550
C10   C     C_R   0.522717 0.619271 0.062102 0.045358
C11   C     C_R   0.518915 0.497370 0.128369 -0.266883
C12   C     C_R   0.481376 0.497374 0.871706 -0.266869
C13   C     C_R   0.505180 0.374112 0.063556 0.221353
C14   C     C_R   0.495248 0.374120 0.936558 0.221045
C15   C     C_R   0.062413 0.382524 0.523954 0.143791
C16   C     C_R   0.937665 0.382549 0.476349 0.144077
C17   C     C_R   0.872168 0.505044 0.479531 -0.324829
C18   C     C_R   0.127905 0.505020 0.520776 -0.325171
C19   C     C_R   0.935927 0.629775 0.489218 0.222576
C20   C     C_R   0.064152 0.629757 0.511232 0.222625
C21   C     C_R   0.571899 0.073923 0.587313 0.401182
C22   C     C_R   0.428044 0.073970 0.412712 0.401772
C23   C     C_R   0.568498 0.929516 0.591562 0.190342
C24   C     C_R   0.431495 0.929544 0.408448 0.189887
N1    N     N_R   0.500000 0.857200 0.500000 -0.206870
N2    N     N_R   0.500000 0.142810 0.500000 -0.176486
N3    N     N_R   0.500045 0.245995 0.123727 0.261291
O9    O     O_R   0.409786 0.163631 0.089093 -0.333259
O10   O     O_R   0.599425 0.198242 0.184889 -0.299380
N4    N     N_R   0.500565 0.246023 0.876439 0.261409
O11   O     O_R   0.590957 0.163821 0.911117 -0.332892
O12   O     O_R   0.401207 0.198069 0.815406 -0.299277
N5    N     N_R   0.113729 0.274515 0.602023 0.208632
O13   O     O_R   0.193670 0.304203 0.694316 -0.340790
O14   O     O_R   0.064256 0.154907 0.600003 -0.316639
N6    N     N_R   0.886429 0.274697 0.398102 0.208653
O15   O     O_R   0.806981 0.304627 0.305475 -0.341269
O16   O     O_R   0.935406 0.154839 0.400547 -0.316998
N7    N     N_R   0.872544 0.756511 0.467993 0.276225
O17   O     O_R   0.814755 0.781669 0.360925 -0.372397
O18   O     O_R   0.887288 0.853286 0.548248 -0.295739
N8    N     N_R   0.127560 0.756454 0.532537 0.276240
O19   O     O_R   0.185452 0.781441 0.639585 -0.372476
O20   O     O_R   0.112863 0.853313 0.452340 -0.296148
O21   O     O_3   0.635165 0.147979 0.679757 -0.531932
C25   C     C_3   0.764125 0.146713 0.668996 0.231852
H5    H     H_    0.784715 0.169910 0.574401 0.179380
H6    H     H_    0.805748 0.047277 0.694885 0.223273
C26   C     C_3   0.825019 0.252570 0.755986 -0.678615
H7    H     H_    0.811499 0.226035 0.852135 0.286459
H8    H     H_    0.926101 0.257918 0.747901 0.247073
H9    H     H_    0.783597 0.353412 0.734954 0.227707
O22   O     O_3   0.364564 0.148126 0.320410 -0.532081
C27   C     C_3   0.235564 0.146106 0.330990 0.231256
H10   H     H_    0.214717 0.168989 0.425582 0.179673
H11   H     H_    0.194434 0.046516 0.304886 0.223212
C28   C     C_3   0.174212 0.251777 0.244062 -0.678928
H12   H     H_    0.190428 0.227266 0.148085 0.287027
H13   H     H_    0.072603 0.254139 0.249962 0.248909
H14   H     H_    0.213058 0.353378 0.267096 0.226435
N9    N     N_R   0.633741 0.862498 0.695428 0.222694
O23   O     O_R   0.646447 0.921739 0.801437 -0.360853
O24   O     O_R   0.703927 0.759042 0.681136 -0.326905
N10   N     N_R   0.366369 0.862525 0.304560 0.222518
O25   O     O_R   0.353980 0.921682 0.198490 -0.361019
O26   O     O_R   0.295935 0.759268 0.318859 -0.326930

loop_
_geom_bond_atom_site_label_1
_geom_bond_atom_site_label_2
_geom_bond_distance
_ccdc_geom_bond_type
C26   H8    1.105180 S    
C20   N8    1.438694 S    
O6    Zn1   2.044575 S    
N3    O9    1.300522 A    
C7    C8    1.391587 A    
O7    Zn2   2.044698 S    
C22   O22   1.379555 S    
N5    O14   1.299458 A    
N7    O17   1.300584 A    
O5    C3    1.302568 A    
C15   N5    1.447602 S    
C25   C26   1.524649 S    
O1    C1    1.288333 A    
C25   H6    1.108784 S    
C7    H3    1.079137 S    
C15   C18   1.407039 A    
C16   C17   1.407049 A    
N10   O26   1.293416 A    
C3    C11   1.466305 S    
N8    O19   1.300568 A    
C21   O21   1.379277 S    
C9    C12   1.412262 A    
O2    Zn1   2.015888 S    
C27   H10   1.105326 S    
N6    O16   1.299414 A    
C9    C10   1.401506 A    
C17   C19   1.414049 A    
C6    C8    1.391499 A    
C1    C18   1.453205 S    
C2    C17   1.453276 S    
C23   N9    1.443218 S    
C26   H9    1.110095 S    
O21   C25   1.409265 S    
N3    O10   1.300120 A    
O2    C2    1.288310 A    
N4    O12   1.300126 A    
N6    O15   1.300537 A    
N7    O18   1.301103 A    
C19   N7    1.438711 S    
C16   N6    1.447447 S    
O22   C27   1.409437 S    
C22   N2    1.358412 A    
C10   C11   1.412071 A    
O4    C2    1.303727 A    
O8    Zn2   2.044797 S    
C28   H13   1.105935 S    
N10   O25   1.297799 A    
C24   N10   1.443037 S    
C14   N4    1.433937 S    
C4    C12   1.466443 S    
C25   H5    1.105137 S    
C18   C20   1.413979 A    
C5    C7    1.391468 A    
N9    O23   1.297803 A    
C15   C16   1.398569 A    
N9    O24   1.293357 A    
C13   N3    1.434057 S    
N5    O13   1.300577 A    
O6    C4    1.302526 A    
C19   C20   1.383515 A    
O7    C3    1.295206 A    
O3    Zn2   2.015414 S    
O8    C4    1.295329 A    
C6    H2    1.078821 S    
C5    C10   1.411203 A    
C8    H4    1.079092 S    
C6    C9    1.411224 A    
O1    Zn1   2.015908 S    
N4    O11   1.300571 A    
C5    H1    1.078867 S    
C21   C23   1.432242 A    
O3    C1    1.303667 A    
C28   H14   1.110644 S    
C11   C13   1.413847 A    
C12   C14   1.413940 A    
C22   C24   1.432459 A    
C21   N2    1.358363 A    
C28   H12   1.109831 S    
C23   N1    1.388842 A    
C24   N1    1.388792 A    
C27   C28   1.524638 S    
N8    O20   1.301092 A    
O4    Zn2   2.015431 S    
Zn1   N1    2.022191 S    
Zn2   N2    2.022093 S    
C26   H7    1.109333 S    
O5    Zn1   2.044675 S    
C27   H11   1.108728 S    
C13   C14   1.386349 A    
