data_mof_unit_11718.cif
_audit_creation_date              2012-12-10T17:47:14-0500
_audit_creation_method            fapswitch 2.2
_symmetry_space_group_name_H-M    P1
_symmetry_Int_Tables_number       1
_space_group_crystal_system       triclinic
_cell_length_a                    11.65834
_cell_length_b                    14.754819
_cell_length_c                    14.816716
_cell_angle_alpha                 64.048894
_cell_angle_beta                  105.509415
_cell_angle_gamma                 102.031582
_cell_volume                      2195.94785301

loop_
_atom_site_label
_atom_site_type_symbol
_atom_type_description
_atom_site_fract_x
_atom_site_fract_y
_atom_site_fract_z
_atom_type_partial_charge
C1    C     C_R   0.478470 0.120046 0.312004 0.817724
C2    C     C_R   0.516430 0.880365 0.687884 0.821538
C3    C     C_R   0.368600 0.330887 0.005708 0.065586
C4    C     C_R   0.534761 0.681321 0.003364 0.062981
C5    C     C_R   0.465599 0.471294 0.056907 0.101278
C6    C     C_R   0.429167 0.541482 0.954683 0.095777
C7    C     C_R   0.351433 0.504884 0.883890 -0.281504
C8    C     C_R   0.525039 0.509405 0.131877 -0.277391
C9    C     C_R   0.322348 0.401697 0.908913 -0.212687
C10   C     C_R   0.556268 0.612471 0.105691 -0.210954
C11   C     C_R   0.739227 0.300456 0.628958 0.318227
C12   C     C_R   0.310608 0.736923 0.310310 0.317330
C13   C     C_R   0.686420 0.210427 0.619000 -0.041274
C14   C     C_R   0.338845 0.808330 0.353141 -0.036258
C15   C     C_R   0.510763 0.287109 0.510406 0.106669
C16   C     C_R   0.487423 0.711719 0.486598 0.110507
C17   C     C_R   0.563721 0.384284 0.510413 -0.123126
C18   C     C_R   0.471130 0.641778 0.439650 -0.119146
C19   C     C_R   0.677440 0.388558 0.576426 -0.014555
C20   C     C_R   0.373054 0.649493 0.356443 -0.022696
C21   C     C_R   0.504485 0.475821 0.452755 0.082707
C22   C     C_R   0.544600 0.560460 0.477570 0.090981
C23   C     C_R   0.284449 0.999780 0.500513 0.819371
C24   C     C_R   0.715711 0.999493 0.500521 0.820538
C25   C     C_R   0.662162 0.566118 0.531281 -0.249563
C26   C     C_R   0.413550 0.489762 0.365408 -0.264757
C27   C     C_R   0.726471 0.481982 0.584793 -0.007348
C28   C     C_R   0.344056 0.571088 0.320492 -0.005110
C29   C     C_1   0.162933 0.998649 0.502071 -0.160144
C30   C     C_1   0.837554 0.998440 0.501525 -0.208880
C31   C     C_1   0.060257 0.997735 0.502673 0.000272
C32   C     C_1   0.940287 0.997771 0.502337 -0.018877
C33   C     C_R   0.451940 0.189504 0.203550 -0.114213
C34   C     C_R   0.517678 0.814061 0.796493 -0.105587
C35   C     C_R   0.344479 0.225926 0.028650 0.443784
C36   C     C_R   0.575655 0.784987 0.976780 0.445719
C37   C     C_R   0.382196 0.155956 0.129174 -0.300275
C38   C     C_R   0.570105 0.850001 0.872979 -0.305306
C39   C     C_R   0.486265 0.292823 0.177136 -0.285765
C40   C     C_R   0.464596 0.714338 0.823374 -0.243252
C41   C     C_R   0.440263 0.365446 0.080810 0.029626
C42   C     C_R   0.472908 0.645832 0.926481 0.020426
Cu1   Cu    Cu3+1 0.469550 0.918260 0.475690 0.930572
Cu2   Cu    Cu3+1 0.530450 0.081740 0.524310 0.929198
H1    H     H_    0.265167 0.377664 0.850900 0.192342
H2    H     H_    0.600735 0.637544 0.166316 0.198549
H3    H     H_    0.706974 0.638125 0.529595 0.145318
H4    H     H_    0.400059 0.441100 0.326485 0.143581
H5    H     H_    0.422921 0.690366 0.762173 0.172830
H6    H     H_    0.548078 0.314653 0.234383 0.161682
H7    H     H_    0.609919 0.927744 0.852380 0.160991
H8    H     H_    0.354174 0.075900 0.149581 0.153429
H9    H     H_    0.311756 0.554639 0.807800 0.145738
H10   H     H_    0.545384 0.461899 0.212515 0.145900
H11   H     H_    0.292969 0.876010 0.316134 0.156246
H12   H     H_    0.735328 0.144428 0.657082 0.151863
N1    N     N_R   0.576230 0.204580 0.560790 -0.217660
N2    N     N_R   0.423770 0.795420 0.439210 -0.217015
O1    O     O_R   0.459870 0.022090 0.338120 -0.586964
O2    O     O_R   0.540130 0.977910 0.661880 -0.585321
O3    O     O_R   0.511290 0.160150 0.379180 -0.590963
O4    O     O_R   0.488710 0.839850 0.620820 -0.571846
O5    O     O_R   0.311490 0.930960 0.479480 -0.581546
O6    O     O_R   0.688510 0.069040 0.520520 -0.582159
O7    O     O_R   0.362910 0.069020 0.520540 -0.557720
O8    O     O_R   0.637090 0.930980 0.479460 -0.580975
O9    O     O_3   0.275374 0.192649 0.954747 -0.589486
C43   C     C_3   0.344143 0.138123 0.934040 0.055265
H13   H     H_    0.360170 0.063800 0.999528 0.138536
H14   H     H_    0.431749 0.182132 0.917230 0.135785
C44   C     C_3   0.276238 0.117537 0.840779 -0.819470
H15   H     H_    0.262051 0.190254 0.773042 0.239674
H16   H     H_    0.328457 0.072958 0.825086 0.202230
H17   H     H_    0.187975 0.074129 0.854479 0.256523
O10   O     O_3   0.631125 0.819033 0.053370 -0.583348
C45   C     C_3   0.575862 0.901423 0.041505 0.043055
H18   H     H_    0.476980 0.893007 0.013624 0.118588
H19   H     H_    0.615112 0.973453 0.986937 0.156519
C46   C     C_3   0.598719 0.908034 0.144628 -0.791912
H20   H     H_    0.696427 0.920587 0.173101 0.262729
H21   H     H_    0.555165 0.972104 0.136512 0.188013
H22   H     H_    0.561428 0.836605 0.201293 0.238348
C47   C     C_R   0.838705 0.496068 0.655322 0.188953
C48   C     C_R   0.935419 0.563480 0.616127 -0.186524
C49   C     C_R   0.035216 0.587058 0.682284 -0.159378
C50   C     C_R   0.038610 0.544240 0.787674 -0.139770
C51   C     C_R   0.942847 0.477137 0.827272 -0.153972
C52   C     C_R   0.842774 0.453558 0.761365 -0.028417
H23   H     H_    0.932498 0.598807 0.534369 0.130809
H24   H     H_    0.109391 0.639257 0.651800 0.137833
H25   H     H_    0.115046 0.563635 0.838546 0.133693
H26   H     H_    0.945331 0.444705 0.908845 0.124714
H27   H     H_    0.767430 0.403943 0.792504 0.118992
C53   C     C_R   0.233450 0.562527 0.245786 0.190490
C54   C     C_R   0.239608 0.568669 0.149961 -0.174380
C55   C     C_R   0.135300 0.554275 0.082428 -0.152221
C56   C     C_R   0.024087 0.533336 0.110201 -0.120620
C57   C     C_R   0.017201 0.526348 0.205836 -0.132215
C58   C     C_R   0.121504 0.540345 0.273736 -0.051734
H28   H     H_    0.324740 0.585397 0.127340 0.146323
H29   H     H_    0.140798 0.559504 0.008583 0.131894
H30   H     H_    0.943356 0.522320 0.057745 0.120750
H31   H     H_    0.931126 0.509499 0.227593 0.126361
H32   H     H_    0.115316 0.533254 0.348253 0.110592
C59   C     C_R   0.549951 0.679655 0.596466 0.172612
C60   C     C_R   0.502032 0.590902 0.669855 -0.187971
C61   C     C_R   0.567817 0.547216 0.769709 -0.147059
C62   C     C_R   0.678761 0.594433 0.799653 -0.096681
C63   C     C_R   0.727729 0.682171 0.728044 -0.154456
C64   C     C_R   0.665554 0.722772 0.626631 -0.116119
H33   H     H_    0.416161 0.552688 0.648265 0.124616
H34   H     H_    0.533651 0.475869 0.823775 0.150777
H35   H     H_    0.728732 0.560902 0.877313 0.123123
H36   H     H_    0.816828 0.715559 0.749726 0.136273
H37   H     H_    0.713953 0.779833 0.570815 0.140233
C65   C     C_R   0.378342 0.268723 0.481161 0.177751
C66   C     C_R   0.308498 0.257586 0.549995 -0.142387
C67   C     C_R   0.183528 0.245766 0.523389 -0.151697
C68   C     C_R   0.126959 0.247125 0.427078 -0.101155
C69   C     C_R   0.195221 0.257247 0.358218 -0.155010
C70   C     C_R   0.320137 0.266582 0.385417 -0.125073
H38   H     H_    0.351230 0.258993 0.623901 0.113836
H39   H     H_    0.130342 0.235812 0.577217 0.126659
H40   H     H_    0.030215 0.239441 0.406168 0.128459
H41   H     H_    0.151420 0.258574 0.283437 0.138929
H42   H     H_    0.370646 0.279131 0.329074 0.135057
O11   O     O_3   0.850000 0.299728 0.692880 -0.581102
C71   C     C_3   0.939643 0.312232 0.639254 0.055888
H43   H     H_    0.933315 0.382960 0.567548 0.139333
H44   H     H_    0.933002 0.246149 0.619916 0.132256
C72   C     C_3   0.061450 0.320119 0.707182 -0.762393
H45   H     H_    0.073873 0.247634 0.775744 0.277082
H46   H     H_    0.133651 0.337619 0.664330 0.179266
H47   H     H_    0.067988 0.381565 0.732712 0.267321
O12   O     O_3   0.223586 0.755663 0.221904 -0.573215
C73   C     C_3   0.278238 0.816470 0.137027 0.061343
H48   H     H_    0.344754 0.775180 0.132331 0.149115
H49   H     H_    0.323445 0.889111 0.141731 0.125488
C74   C     C_3   0.183246 0.841734 0.039064 -0.759402
H50   H     H_    0.118960 0.887716 0.039019 0.256522
H51   H     H_    0.226350 0.885661 0.971801 0.187719
H52   H     H_    0.133970 0.771082 0.032816 0.262396

loop_
_geom_bond_atom_site_label_1
_geom_bond_atom_site_label_2
_ccdc_geom_bond_type
C59   C64   A    
C4    C36   A    
C9    H1    S    
Cu1   O1    S    
C74   H51   S    
C61   H34   S    
C54   C55   A    
C45   C46   S    
Cu1   Cu2   S    
C72   H47   S    
C71   H43   S    
C46   H22   S    
C56   C57   A    
C1    C33   S    
O12   C73   S    
C39   C41   A    
C68   H40   S    
C62   C63   A    
C66   H38   S    
C11   C19   A    
C33   C39   A    
C34   C40   A    
C23   C29   S    
C35   C37   A    
C45   H19   S    
C50   H25   S    
C1    O1    A    
C5    C6    A    
C74   H52   S    
C2    O2    A    
C23   O5    A    
C13   N1    A    
C60   C61   A    
C57   H31   S    
C65   C66   A    
C28   C53   S    
C67   C68   A    
Cu1   N2    S    
C31   C32   S    
C43   H13   S    
C22   C25   A    
C10   H2    S    
C61   C62   A    
C35   O9    S    
C19   C27   A    
C25   H3    S    
C56   H30   S    
C24   O8    A    
C13   H12   S    
C2    C34   S    
C40   C42   A    
C14   H11   S    
C24   O6    A    
C18   C22   A    
C21   C22   A    
C15   N1    A    
Cu2   O7    S    
C53   C54   A    
C73   C74   S    
C21   C26   A    
C60   H33   S    
C14   N2    A    
C74   H50   S    
C65   C70   A    
Cu1   O5    S    
O9    C43   S    
C48   C49   A    
C73   H49   S    
C8    H10   S    
C44   H16   S    
C37   H8    S    
C69   H41   S    
C38   H7    S    
C20   C28   A    
C49   C50   A    
C12   O12   S    
C33   C37   A    
C1    O3    A    
C34   C38   A    
C62   H35   S    
C11   O11   S    
O10   C45   S    
C3    C9    A    
C36   O10   S    
C5    C8    A    
C47   C48   A    
C3    C35   A    
Cu2   N1    S    
C68   C69   A    
C55   C56   A    
C12   C20   A    
C16   N2    A    
C45   H18   S    
C16   C59   S    
C63   H36   S    
C8    C10   A    
C12   C14   A    
C48   H23   S    
C7    H9    S    
C4    C10   A    
O11   C71   S    
Cu2   O6    S    
C71   C72   S    
C51   H26   S    
C69   C70   A    
C50   C51   A    
C46   H21   S    
C15   C17   A    
C5    C41   A    
C52   H27   S    
C3    C41   A    
C58   H32   S    
C54   H28   S    
C73   H48   S    
C72   H46   S    
C71   H44   S    
C44   H17   S    
C49   H24   S    
C43   C44   S    
C6    C7    A    
C26   H4    S    
Cu2   O3    S    
C25   C27   A    
C59   C60   A    
C26   C28   A    
C23   O7    A    
C27   C47   S    
C70   H42   S    
C29   C31   T    
C66   C67   A    
C30   C32   T    
C11   C13   A    
C4    C42   A    
C53   C58   A    
Cu2   O2    S    
Cu1   O8    S    
C36   C38   A    
C17   C19   A    
C47   C52   A    
C18   C20   A    
C67   H39   S    
C72   H45   S    
C24   C30   S    
C46   H20   S    
C7    C9    A    
C44   H15   S    
C39   H6    S    
C51   C52   A    
C16   C18   A    
C57   C58   A    
C6    C42   A    
C63   C64   A    
C43   H14   S    
C15   C65   S    
C55   H29   S    
C2    O4    A    
C64   H37   S    
C40   H5    S    
Cu1   O4    S    
C17   C21   A    
