data_mof_unit_67335.cif
_audit_creation_date              2013-03-05T16:05:42-0500
_audit_creation_method            fapswitch 2.2
_symmetry_space_group_name_H-M    P1
_symmetry_Int_Tables_number       1
_space_group_crystal_system       triclinic
_cell_length_a                    8.562405
_cell_length_b                    15.116004
_cell_length_c                    16.469193
_cell_angle_alpha                 110.266258
_cell_angle_beta                  97.407983
_cell_angle_gamma                 81.436634
_cell_volume                      1970.45671814

loop_
_atom_site_label
_atom_site_type_symbol
_atom_site_description
_atom_site_fract_x
_atom_site_fract_y
_atom_site_fract_z
_atom_type_partial_charge
P1    P     P_3+3 0.592580 0.619730 0.703530 0.621036
O1    O     O_2   0.428380 0.595290 0.716080 -0.307630
O2    O     O_3   0.649320 0.571640 0.606850 -0.346665
O3    O     O_3   0.202060 0.415890 0.655600 -0.362607
O4    O     O_2   0.345981 0.501277 0.810081 -0.350119
O5    O     O_3   0.595996 0.745731 0.753655 -0.614064
O6    O     O_3   0.239513 0.341867 0.792133 -0.631440
C1    C     C_3   0.065009 0.245836 0.817715 -0.775624
H1    H     H_    0.166554 0.216775 0.853629 0.256725
H2    H     H_    0.996585 0.304922 0.864895 0.264582
P2    P     P_3+3 0.156500 0.273340 0.422460 0.629285
P3    P     P_3+3 0.675860 0.241106 0.604245 0.549918
O7    O     O_2   0.338780 0.265250 0.448290 -0.223719
O8    O     O_3   0.612600 0.359160 0.609560 -0.336883
O9    O     O_2   0.534998 0.185535 0.557719 -0.249486
O10   O     O_3   0.161006 0.213184 0.310058 -0.541623
O11   O     O_3   0.703897 0.223296 0.705738 -0.639932
C2    C     C_3   0.591236 0.278982 0.763368 0.744365
H3    H     H_    0.486196 0.305600 0.728752 0.096813
C3    C     C_3   0.539189 0.217240 0.810672 -0.269016
H4    H     H_    0.475665 0.158890 0.763375 0.189994
C4    C     C_3   0.696418 0.203484 0.296694 0.556422
H5    H     H_    0.817277 0.224783 0.307247 -0.092499
C5    C     C_3   0.699652 0.097514 0.240136 0.149867
H6    H     H_    0.586733 0.071362 0.243276 0.186240
Ba1   Ba    Ba6+2 0.364200 0.465260 0.540910 1.784396
C6    C     C_3   0.531061 0.814597 0.714031 0.924200
C7    C     C_3   0.553442 0.915456 0.780621 -0.297597
H7    H     H_    0.490051 0.973048 0.756298 0.205448
H8    H     H_    0.680395 0.927523 0.791584 0.171826
C8    C     C_3   0.091426 0.267186 0.259006 0.525717
H9    H     H_    0.986608 0.311520 0.287162 0.016765
C9    C     C_3   0.043099 0.199665 0.167729 0.245480
H10   H     H_    0.943213 0.167683 0.176167 0.050350
P4    P     P_3+3 0.597130 0.380190 0.296460 0.624324
O12   O     O_2   0.761310 0.404670 0.283870 -0.401174
O13   O     O_3   0.540390 0.428280 0.393140 -0.305148
O14   O     O_3   0.987650 0.584030 0.344390 -0.361936
O15   O     O_3   0.593770 0.256103 0.252837 -0.561795
P5    P     P_3+3 0.501698 0.755844 0.390952 0.600361
O16   O     O_3   0.122140 0.620560 0.549160 -0.332643
O17   O     O_3   0.577110 0.640760 0.390430 -0.329415
O18   O     O_2   0.624208 0.818213 0.453265 -0.259260
O19   O     O_3   0.533382 0.771451 0.293184 -0.549617
Ba2   Ba    Ba6+2 0.825640 0.534660 0.459080 1.784036
P6    P     P_3+3 0.199941 0.447422 0.767616 0.474141
C10   C     C_3   0.123912 0.279296 0.750352 0.692053
H11   H     H_    0.018985 0.312282 0.719455 0.027265
H12   H     H_    0.986115 0.189629 0.784678 0.265167
O20   O     O_3   0.067570 0.379360 0.450830 -0.395264
C11   C     C_3   0.035845 0.816732 0.780449 0.762163
C12   C     C_3   0.046540 0.923617 0.799756 -0.877292
H13   H     H_    0.939046 0.957094 0.770672 0.238044
H14   H     H_    0.059744 0.962076 0.871416 0.272526
H15   H     H_    0.152429 0.937845 0.778627 0.287587
P7    P     P_3+3 0.025834 0.741841 0.594755 0.573795
O21   O     O_2   0.850910 0.734710 0.551660 -0.296168
O22   O     O_3   0.950228 0.768556 0.699636 -0.562837
H16   H     H_    0.458869 0.260594 0.861780 0.182873
C13   C     C_3   0.454313 0.708674 0.220244 0.895689
H17   H     H_    0.351882 0.685419 0.238837 -0.407960
C14   C     C_3   0.391880 0.758166 0.152483 -0.195127
H18   H     H_    0.484529 0.752948 0.109194 0.174176
H19   H     H_    0.291432 0.722108 0.110603 0.104065
P8    P     P_3+3 0.001964 0.550377 0.233084 0.588866
C15   C     C_3   0.986049 0.722453 0.243938 0.144618
H20   H     H_    0.098384 0.711557 0.213701 0.068826
O23   O     O_2   0.901263 0.466973 0.188420 -0.261032
O24   O     O_3   0.900399 0.644289 0.202851 -0.440406
H21   H     H_    0.010885 0.735662 0.315027 0.057723
H22   H     H_    0.970559 0.868281 0.260995 0.189876
C16   C     C_3   0.892646 0.811063 0.233347 -0.087109
H23   H     H_    0.784556 0.829381 0.268999 0.219856
C17   C     C_2   0.328460 0.509131 0.251876 -0.336586
C18   C     C_R   0.893015 0.536136 0.751829 -0.378579
C19   C     C_2   0.487980 0.403768 0.136658 -0.141965
C20   C     C_2   0.468585 0.438130 0.222371 0.407986
C21   C     C_2   0.202228 0.516017 0.194689 0.091797
C22   C     C_3   0.214324 0.472198 0.097210 0.039553
C23   C     C_3   0.386463 0.444794 0.073664 0.178822
C24   C     C_2   0.118490 0.530259 0.044288 -0.166828
C25   C     C_2   0.095587 0.491674 0.957457 -0.068124
C26   C     C_R   0.835313 0.579550 0.925359 0.302949
C27   C     C_R   0.984528 0.533922 0.898839 -0.059844
C28   C     C_R   0.716195 0.602253 0.866213 -0.182883
C29   C     C_R   0.741392 0.576477 0.777886 0.309100
C30   C     C_R   0.013611 0.514058 0.810949 0.201552
H24   H     H_    0.579120 0.346847 0.111576 0.210357
H25   H     H_    0.603763 0.639082 0.889365 0.177320
H26   H     H_    0.316151 0.541599 0.321042 0.153257
H27   H     H_    0.916811 0.520328 0.685010 0.151897
H28   H     H_    0.065372 0.601933 0.075923 0.165819
H29   H     H_    0.157421 0.422040 0.929434 0.180291
C31   C     C_R   0.856218 0.182456 0.546299 0.254273
H30   H     H_    0.901574 0.312112 0.532808 0.183793
H31   H     H_    0.742243 0.064439 0.611331 0.195437
C32   C     C_R   0.072712 0.197872 0.471828 0.151928
C33   C     C_R   0.232648 0.761263 0.481754 -0.301158
C34   C     C_R   0.301140 0.803689 0.433773 0.177624
C35   C     C_R   0.224586 0.888406 0.425132 -0.255106
C36   C     C_R   0.105746 0.944233 0.480004 0.127163
C37   C     C_R   0.039279 0.899929 0.529735 -0.000276
C38   C     C_R   0.052714 0.042909 0.489360 0.008903
C39   C     C_R   0.915419 0.086671 0.535695 0.004069
C40   C     C_R   0.846425 0.036153 0.576516 -0.025085
C41   C     C_R   0.915734 0.949039 0.579618 -0.089554
C42   C     C_R   0.132590 0.101372 0.458585 0.277941
C43   C     C_R   0.940506 0.237267 0.518486 -0.460282
C44   C     C_R   0.099238 0.807244 0.529347 0.257935
H32   H     H_    0.288285 0.693190 0.484316 0.176471
H33   H     H_    0.261616 0.908485 0.374782 0.205585
H34   H     H_    0.871929 0.920460 0.622307 0.175031
N1    N     N_R   0.196690 0.198544 0.682685 0.190023
O25   O     O_R   0.270895 0.214626 0.626369 -0.405090
O26   O     O_R   0.201462 0.111742 0.681843 -0.419502
I1    I     I_    0.697874 0.066392 0.102712 -0.082649
N2    N     N_R   0.831035 0.042335 0.272406 0.212266
O27   O     O_R   0.974875 0.045653 0.257364 -0.369378
O28   O     O_R   0.809212 0.010527 0.333543 -0.421660
N3    N     N_R   0.366123 0.810197 0.690450 0.156738
O29   O     O_R   0.293120 0.878204 0.663897 -0.498978
O30   O     O_R   0.327213 0.725415 0.652058 -0.411625
N4    N     N_R   0.602969 0.801155 0.635129 0.216259
O31   O     O_R   0.575502 0.725512 0.569488 -0.326934
O32   O     O_R   0.621896 0.876482 0.618466 -0.434057
I2    I     I_    0.457520 0.941639 0.902242 -0.180571
N5    N     N_R   0.203380 0.327002 0.255396 0.197605
O33   O     O_R   0.299411 0.295183 0.194217 -0.424895
O34   O     O_R   0.238941 0.395013 0.326278 -0.415034
I3    I     I_    0.217200 0.080529 0.116528 0.034950
N6    N     N_R   0.992278 0.249865 0.105478 0.241012
O35   O     O_R   0.841734 0.272906 0.090001 -0.364907
O36   O     O_R   0.090540 0.255330 0.053714 -0.333154
I4    I     I_    0.893213 0.817979 0.877739 -0.274701
I5    I     I_    0.225426 0.738725 0.832680 -0.206260
N7    N     N_R   0.564520 0.624850 0.182028 0.202052
O37   O     O_R   0.642626 0.580682 0.231583 -0.332138
O38   O     O_R   0.591972 0.595449 0.100433 -0.410760
N8    N     N_R   0.341970 0.858455 0.193529 0.271730
O39   O     O_R   0.448768 0.916656 0.226112 -0.290103
O40   O     O_R   0.195316 0.891761 0.182097 -0.317286
I6    I     I_    0.827830 0.796919 0.100519 -0.195294
N9    N     N_R   0.284822 0.069228 0.425454 0.251156
O41   O     O_R   0.303212 0.061742 0.346266 -0.256469
O42   O     O_R   0.401728 0.038600 0.471179 -0.294899
N10   N     N_R   0.664108 0.360599 0.824370 0.223340
O43   O     O_R   0.645386 0.391506 0.907511 -0.360220
O44   O     O_R   0.766274 0.395735 0.795842 -0.495990
I7    I     I_    0.732703 0.152194 0.873923 -0.222774
N11   N     N_R   0.639252 0.217064 0.380332 0.209447
O45   O     O_R   0.652391 0.296402 0.443074 -0.382536
O46   O     O_R   0.588271 0.148086 0.395993 -0.313663

loop_
_geom_bond_atom_site_label_1
_geom_bond_atom_site_label_2
_geom_bond_distance
_ccdc_geom_bond_type
C9    I3    2.156175 S    
H31   C40   1.075081 S    
C4    N11   1.458472 S    
C36   C37   1.434186 A    
C33   H32   1.080034 S    
P2    O7    1.562006 D    
P4    O12   1.561846 D    
C27   C30   1.420183 A    
C8    N5    1.431796 S    
P5    C34   1.886397 S    
C24   C25   1.344462 D    
P6    C30   1.840198 S    
N4    O31   1.299846 A    
O3    P6    1.740052 S    
C6    N3    1.420699 S    
C3    I7    2.139298 S    
O10   C8    1.389129 S    
C16   I6    2.130124 S    
C31   C43   1.394059 A    
C5    N2    1.455048 S    
C7    H7    1.121483 S    
P4    O13   1.610015 S    
C2    H3    1.102147 S    
N2    O28   1.300206 A    
C11   I4    2.129790 S    
N4    O32   1.296527 A    
C15   O24   1.402828 S    
N9    O41   1.297637 A    
N9    O42   1.300986 A    
P7    O21   1.574683 D    
C13   C14   1.547992 S    
P1    O1    1.561539 D    
O14   Ba2   2.830105 S    
C14   H19   1.112994 S    
Ba1   Ba2   4.702582 S    
N1    O25   1.295062 A    
C32   C43   1.390340 A    
C11   I5    2.130243 S    
P5    O18   1.545640 D    
C15   C16   1.506982 S    
C26   C27   1.404144 A    
C12   H14   1.119581 S    
C1    H1    1.110148 S    
C17   C20   1.494359 S    
P3    O11   1.764374 S    
C10   H11   1.113187 S    
C8    C9    1.541167 S    
C14   N8    1.452375 S    
C13   N7    1.461737 S    
C2    C3    1.547156 S    
C12   H15   1.086575 S    
C18   H27   1.082019 S    
C9    N6    1.463493 S    
P5    O17   1.760624 S    
C15   H20   1.104440 S    
C31   C39   1.418773 A    
C36   C38   1.453231 A    
C33   C44   1.421049 A    
C24   H28   1.084169 S    
P3    C31   1.862195 S    
C39   C40   1.405873 A    
N3    O30   1.290218 A    
C9    H10   1.088489 S    
N10   O44   1.298182 A    
C19   C20   1.347918 D    
O2    Ba1   3.000138 S    
C11   C12   1.549376 S    
O6    P6    1.753187 S    
C5    H6    1.111145 S    
N7    O38   1.301987 A    
C22   C24   1.527836 S    
C28   H25   1.081700 S    
C21   C22   1.520719 S    
N7    O37   1.289515 A    
C41   H34   1.071565 S    
P2    Ba1   3.479325 S    
C2    N10   1.459342 S    
C28   C29   1.406306 A    
P4    C20   1.890578 S    
P1    O5    1.797526 S    
C13   H17   1.105532 S    
P1    O2    1.610018 S    
O17   Ba2   2.828125 S    
O6    C10   1.414266 S    
P4    O15   1.764205 S    
N5    O34   1.297117 A    
O16   P7    1.833191 S    
C14   H18   1.109992 S    
P2    O10   1.759831 S    
C18   C29   1.402893 A    
O5    C6    1.422431 S    
O14   P8    1.739971 S    
P8    O23   1.546520 D    
Ba2   O21   2.903712 S    
O11   C2    1.407387 S    
O12   Ba2   2.911248 S    
O1    Ba1   2.910775 S    
C11   O22   1.440498 S    
C12   H13   1.117219 S    
O8    Ba1   2.827440 S    
C3    H16   1.115271 S    
C18   C30   1.410270 A    
C26   C28   1.406423 A    
P3    O8    1.761160 S    
C5    I1    2.144644 S    
P3    O9    1.537849 D    
C25   C27   1.501200 S    
P1    Ba1   3.482223 S    
N11   O46   1.301972 A    
O7    Ba1   2.903496 S    
C42   N9    1.429672 S    
N5    O33   1.297219 A    
P4    Ba2   3.482848 S    
P7    C44   1.905320 S    
C38   C39   1.432453 A    
N3    O29   1.299349 A    
N10   O43   1.307652 A    
C40   C41   1.376538 A    
P1    C29   1.858719 S    
C10   N1    1.459585 S    
C19   H24   1.075581 S    
C6    N4    1.447431 S    
P8    C21   1.843035 S    
C4    H5    1.104012 S    
C8    H9    1.087441 S    
C19   C23   1.506355 S    
C16   H23   1.108684 S    
N6    O36   1.302280 A    
O3    Ba1   2.830787 S    
N8    O39   1.297753 A    
Ba1   O13   2.874756 S    
C7    I2    2.149762 S    
O4    P6    1.548775 D    
C34   C35   1.393565 A    
P2    C32   1.874524 S    
C17   H26   1.085265 S    
C7    H8    1.110462 S    
Ba1   O20   3.002304 S    
C1    C10   1.532956 S    
O2    Ba2   2.875428 S    
H22   C16   1.105049 S    
P2    O20   1.605005 S    
N2    O27   1.298627 A    
N8    O40   1.296978 A    
C15   H21   1.114587 S    
Ba2   O20   2.867723 S    
O19   C13   1.412017 S    
P8    O24   1.740611 S    
C4    O15   1.397467 S    
C35   C36   1.420326 A    
P7    O22   1.814658 S    
C37   C41   1.383031 A    
C4    C5    1.547292 S    
H30   C43   1.081575 S    
C22   C23   1.532547 S    
C32   C42   1.422642 A    
P5    O19   1.765422 S    
C3    H4    1.112752 S    
C35   H33   1.072882 S    
C1    H2    1.107024 S    
C33   C34   1.400782 A    
C17   C21   1.355723 D    
C6    C7    1.561512 S    
C25   H29   1.077854 S    
O16   Ba2   3.001363 S    
N11   O45   1.292423 A    
C37   C44   1.416650 A    
C38   C42   1.444060 A    
O13   Ba2   3.001080 S    
C1    H12   1.109107 S    
N6    O35   1.300357 A    
Ba1   O16   2.868397 S    
N1    O26   1.301951 A    
