data_mof_unit_25760.cif
_audit_creation_date              2013-03-05T15:52:46-0500
_audit_creation_method            fapswitch 2.2
_symmetry_space_group_name_H-M    P1
_symmetry_Int_Tables_number       1
_space_group_crystal_system       triclinic
_cell_length_a                    6.975463
_cell_length_b                    14.856479
_cell_length_c                    21.492956
_cell_angle_alpha                 74.036418
_cell_angle_beta                  89.359081
_cell_angle_gamma                 89.911627
_cell_volume                      2141.30264633

loop_
_atom_site_label
_atom_site_type_symbol
_atom_site_description
_atom_site_fract_x
_atom_site_fract_y
_atom_site_fract_z
_atom_type_partial_charge
O1    O     O_R   0.648150 0.130050 0.214300 -0.609474
O2    O     O_R   0.351850 0.869950 0.785700 -0.604560
O3    O     O_R   0.320490 0.006660 0.340150 -0.593847
O4    O     O_R   0.679510 0.993340 0.659850 -0.574802
O5    O     O_R   0.146100 0.869940 0.285700 -0.563636
O6    O     O_R   0.853900 0.130060 0.714300 -0.562593
C1    C     C_R   0.488293 0.001562 0.367053 1.055332
C2    C     C_R   0.511695 0.998050 0.632965 1.041237
O7    O     O_R   0.318690 0.137980 0.218120 -0.599948
O8    O     O_R   0.681310 0.862020 0.781880 -0.602614
O9    O     O_R   0.144280 0.002190 0.162800 -0.585329
O10   O     O_R   0.855720 0.997810 0.837200 -0.591681
C3    C     C_R   0.488352 0.176430 0.206676 0.977900
C4    C     C_R   0.511157 0.824483 0.796060 0.973608
O11   O     O_R   0.649960 0.997790 0.337200 -0.572502
O12   O     O_R   0.350040 0.002210 0.662800 -0.572445
O13   O     O_3   0.479300 0.955290 0.231990 -0.254398
O14   O     O_3   0.520700 0.044710 0.768010 -0.262867
V1    V     V_3+5 0.206040 0.008290 0.253340 1.250801
V2    V     V_3+5 0.793960 0.991710 0.746660 1.264158
O15   O     O_R   0.814320 0.993320 0.159850 -0.615213
O16   O     O_R   0.185680 0.006680 0.840150 -0.614755
C5    C     C_R   0.984501 0.000417 0.132937 0.933547
C6    C     C_R   0.015807 0.000145 0.866954 0.939041
O17   O     O_R   0.816120 0.862000 0.281880 -0.570831
O18   O     O_R   0.183880 0.138000 0.718120 -0.574499
C7    C     C_R   0.987211 0.823910 0.291079 1.103519
C8    C     C_R   0.014301 0.175835 0.706703 1.112239
V3    V     V_3+5 0.705540 0.991700 0.246660 1.239948
V4    V     V_3+5 0.294460 0.008300 0.753340 1.247580
O19   O     O_3   0.982150 0.044700 0.268010 -0.282136
O20   O     O_3   0.017850 0.955300 0.731990 -0.270168
C9    C     C_R   0.009023 0.721665 0.318555 -0.463934
C10   C     C_R   0.001152 0.277676 0.676929 -0.478962
C11   C     C_R   0.150390 0.572368 0.313457 0.054328
C12   C     C_R   0.922607 0.434033 0.684375 0.038324
C13   C     C_R   0.114122 0.668129 0.284317 0.307309
C14   C     C_R   0.924133 0.336772 0.712295 0.344679
C15   C     C_R   0.954826 0.680733 0.383608 0.258678
C16   C     C_R   0.059870 0.315461 0.611819 0.272381
C17   C     C_R   0.013804 0.587735 0.415188 -0.051513
C18   C     C_R   0.021445 0.411336 0.579885 -0.034873
C19   C     C_R   0.082626 0.530781 0.376916 0.025419
C20   C     C_R   0.973801 0.471555 0.618758 0.016335
C21   C     C_R   0.009988 0.548908 0.483729 0.082451
C22   C     C_R   0.026710 0.450166 0.510985 0.079168
C23   C     C_R   0.036234 0.394009 0.467916 -0.081991
C24   C     C_R   0.003821 0.606406 0.525657 -0.043627
C25   C     C_R   0.076529 0.433302 0.402779 -0.088576
C26   C     C_R   0.976606 0.568751 0.591341 -0.091298
H1    H     H_    0.094409 0.386491 0.372440 0.181076
H2    H     H_    0.959371 0.617358 0.620332 0.152812
H3    H     H_    0.014250 0.319456 0.483329 0.198761
H4    H     H_    0.020523 0.681356 0.508564 0.175829
C27   C     C_3   0.875569 0.937469 0.991512 -0.006588
C28   C     C_3   0.127124 0.063814 0.008152 -0.002481
C29   C     C_3   0.047122 0.917182 0.037190 -0.012488
C30   C     C_3   0.955160 0.083968 0.962482 -0.022090
C31   C     C_3   0.998343 0.002505 0.062738 -0.169885
C32   C     C_3   0.003829 0.998759 0.937011 -0.169177
C33   C     C_3   0.827050 0.023066 0.016350 0.024466
C34   C     C_3   0.175361 0.978172 0.983362 0.025481
C35   C     C_3   0.681428 0.001062 0.476615 -0.155355
C36   C     C_3   0.318491 0.998179 0.523301 -0.171928
C37   C     C_3   0.591898 0.077039 0.505870 -0.200683
C38   C     C_3   0.407957 0.922287 0.493996 -0.227838
H5    H     H_    0.664348 0.141564 0.510085 0.194708
H6    H     H_    0.334897 0.858041 0.489527 0.194816
H7    H     H_    0.830938 0.000473 0.458439 0.192754
H8    H     H_    0.169048 0.998398 0.541602 0.209693
C39   C     C_3   0.504271 0.998847 0.562438 -0.320169
C40   C     C_3   0.495862 0.000375 0.437551 -0.319679
C41   C     C_3   0.591299 0.924874 0.532947 0.443148
C42   C     C_3   0.408786 0.074338 0.466898 0.449467
C43   C     C_R   0.507452 0.280054 0.182732 -0.162405
C44   C     C_R   0.492177 0.722671 0.826975 -0.138319
C45   C     C_R   0.688271 0.420658 0.181823 0.315164
C46   C     C_R   0.424905 0.565616 0.817353 0.324587
C47   C     C_R   0.647684 0.325312 0.209646 -0.127411
C48   C     C_R   0.473107 0.661062 0.788547 -0.171600
C49   C     C_R   0.404200 0.331932 0.128820 -0.035757
C50   C     C_R   0.457528 0.690378 0.893925 -0.079941
C51   C     C_R   0.476202 0.420678 0.091508 0.033642
C52   C     C_R   0.450547 0.592658 0.924829 0.017245
C53   C     C_R   0.605325 0.469156 0.121818 -0.024356
C54   C     C_R   0.408600 0.531521 0.886337 -0.022807
C55   C     C_R   0.434974 0.459999 0.024149 0.101276
C56   C     C_R   0.485101 0.554152 0.992538 0.108415
C57   C     C_R   0.590635 0.604259 0.027145 -0.294760
C58   C     C_R   0.365678 0.404705 0.985789 -0.327192
C59   C     C_R   0.651445 0.563573 0.090207 0.080684
C60   C     C_R   0.348511 0.439171 0.918612 0.092668
H9    H     H_    0.643218 0.673602 0.003772 0.126593
H10   H     H_    0.335203 0.331547 0.006452 0.127630
N1    N     N_R   0.694412 0.842014 0.569148 0.230493
O21   O     O_R   0.852710 0.850877 0.598310 -0.423876
O22   O     O_R   0.633813 0.759013 0.569846 -0.393825
N2    N     N_R   0.308537 0.157290 0.429414 0.245785
O23   O     O_R   0.125956 0.167087 0.438482 -0.406137
O24   O     O_R   0.399491 0.219680 0.384468 -0.441184
N3    N     N_3   0.761718 0.619724 0.121237 -0.144328
H11   H     H_    0.883332 0.643530 0.092620 0.142832
H12   H     H_    0.679633 0.677904 0.123082 0.133522
N4    N     N_3   0.256317 0.381029 0.884728 -0.146391
H13   H     H_    0.335167 0.319185 0.892008 0.153513
H14   H     H_    0.120989 0.363391 0.905880 0.135181
N5    N     N_3   0.389196 0.757197 0.926241 -0.208952
H15   H     H_    0.328694 0.725129 0.971567 0.126148
H16   H     H_    0.503526 0.799263 0.931033 0.104553
N6    N     N_3   0.213790 0.300972 0.120210 -0.179952
H17   H     H_    0.135187 0.352694 0.087691 0.137332
H18   H     H_    0.223401 0.241157 0.104198 0.090568
N7    N     N_3   0.492716 0.698633 0.719741 -0.189143
H19   H     H_    0.361080 0.694328 0.698044 0.184113
H20   H     H_    0.595996 0.660733 0.702377 0.171119
N8    N     N_3   0.746590 0.273969 0.266703 -0.173055
H21   H     H_    0.893756 0.276838 0.256530 0.167532
H22   H     H_    0.720741 0.306085 0.303569 0.190307
N9    N     N_R   0.831762 0.463386 0.211302 0.229541
O25   O     O_R   0.789193 0.490685 0.262303 -0.433491
O26   O     O_R   0.009399 0.463818 0.192175 -0.393884
N10   N     N_R   0.410878 0.502903 0.777053 0.225816
O27   O     O_R   0.312761 0.525655 0.723973 -0.452692
O28   O     O_R   0.512474 0.426724 0.789846 -0.352552
N11   N     N_R   0.175971 0.259098 0.581438 0.226477
O29   O     O_R   0.116867 0.177228 0.578696 -0.421440
O30   O     O_R   0.342177 0.289800 0.556443 -0.383535
N12   N     N_R   0.823539 0.729786 0.414829 0.231009
O31   O     O_R   0.665724 0.689211 0.441012 -0.365327
O32   O     O_R   0.863819 0.813275 0.419344 -0.429105
N13   N     N_R   0.851271 0.299220 0.777129 0.232320
O33   O     O_R   0.723534 0.232806 0.789408 -0.379859
O34   O     O_R   0.882295 0.343341 0.820590 -0.414998
N14   N     N_R   0.181392 0.709094 0.219198 0.204835
O35   O     O_R   0.297387 0.780404 0.206607 -0.411673
O36   O     O_R   0.164431 0.662345 0.176470 -0.408492
N15   N     N_3   0.270820 0.521245 0.279813 -0.113891
H23   H     H_    0.394852 0.560921 0.264325 0.174352
H24   H     H_    0.324157 0.459998 0.311136 0.137598
N16   N     N_3   0.848723 0.493314 0.721506 -0.130636
H25   H     H_    0.953773 0.540876 0.726189 0.156596
H26   H     H_    0.732355 0.529713 0.696612 0.152052
N17   N     N_3   0.098046 0.825180 0.077484 -0.151644
H27   H     H_    0.115149 0.781462 0.047183 0.120538
H28   H     H_    0.978902 0.800718 0.107148 0.133193
N18   N     N_3   0.903870 0.175777 0.921885 -0.154010
H29   H     H_    0.876525 0.218665 0.952194 0.128627
H30   H     H_    0.026676 0.201894 0.894737 0.138325
N19   N     N_3   0.749723 0.863793 0.984287 -0.226275
H31   H     H_    0.705846 0.825558 0.030634 0.087689
H32   H     H_    0.832489 0.818717 0.965288 0.087578
N20   N     N_3   0.252807 0.138503 0.014073 -0.217487
H33   H     H_    0.311548 0.168506 0.968170 0.093959
H34   H     H_    0.162504 0.189793 0.022618 0.070100
N21   N     N_3   0.645501 0.056940 0.033922 -0.209424
H35   H     H_    0.571284 0.080621 0.991025 0.114822
H36   H     H_    0.572295 0.001197 0.065309 0.142724
N22   N     N_3   0.357416 0.944750 0.965842 -0.213584
H37   H     H_    0.432514 0.920224 0.008587 0.116577
H38   H     H_    0.430278 0.000510 0.934357 0.140201

loop_
_geom_bond_atom_site_label_1
_geom_bond_atom_site_label_2
_geom_bond_distance
_ccdc_geom_bond_type
C38   H6    1.110388 S    
C55   C56   1.419118 A    
C35   C37   1.561693 S    
N3    H11   1.045287 S    
C58   H10   1.075555 S    
N21   H36   1.043053 S    
N5    H16   1.037283 S    
C51   C55   1.436494 A    
N1    O21   1.300296 A    
O4    C2    1.304492 A    
V1    O19   1.706231 S    
N12   O31   1.301341 A    
N4    H14   1.045020 S    
C53   C59   1.415963 A    
C29   C34   1.537013 S    
C23   C25   1.386333 A    
N13   O34   1.300304 A    
C21   C22   1.427257 A    
C7    C9    1.478905 S    
C24   H4    1.078346 S    
N15   H24   1.042699 S    
O9    V1    2.023979 S    
C9    C15   1.410260 A    
C10   C16   1.413155 A    
C11   C13   1.411577 A    
C52   C54   1.419362 A    
N18   H29   1.044931 S    
O3    C1    1.304202 A    
N19   H32   1.045207 S    
C46   C48   1.421609 A    
C29   C31   1.549654 S    
O12   V4    2.006280 S    
N17   H27   1.044470 S    
O13   V3    1.729186 S    
N8    H21   1.045668 S    
C32   C34   1.541293 S    
C18   C22   1.433894 A    
C36   C39   1.554361 S    
O7    C3    1.306028 A    
N6    H17   1.044724 S    
C42   N2    1.456234 S    
O5    C7    1.290488 A    
O7    V1    2.022846 S    
O6    C8    1.295450 A    
C3    C43   1.488599 S    
O8    V2    2.022845 S    
C37   H5    1.110324 S    
C26   H2    1.081549 S    
N5    H15   1.044153 S    
C34   N22   1.446108 S    
O11   V3    2.006280 S    
O14   V4    1.729185 S    
C36   H8    1.110371 S    
C28   C30   1.534796 S    
C57   C59   1.394208 A    
C11   C19   1.410110 A    
C23   H3    1.075913 S    
C28   C34   1.543874 S    
C46   C54   1.432169 A    
C30   C33   1.536493 S    
C24   C26   1.379105 A    
C8    C10   1.474932 S    
C2    O12   1.300742 A    
C27   C32   1.547289 S    
N22   H38   1.042941 S    
C17   C19   1.412722 A    
C18   C20   1.418758 A    
C59   N3    1.432431 S    
O2    C4    1.288872 A    
C33   N21   1.446217 S    
N4    H13   1.045216 S    
C49   C51   1.430082 A    
C27   N19   1.446474 S    
C30   C32   1.546996 S    
N18   H30   1.044094 S    
N9    O26   1.300609 A    
O17   V3    2.021644 S    
C38   C40   1.550814 S    
C31   C33   1.540467 S    
C29   N17   1.448690 S    
C35   H7    1.110435 S    
N16   H25   1.043419 S    
C40   C42   1.531276 S    
O8    C4    1.308835 A    
C44   C50   1.404293 A    
C1    C40   1.511971 S    
C39   C41   1.533151 S    
C19   C25   1.401762 A    
N14   O36   1.301258 A    
C1    O11   1.299972 A    
C35   C41   1.540680 S    
C25   H1    1.082471 S    
C37   C39   1.552396 S    
C38   C41   1.542630 S    
O15   V3    2.000315 S    
C9    C13   1.421140 A    
C37   C42   1.541846 S    
C36   C38   1.561112 S    
C5    C31   1.502560 S    
C58   C60   1.399352 A    
C48   N7    1.434897 S    
C50   C52   1.421363 A    
C6    C32   1.501572 S    
O10   V2    2.023979 S    
O1    V3    2.021384 S    
C45   C47   1.405616 A    
C50   N5    1.437161 S    
N20   H33   1.043830 S    
O3    V1    2.031641 S    
C12   N16   1.433240 S    
C51   C53   1.423924 A    
N20   H34   1.041181 S    
O18   V4    2.021644 S    
N2    O24   1.300170 A    
C27   C29   1.532679 S    
N11   O29   1.301673 A    
O16   C6    1.303739 A    
C12   C20   1.408583 A    
C28   N20   1.448855 S    
C41   N1    1.456384 S    
N10   O28   1.299771 A    
N13   O33   1.300513 A    
C49   N6    1.436708 S    
N7    H19   1.044437 S    
V2    O20   1.706232 S    
C21   C24   1.402172 A    
C20   C26   1.401620 A    
N17   H28   1.044453 S    
C22   C23   1.407340 A    
C2    C39   1.514103 S    
C36   C42   1.541793 S    
C15   N12   1.439863 S    
O16   V4    2.000310 S    
C10   C14   1.412003 A    
C43   C49   1.407514 A    
C44   C48   1.398674 A    
N16   H26   1.042501 S    
C16   C18   1.427215 A    
C45   N9    1.429546 S    
N12   O32   1.301817 A    
N9    O25   1.300417 A    
N1    O22   1.300278 A    
N14   O35   1.300122 A    
O5    V1    2.023120 S    
O17   C7    1.313492 A    
O6    V2    2.023120 S    
N15   H23   1.045942 S    
O10   C6    1.298248 A    
O18   C8    1.305359 A    
C28   C31   1.550543 S    
C30   N18   1.449338 S    
O2    V4    2.021386 S    
C14   N13   1.438307 S    
O15   C5    1.306285 A    
V3    O19   2.185565 S    
C54   C60   1.418097 A    
N19   H31   1.044564 S    
C11   N15   1.446374 S    
C12   C14   1.404007 A    
V4    O20   2.185564 S    
N22   H37   1.037906 S    
C52   C56   1.432709 A    
C16   N11   1.438828 S    
C27   C33   1.544239 S    
O9    C5    1.296243 A    
C35   C40   1.552290 S    
O13   V1    2.153688 S    
N8    H22   1.045204 S    
O14   V2    2.153687 S    
C57   H9    1.077302 S    
C46   N10   1.440132 S    
N6    H18   1.039296 S    
C60   N4    1.431186 S    
C45   C53   1.421789 A    
O4    V2    2.031644 S    
O1    C3    1.297582 A    
C56   C57   1.402793 A    
C15   C17   1.423900 A    
N3    H12   1.045618 S    
N2    O23   1.300258 A    
C55   C58   1.403888 A    
N21   H35   1.036117 S    
N11   O30   1.301418 A    
C17   C21   1.426652 A    
C13   N14   1.437750 S    
N10   O27   1.299562 A    
C47   N8    1.436828 S    
C43   C47   1.404346 A    
C4    C44   1.480783 S    
N7    H20   1.040989 S    
