data_mof_unit_57959.cif
_audit_creation_date              2012-12-10T17:49:35-0500
_audit_creation_method            fapswitch 2.2
_symmetry_space_group_name_H-M    P1
_symmetry_Int_Tables_number       1
_space_group_crystal_system       triclinic
_cell_length_a                    10.557625
_cell_length_b                    10.718653
_cell_length_c                    9.96845
_cell_angle_alpha                 89.209537
_cell_angle_beta                  87.091409
_cell_angle_gamma                 93.860339
_cell_volume                      1123.88781155

loop_
_atom_site_label
_atom_site_type_symbol
_atom_type_description
_atom_site_fract_x
_atom_site_fract_y
_atom_site_fract_z
_atom_type_partial_charge
C1    C     C_R   0.490167 0.259317 0.502302 0.873822
C2    C     C_3   0.964215 0.611151 0.480476 -0.181787
C3    C     C_3   0.052248 0.546595 0.379883 -0.128341
C4    C     C_3   0.121648 0.497391 0.499494 -0.092362
C5    C     C_R   0.480646 0.102614 0.758577 -0.102642
C6    C     C_R   0.529071 0.044875 0.869164 -0.159949
C7    C     C_R   0.606129 0.946126 0.849085 -0.126010
C8    C     C_R   0.621032 0.895975 0.721226 0.166758
C9    C     C_R   0.552227 0.940816 0.614468 0.051222
C10   C     C_R   0.502715 0.057509 0.627385 0.084398
C11   C     C_R   0.481731 0.124256 0.507460 -0.083769
C12   C     C_R   0.257348 0.500333 0.501562 0.915903
C13   C     C_R   0.476090 0.062361 0.385121 -0.187050
C14   C     C_R   0.494302 0.937013 0.380540 -0.169970
C15   C     C_R   0.529417 0.874759 0.495620 -0.098518
C16   C     C_R   0.336924 0.327994 0.151095 -0.179876
C17   C     C_R   0.259865 0.242356 0.084026 -0.263509
C18   C     C_R   0.246161 0.258852 0.947282 0.148956
C19   C     C_R   0.301593 0.368053 0.882517 0.158138
C20   C     C_R   0.411362 0.424275 0.935423 0.045285
C21   C     C_R   0.417624 0.417856 0.078668 0.131326
C22   C     C_R   0.584015 0.574769 0.064578 0.196235
C23   C     C_R   0.513218 0.740098 0.498426 0.901758
C24   C     C_R   0.585811 0.571391 0.922412 -0.083082
C25   C     C_R   0.742052 0.495800 0.496851 0.936199
C26   C     C_3   0.034829 0.377177 0.505403 0.136222
C27   C     C_3   0.961942 0.427242 0.387922 -0.187972
C28   C     C_3   0.876965 0.491506 0.490515 -0.097437
C29   C     C_3   0.947063 0.440788 0.608000 0.229114
C30   C     C_3   0.035353 0.562367 0.599771 -0.175836
H1    H     H_    0.927794 0.372764 0.301354 0.195665
H2    H     H_    0.657905 0.911998 0.931385 0.181779
H3    H     H_    0.479030 0.888883 0.287245 0.184245
H4    H     H_    0.332063 0.319398 0.257699 0.222916
H5    H     H_    0.206643 0.166704 0.139368 0.205115
H6    H     H_    0.656412 0.628561 0.864710 0.186201
H7    H     H_    0.064269 0.627104 0.679761 0.212204
H8    H     H_    0.935326 0.706935 0.461369 0.202440
H9    H     H_    0.098345 0.590439 0.286614 0.194364
H10   H     H_    0.456337 0.110277 0.292856 0.168644
H11   H     H_    0.423591 0.179853 0.777661 0.169829
H12   H     H_    0.513878 0.082122 0.968657 0.156791
N1    N     N_R   0.498800 0.498800 0.142780 -0.130672
N2    N     N_R   0.498760 0.498720 0.857170 -0.117312
O1    O     O_R   0.500000 0.316780 0.614690 -0.624943
O2    O     O_R   0.499990 0.316750 0.385360 -0.645492
O3    O     O_R   0.313960 0.499980 0.614650 -0.594529
O4    O     O_R   0.313940 0.499960 0.385310 -0.640545
O5    O     O_R   0.500010 0.683250 0.614640 -0.606162
O6    O     O_R   0.500000 0.683220 0.385310 -0.604934
O7    O     O_R   0.686060 0.500040 0.614690 -0.594750
O8    O     O_R   0.686040 0.500020 0.385350 -0.592246
Zn1   Zn    Zn3+2 0.500010 0.500020 0.653130 0.997247
Zn2   Zn    Zn3+2 0.499990 0.499980 0.346870 0.980801
I1    I     I_    0.786685 0.801145 0.683229 -0.347677
I2    I     I_    0.720992 0.698883 0.149055 -0.317603
I3    I     I_    0.124383 0.127311 0.853838 -0.243669
I4    I     I_    0.167677 0.505338 0.895733 -0.297623
I5    I     I_    0.097574 0.192327 0.490682 -0.333661
I6    I     I_    0.858486 0.346839 0.784308 -0.223649

loop_
_geom_bond_atom_site_label_1
_geom_bond_atom_site_label_2
_ccdc_geom_bond_type
C4    C26   S    
C25   O7    A    
C16   C21   A    
C4    C12   S    
C2    C28   S    
C26   I5    S    
C2    H8    S    
N1    Zn2   S    
C19   C20   A    
C1    C11   S    
C29   I6    S    
C12   O4    A    
O3    Zn1   S    
O2    Zn2   S    
C14   H3    S    
C15   C23   S    
C17   C18   A    
C9    C15   A    
C25   O8    A    
O1    Zn1   S    
C7    C8    A    
O6    Zn2   S    
C24   H6    S    
C13   C14   A    
C25   C28   S    
O4    Zn2   S    
C11   C13   A    
C1    O1    A    
C26   C27   S    
C29   C30   S    
C12   O3    A    
O5    Zn1   S    
C8    I1    S    
C3    C27   S    
C28   C29   S    
C20   N2    A    
O8    Zn2   S    
C2    C3    S    
C6    C7    A    
C19   I4    S    
C5    C6    A    
C24   N2    A    
C22   C24   A    
C1    O2    A    
C23   O5    A    
C10   C11   A    
O7    Zn1   S    
C3    H9    S    
C3    C4    S    
C9    C10   A    
C5    C10   A    
C17   H5    S    
C2    C30   S    
C20   C21   A    
C26   C29   S    
C18   C19   A    
C6    H12   S    
C27   C28   S    
C5    H11   S    
C14   C15   A    
C16   C17   A    
C23   O6    A    
C22   I2    S    
C7    H2    S    
C18   I3    S    
C16   H4    S    
C21   N1    A    
C27   H1    S    
N2    Zn1   S    
C4    C30   S    
C22   N1    A    
C30   H7    S    
C8    C9    A    
C13   H10   S    
