data_mof_unit_60346.cif
_audit_creation_date              2013-03-05T16:21:31-0500
_audit_creation_method            fapswitch 2.2
_symmetry_space_group_name_H-M    P1
_symmetry_Int_Tables_number       1
_space_group_crystal_system       triclinic
_cell_length_a                    30.794366
_cell_length_b                    31.964952
_cell_length_c                    21.740011
_cell_angle_alpha                 89.940211
_cell_angle_beta                  135.076881
_cell_angle_gamma                 90.273875
_cell_volume                      15111.2088136

loop_
_atom_site_label
_atom_site_type_symbol
_atom_site_description
_atom_site_fract_x
_atom_site_fract_y
_atom_site_fract_z
_atom_type_partial_charge
O1    O     O_R   0.447840 0.000000 0.357610 -0.585237
O2    O     O_R   0.947840 0.500000 0.357610 -0.585232
O3    O     O_R   0.552190 0.000000 0.462050 -0.587057
O4    O     O_R   0.052190 0.500000 0.462050 -0.587057
C1    C     C_R   0.500004 0.999885 0.381349 0.797249
C2    C     C_R   0.000004 0.499884 0.381348 0.797252
O5    O     O_R   0.447840 0.939540 0.447780 -0.578992
O6    O     O_R   0.447840 0.060460 0.447780 -0.582217
O7    O     O_R   0.947840 0.439540 0.447780 -0.578999
O8    O     O_R   0.947840 0.560460 0.447780 -0.582227
O9    O     O_R   0.552190 0.939560 0.552210 -0.582737
O10   O     O_R   0.552190 0.060440 0.552210 -0.578869
O11   O     O_R   0.052190 0.439560 0.552210 -0.582727
O12   O     O_R   0.052190 0.560440 0.552210 -0.578857
C3    C     C_R   0.499873 0.919852 0.499989 0.819981
C4    C     C_R   0.500169 0.080150 0.500192 0.820450
C5    C     C_R   0.999873 0.419852 0.499989 0.819983
C6    C     C_R   0.000168 0.580150 0.500192 0.820454
Cu1   Cu    Cu3+1 0.438230 0.000000 0.438170 0.953645
Cu2   Cu    Cu3+1 0.938230 0.500000 0.438170 0.953619
Cu3   Cu    Cu3+1 0.561800 0.000000 0.561830 0.951960
Cu4   Cu    Cu3+1 0.061800 0.500000 0.561830 0.951966
O13   O     O_R   0.447840 0.000000 0.537950 -0.583666
O14   O     O_R   0.947840 0.500000 0.537950 -0.583680
O15   O     O_R   0.552190 0.000000 0.642390 -0.586164
O16   O     O_R   0.052190 0.500000 0.642390 -0.586177
C7    C     C_R   0.500176 0.999978 0.618692 0.810879
C8    C     C_R   0.000176 0.499977 0.618692 0.810867
C9    C     C_3   0.481047 0.736072 0.426025 -0.155932
C10   C     C_3   0.475437 0.263846 0.422834 -0.158747
C11   C     C_3   0.977357 0.236051 0.423705 -0.155989
C12   C     C_3   0.970106 0.763815 0.420349 -0.158673
C13   C     C_3   0.538086 0.764249 0.494829 -0.155178
C14   C     C_3   0.533576 0.236231 0.485982 -0.155969
C15   C     C_3   0.035045 0.264239 0.489273 -0.155220
C16   C     C_3   0.028434 0.736205 0.477638 -0.155927
H1    H     H_    0.569767 0.776414 0.490673 0.133765
H2    H     H_    0.560944 0.224457 0.474044 0.132008
H3    H     H_    0.064222 0.276396 0.480544 0.133623
H4    H     H_    0.051570 0.724410 0.458833 0.131763
H5    H     H_    0.465796 0.724135 0.365254 0.134202
H6    H     H_    0.454955 0.275711 0.358924 0.132066
H7    H     H_    0.959069 0.224098 0.361026 0.134095
H8    H     H_    0.945238 0.775656 0.354395 0.131826
H9    H     H_    0.603727 0.724585 0.625276 0.135390
H10   H     H_    0.606051 0.276454 0.615354 0.132454
H11   H     H_    0.104910 0.224604 0.619375 0.135587
H12   H     H_    0.106396 0.776463 0.604674 0.132431
C17   C     C_1   0.499582 0.874896 0.499887 -0.171568
C18   C     C_1   0.500470 0.125108 0.500569 -0.174487
C19   C     C_1   0.999582 0.374896 0.499888 -0.171573
C20   C     C_1   0.000470 0.625108 0.500570 -0.174490
C21   C     C_1   0.499876 0.625143 0.499842 -0.169607
C22   C     C_1   0.499961 0.374860 0.500056 -0.172896
C23   C     C_1   0.999877 0.125143 0.499842 -0.169603
C24   C     C_1   0.999962 0.874860 0.500057 -0.172885
C25   C     C_3   0.442457 0.763731 0.431082 -0.156842
C26   C     C_3   0.442316 0.235712 0.437484 -0.157839
C27   C     C_3   0.941808 0.263721 0.434320 -0.156863
C28   C     C_3   0.942129 0.735707 0.443345 -0.157709
C29   C     C_3   0.499498 0.791217 0.499886 0.186007
C30   C     C_3   0.500454 0.208789 0.500632 0.187645
C31   C     C_3   0.999498 0.291217 0.499886 0.186054
C32   C     C_3   0.000455 0.708790 0.500634 0.187610
C33   C     C_3   0.461085 0.735797 0.504926 -0.157554
C34   C     C_3   0.467059 0.263732 0.515003 -0.156328
C35   C     C_3   0.964127 0.235806 0.510483 -0.157629
C36   C     C_3   0.972204 0.763758 0.523351 -0.156477
C37   C     C_3   0.499674 0.708831 0.499864 0.186077
C38   C     C_3   0.500183 0.291175 0.500355 0.187300
C39   C     C_3   0.999675 0.208831 0.499865 0.186054
C40   C     C_3   0.000185 0.791175 0.500357 0.187355
C41   C     C_3   0.518126 0.763981 0.573732 -0.156517
C42   C     C_3   0.525198 0.236115 0.578153 -0.156160
C43   C     C_3   0.021818 0.264001 0.576052 -0.156484
C44   C     C_3   0.030532 0.736146 0.580643 -0.156384
C45   C     C_3   0.556715 0.736320 0.568671 -0.153452
C46   C     C_3   0.558322 0.264252 0.563505 -0.154157
C47   C     C_3   0.057365 0.236330 0.565434 -0.153380
C48   C     C_3   0.058512 0.764257 0.557647 -0.154104
C49   C     C_1   0.499482 0.837145 0.499882 -0.069559
C50   C     C_1   0.500534 0.162861 0.500684 -0.073492
C51   C     C_1   0.999482 0.337145 0.499883 -0.069562
C52   C     C_1   0.000535 0.662861 0.500686 -0.073498
C53   C     C_1   0.499787 0.662898 0.499835 -0.068925
C54   C     C_1   0.500044 0.337106 0.500184 -0.072195
C55   C     C_1   0.999788 0.162898 0.499835 -0.068929
C56   C     C_1   0.000046 0.837106 0.500185 -0.072186
H13   H     H_    0.533371 0.775935 0.634490 0.132520
H14   H     H_    0.545670 0.224243 0.642054 0.131502
H15   H     H_    0.040098 0.275971 0.638718 0.132587
H16   H     H_    0.055391 0.724300 0.646589 0.131749
H17   H     H_    0.429403 0.723631 0.509081 0.132342
H18   H     H_    0.439686 0.275504 0.526934 0.133289
H19   H     H_    0.934950 0.223649 0.519212 0.132427
H20   H     H_    0.949063 0.775551 0.542150 0.133445
H21   H     H_    0.395446 0.775468 0.374479 0.133723
H22   H     H_    0.394587 0.223510 0.385633 0.133002
H23   H     H_    0.894264 0.275449 0.380382 0.133725
H24   H     H_    0.894244 0.723501 0.396318 0.133188
C57   C     C_R   0.459645 0.022892 0.240458 0.126591
C58   C     C_R   0.959577 0.522838 0.240387 0.126615
C59   C     C_R   0.500362 0.999059 0.315417 -0.089801
C60   C     C_R   0.000363 0.499059 0.315416 -0.089885
C61   C     C_R   0.542964 0.974360 0.325518 -0.207484
C62   C     C_R   0.043036 0.474416 0.325586 -0.207464
H25   H     H_    0.575639 0.955010 0.382694 0.157054
H26   H     H_    0.075766 0.455109 0.382816 0.157105
C63   C     C_R   0.542614 0.974086 0.260304 -0.211877
C64   C     C_R   0.042686 0.474143 0.260372 -0.211918
H27   H     H_    0.575063 0.954612 0.268410 0.153432
H28   H     H_    0.075191 0.454712 0.268532 0.153366
C65   C     C_R   0.501115 0.999620 0.186082 -0.087623
C66   C     C_R   0.001114 0.499621 0.186078 -0.087522
C67   C     C_R   0.460906 0.023842 0.179710 0.119021
C68   C     C_R   0.960835 0.523789 0.179635 0.118970
C69   C     C_3   0.409469 0.054196 0.123499 -0.477344
C70   C     C_3   0.909306 0.554072 0.123331 -0.477520
C71   C     C_3   0.408451 0.053487 0.193395 -0.468454
C72   C     C_3   0.908291 0.553362 0.193229 -0.468263
H29   H     H_    0.367780 0.040106 0.060338 0.191302
H30   H     H_    0.424527 0.084687 0.118941 0.208698
H31   H     H_    0.867660 0.539924 0.060213 0.191271
H32   H     H_    0.924274 0.584582 0.118680 0.208687
H33   H     H_    0.365968 0.039280 0.170353 0.206844
H34   H     H_    0.423325 0.083493 0.229579 0.194722
H35   H     H_    0.865850 0.539097 0.170228 0.206850
H36   H     H_    0.923074 0.583389 0.229320 0.194696
C73   C     C_R   0.499480 0.036451 0.716480 0.046932
C74   C     C_R   0.999457 0.536450 0.716457 0.046923
C75   C     C_R   0.501599 0.998886 0.686400 -0.064597
C76   C     C_R   0.001600 0.498885 0.686401 -0.064591
C77   C     C_R   0.513166 0.961351 0.730246 0.154139
C78   C     C_R   0.013190 0.461354 0.730271 0.154092
C79   C     C_R   0.514103 0.962073 0.795864 -0.199446
C80   C     C_R   0.014125 0.462076 0.795886 -0.199417
H37   H     H_    0.520592 0.933124 0.827447 0.164961
H38   H     H_    0.020632 0.433130 0.827488 0.164952
C81   C     C_R   0.504042 0.999687 0.817899 -0.128709
C82   C     C_R   0.004041 0.499688 0.817898 -0.128676
C83   C     C_R   0.500470 0.036878 0.780879 0.124409
C84   C     C_R   0.000447 0.536877 0.780855 0.124412
C85   C     C_3   0.454375 0.071270 0.737829 -0.413125
C86   C     C_3   0.954329 0.571256 0.737782 -0.413111
C87   C     C_3   0.453491 0.070834 0.667070 -0.472984
C88   C     C_3   0.953448 0.570819 0.667024 -0.472972
H39   H     H_    0.474281 0.100499 0.777251 0.193887
H40   H     H_    0.410139 0.061012 0.714297 0.235560
H41   H     H_    0.974216 0.600491 0.777185 0.193932
H42   H     H_    0.910100 0.560984 0.714252 0.235551
H43   H     H_    0.473124 0.099735 0.665917 0.193248
H44   H     H_    0.408726 0.060407 0.602561 0.222305
H45   H     H_    0.973064 0.599726 0.665855 0.193377
H46   H     H_    0.908689 0.560380 0.602521 0.222282
O17   O     O_R   0.409740 0.500000 0.357550 -0.584897
O18   O     O_R   0.909740 0.000000 0.357550 -0.584915
O19   O     O_R   0.409840 0.500000 0.462040 -0.586870
O20   O     O_R   0.909840 0.000000 0.462040 -0.586897
C89   C     C_R   0.381349 0.500120 0.381342 0.796781
C90   C     C_R   0.881347 0.000121 0.381341 0.796801
O21   O     O_R   0.499890 0.560480 0.447700 -0.579541
O22   O     O_R   0.499890 0.439520 0.447700 -0.581609
O23   O     O_R   0.999890 0.060480 0.447700 -0.579534
O24   O     O_R   0.999890 0.939520 0.447700 -0.581590
O25   O     O_R   0.500000 0.560470 0.552180 -0.581437
O26   O     O_R   0.500000 0.439530 0.552180 -0.579326
O27   O     O_R   1.000000 0.060470 0.552180 -0.581446
O28   O     O_R   1.000000 0.939530 0.552180 -0.579343
C91   C     C_R   0.499956 0.580178 0.499932 0.823709
C92   C     C_R   0.499908 0.419822 0.499934 0.823288
C93   C     C_R   0.999957 0.080178 0.499933 0.823722
C94   C     C_R   0.999908 0.919822 0.499934 0.823306
Cu5   Cu    Cu3+1 0.499880 0.500000 0.438060 0.951103
Cu6   Cu    Cu3+1 0.999880 0.000000 0.438060 0.951118
Cu7   Cu    Cu3+1 0.500000 0.500000 0.561790 0.950255
Cu8   Cu    Cu3+1 1.000000 0.000000 0.561790 0.950206
O29   O     O_R   0.590030 0.500000 0.537810 -0.583528
O30   O     O_R   0.090030 0.000000 0.537810 -0.583523
O31   O     O_R   0.590140 0.500000 0.642300 -0.593439
O32   O     O_R   0.090140 0.000000 0.642300 -0.593429
C95   C     C_R   0.618931 0.499689 0.618980 0.796912
C96   C     C_R   0.118931 0.999689 0.618980 0.796906
O33   O     O_R   0.590180 0.965000 0.090240 -0.588990
O34   O     O_R   0.590180 0.035000 0.090240 -0.587101
O35   O     O_R   0.090180 0.465000 0.090240 -0.589008
O36   O     O_R   0.090180 0.535000 0.090240 -0.587123
C97   C     C_R   0.618853 0.000131 0.118967 0.804103
C98   C     C_R   0.118855 0.500131 0.118972 0.804098
O37   O     O_R   0.500040 0.965010 0.090190 -0.587248
O38   O     O_R   0.500040 0.034990 0.090190 -0.586091
O39   O     O_R   0.000040 0.465010 0.090190 -0.587244
O40   O     O_R   0.000040 0.534990 0.090190 -0.586094
C99   C     C_R   0.500037 0.999951 0.118846 0.802575
C100  C     C_R   0.000035 0.499951 0.118843 0.802591
Cu9   Cu    Cu3+1 0.500030 0.958570 0.000020 0.946882
Cu10  Cu    Cu3+1 0.500030 0.041430 0.000020 0.949720
Cu11  Cu    Cu3+1 0.000030 0.458570 0.000020 0.946874
Cu12  Cu    Cu3+1 0.000030 0.541430 0.000020 0.949711
O41   O     O_R   0.409890 0.965030 0.909800 -0.581996
O42   O     O_R   0.409890 0.034970 0.909800 -0.585676
O43   O     O_R   0.909890 0.465030 0.909800 -0.581985
O44   O     O_R   0.909890 0.534970 0.909800 -0.585685
O45   O     O_R   0.500040 0.965020 0.909850 -0.592663
O46   O     O_R   0.500040 0.034980 0.909850 -0.590361
O47   O     O_R   0.000040 0.465020 0.909850 -0.592650
O48   O     O_R   0.000040 0.534980 0.909850 -0.590355
C101  C     C_R   0.381223 0.999861 0.880775 0.799376
C102  C     C_R   0.881223 0.499861 0.880775 0.799353
C103  C     C_R   0.500274 0.999968 0.881015 0.821278
C104  C     C_R   0.000273 0.499968 0.881014 0.821285
C105  C     C_R   0.280716 0.475784 0.242070 0.125775
C106  C     C_R   0.780709 0.975882 0.241928 0.125916
C107  C     C_R   0.315124 0.501055 0.315418 -0.087500
C108  C     C_R   0.815119 0.001054 0.315415 -0.087683
C109  C     C_R   0.282872 0.527354 0.323858 -0.208289
C110  C     C_R   0.782864 0.027252 0.323995 -0.208220
H47   H     H_    0.307573 0.547852 0.379781 0.155212
H48   H     H_    0.807562 0.047672 0.380026 0.155340
C111  C     C_R   0.718004 0.027577 0.258732 -0.212126
C112  C     C_R   0.218012 0.527678 0.258594 -0.212069
H49   H     H_    0.693851 0.048160 0.265696 0.154506
H50   H     H_    0.193861 0.548339 0.265449 0.154596
C113  C     C_R   0.685048 0.000630 0.186074 -0.089392
C114  C     C_R   0.185053 0.500631 0.186079 -0.089554
C115  C     C_R   0.718713 0.975016 0.181235 0.124324
C116  C     C_R   0.218720 0.474920 0.181382 0.124421
C117  C     C_3   0.713751 0.942692 0.127248 -0.478222
C118  C     C_3   0.213763 0.442465 0.127586 -0.477961
C119  C     C_3   0.284662 0.443118 0.197445 -0.472161
C120  C     C_3   0.784650 0.943345 0.197110 -0.471928
H51   H     H_    0.692377 0.955133 0.063146 0.196471
H52   H     H_    0.693934 0.912828 0.124819 0.205741
H53   H     H_    0.192388 0.454792 0.063411 0.196451
H54   H     H_    0.193950 0.412646 0.125331 0.205732
H55   H     H_    0.304222 0.455541 0.173439 0.208076
H56   H     H_    0.305743 0.413770 0.235880 0.194027
H57   H     H_    0.804210 0.955882 0.173173 0.208064
H58   H     H_    0.805728 0.913949 0.235372 0.193973
C121  C     C_R   0.718704 0.496157 0.663796 -0.021907
C122  C     C_R   0.218703 0.996188 0.663792 -0.021933
C123  C     C_R   0.685882 0.497014 0.686182 -0.055351
C124  C     C_R   0.185882 0.997015 0.686180 -0.055357
C125  C     C_R   0.718935 0.493685 0.774920 -0.188228
C126  C     C_R   0.218935 0.993655 0.774913 -0.188198
H59   H     H_    0.695302 0.492018 0.794997 0.160870
H60   H     H_    0.195301 0.991962 0.794987 0.160872
C127  C     C_R   0.283342 0.994505 0.839109 -0.196015
C128  C     C_R   0.783342 0.494536 0.839115 -0.195990
H61   H     H_    0.308238 0.993146 0.907204 0.127014
H62   H     H_    0.808238 0.493201 0.907212 0.126965
C129  C     C_R   0.315032 0.999010 0.815101 -0.042981
C130  C     C_R   0.815032 0.499010 0.815102 -0.042983
C131  C     C_R   0.282313 0.996954 0.727303 -0.039216
C132  C     C_R   0.782313 0.496923 0.727306 -0.039222
C133  C     C_3   0.283609 0.024765 0.672846 0.721460
C134  C     C_3   0.783608 0.524706 0.672819 0.721436
C135  C     C_3   0.713520 0.523302 0.602779 -0.405077
C136  C     C_3   0.213520 0.023364 0.602808 -0.405094
H63   H     H_    0.693155 0.506141 0.542769 0.166680
H64   H     H_    0.691662 0.553902 0.591065 0.197427
H65   H     H_    0.193152 0.006225 0.542775 0.166699
H66   H     H_    0.191665 0.053960 0.591135 0.197388
C137  C     C_3   0.521524 0.920554 0.705058 -0.865576
H67   H     H_    0.528706 0.894104 0.744596 0.226787
H68   H     H_    0.480060 0.913600 0.635385 0.229063
H69   H     H_    0.562222 0.922690 0.715180 0.238700
C138  C     C_3   0.021572 0.420559 0.705108 -0.865467
H70   H     H_    0.980114 0.413594 0.635439 0.229084
H71   H     H_    0.062271 0.422706 0.715232 0.238653
H72   H     H_    0.028769 0.394112 0.744662 0.226827
O49   O     O_3   0.310534 0.006414 0.647509 -0.752107
H73   H     H_    0.295229 0.977168 0.628786 0.305497
O50   O     O_3   0.306741 0.065020 0.707915 -0.709644
H74   H     H_    0.352186 0.062719 0.753274 0.333810
O51   O     O_3   0.810538 0.506331 0.647508 -0.752068
H75   H     H_    0.795238 0.477082 0.628820 0.305502
O52   O     O_3   0.806735 0.564968 0.707839 -0.709624
H76   H     H_    0.852180 0.562665 0.753233 0.333764

loop_
_geom_bond_atom_site_label_1
_geom_bond_atom_site_label_2
_geom_bond_distance
_ccdc_geom_bond_type
Cu12  O48   1.971540 S    
C110  C111  1.410512 A    
C80   C82   1.409278 A    
C81   C103  1.456638 S    
C79   C81   1.409280 A    
C69   C71   1.542013 S    
C74   C88   1.491809 S    
O49   H73   0.993312 S    
C9    C13   1.549513 S    
C79   H37   1.083413 S    
C11   C27   1.549604 S    
C20   C52   1.206754 T    
C32   C52   1.468120 S    
C132  C134  1.502617 S    
O9    C3    1.297287 A    
O10   C4    1.298000 A    
O8    Cu2   1.942677 S    
C124  C126  1.410296 A    
O40   Cu12  1.970648 S    
Cu10  O46   1.971540 S    
C73   C87   1.491811 S    
C62   H26   1.083184 S    
O5    C3    1.297881 A    
O6    C4    1.297219 A    
C118  C119  1.542002 S    
C128  H62   1.083596 S    
C9    C37   1.536897 S    
C107  C109  1.411803 A    
O25   C91   1.297460 A    
C6    C20   1.437089 S    
C16   C48   1.549611 S    
O27   C93   1.297462 A    
Cu1   O13   1.970792 S    
C88   H46   1.112233 S    
C36   C40   1.536942 S    
C30   C42   1.536893 S    
C25   H21   1.110075 S    
C70   H32   1.111438 S    
O30   C96   1.296974 A    
C106  C115  1.348665 A    
O5    Cu1   1.945059 S    
C57   C67   1.348763 A    
C84   C86   1.493611 S    
C19   C51   1.206717 T    
C78   C138  1.506977 S    
C137  H68   1.110508 S    
C66   C100  1.438383 S    
C121  C135  1.495677 S    
C82   C84   1.395346 A    
C28   H24   1.110078 S    
Cu7   O31   1.971925 S    
C25   C29   1.536883 S    
C27   C31   1.536881 S    
C126  C127  1.400697 A    
C28   C32   1.536961 S    
C42   H14   1.110093 S    
C119  H56   1.111634 S    
O39   C100  1.279464 A    
C109  C112  1.410520 A    
C34   C38   1.536937 S    
O8    C6    1.297219 A    
O43   C102  1.279120 A    
C68   C70   1.488249 S    
C3    C17   1.436977 S    
C70   C72   1.542012 S    
Cu9   Cu10  2.648619 S    
C71   H34   1.111623 S    
Cu9   O45   1.971112 S    
C13   C29   1.536950 S    
C125  C128  1.400696 A    
C77   C79   1.406456 A    
C41   C45   1.549641 S    
C15   C31   1.536950 S    
C135  H63   1.111687 S    
C16   C32   1.536899 S    
C43   C47   1.549636 S    
C128  C130  1.401888 A    
C65   C67   1.384873 A    
C117  H51   1.111702 S    
C1    C59   1.441451 S    
C37   C45   1.536946 S    
C26   H22   1.110084 S    
C39   C47   1.536945 S    
C72   H35   1.111481 S    
C61   H25   1.083181 S    
C11   H7    1.110080 S    
C12   C16   1.549580 S    
Cu1   Cu3   2.687119 S    
C110  H48   1.083180 S    
C63   H27   1.083247 S    
C138  H72   1.110689 S    
C108  C110  1.411856 A    
C24   C56   1.206822 T    
C34   C42   1.549631 S    
C102  C130  1.439554 S    
C86   H42   1.110870 S    
C27   C35   1.549649 S    
Cu12  O44   1.969832 S    
C64   C66   1.410672 A    
C43   H15   1.110110 S    
O21   C91   1.297724 A    
C33   H17   1.110079 S    
O52   H76   0.991392 S    
C35   H19   1.110077 S    
C136  H66   1.112527 S    
O41   C101  1.279124 A    
C95   C123  1.458889 S    
Cu9   O41   1.972183 S    
Cu5   Cu7   2.687274 S    
C12   H8    1.110073 S    
C85   H40   1.110877 S    
O6    Cu1   1.942677 S    
C10   C14   1.549576 S    
O17   C89   1.293192 A    
C134  O52   1.403064 S    
O18   C90   1.293216 A    
C121  C123  1.398572 A    
C22   C54   1.206822 T    
O9    Cu3   1.942044 S    
C8    C76   1.441672 S    
O40   C100  1.281077 A    
C69   H30   1.111444 S    
O4    Cu4   1.970794 S    
O48   C104  1.285870 A    
C90   C108  1.440688 S    
C59   C61   1.412150 A    
C118  H53   1.111695 S    
C76   C78   1.412777 A    
C44   H16   1.110078 S    
O26   C92   1.297642 A    
C2    C60   1.441487 S    
C42   C46   1.549651 S    
O24   C94   1.297515 A    
C35   C43   1.549677 S    
C37   C53   1.468266 S    
O7    C5    1.297881 A    
C77   C137  1.506980 S    
C61   C63   1.410178 A    
C9    H5    1.110081 S    
C10   H6    1.110084 S    
C44   C48   1.549647 S    
C66   C68   1.384861 A    
C138  H70   1.110508 S    
C113  C115  1.385237 A    
C127  C129  1.401895 A    
C36   C44   1.549639 S    
O34   C97   1.280241 A    
O11   C5    1.297287 A    
C135  H64   1.112524 S    
O35   Cu11  1.969949 S    
O12   Cu4   1.944420 S    
C21   C53   1.206862 T    
C40   C48   1.536969 S    
C29   C49   1.468095 S    
C81   C83   1.395344 A    
C13   C45   1.549513 S    
C31   C43   1.536894 S    
O47   C104  1.282893 A    
O29   C95   1.296980 A    
C15   C47   1.549511 S    
C115  C117  1.488460 S    
C126  H60   1.082781 S    
C23   C55   1.206859 T    
Cu11  Cu12  2.648619 S    
C74   C84   1.378685 A    
C64   H28   1.083249 S    
C87   H44   1.112234 S    
O3    Cu3   1.970794 S    
O37   C99   1.279470 A    
Cu8   O32   1.971925 S    
C57   C59   1.386059 A    
O45   C103  1.282893 A    
C120  H57   1.111467 S    
H9    C45   1.110082 S    
C122  C136  1.495677 S    
C101  C129  1.439552 S    
C26   C30   1.536960 S    
C89   C107  1.440621 S    
C22   C92   1.437227 S    
Cu11  O47   1.971112 S    
O51   H75   0.993315 S    
C5    C19   1.436977 S    
C60   C62   1.412170 A    
C82   C104  1.456637 S    
C137  H67   1.110689 S    
C12   C40   1.536924 S    
O22   Cu5   1.944330 S    
O18   Cu6   1.971923 S    
O26   Cu7   1.944399 S    
C36   H20   1.110076 S    
O1    C1    1.293385 A    
C4    C18   1.437080 S    
C83   C85   1.493612 S    
C73   C83   1.378687 A    
C14   C30   1.536891 S    
C7    C75   1.441672 S    
O28   Cu8   1.944399 S    
C17   C49   1.206714 T    
Cu3   O15   1.972014 S    
O38   C99   1.281090 A    
O32   C96   1.296089 A    
C67   C69   1.488253 S    
C105  C116  1.348662 A    
O46   C103  1.285870 A    
O33   Cu9   1.969949 S    
O24   Cu6   1.944330 S    
O23   C93   1.297722 A    
Cu6   O30   1.970848 S    
C21   C91   1.437296 S    
C30   C50   1.468117 S    
C133  C136  1.524542 S    
O19   C89   1.291479 A    
C24   C94   1.437234 S    
O20   C90   1.291493 A    
C23   C93   1.437299 S    
C10   C38   1.536918 S    
C127  H61   1.083599 S    
O1    Cu1   1.972019 S    
O2    Cu2   1.972019 S    
O14   C8    1.293240 A    
C86   C88   1.519241 S    
H10   C46   1.110081 S    
C29   C41   1.536891 S    
O34   Cu10  1.972289 S    
C13   H1    1.110087 S    
C31   C51   1.468095 S    
C119  H55   1.111465 S    
C15   H3    1.110088 S    
O33   C97   1.281338 A    
O21   Cu5   1.944759 S    
O37   Cu9   1.971075 S    
O7    Cu2   1.945059 S    
O22   C92   1.297515 A    
C39   C55   1.468262 S    
C71   H33   1.111479 S    
O4    C2    1.291497 A    
C9    C25   1.549597 S    
O42   C101  1.280662 A    
C11   C15   1.549517 S    
O25   Cu7   1.943962 S    
C12   C28   1.549546 S    
O36   C98   1.280260 A    
C58   C72   1.488980 S    
C18   C50   1.206754 T    
C130  C132  1.392469 A    
C105  C119  1.488771 S    
C65   C99   1.438418 S    
C25   C33   1.549646 S    
O3    C1    1.291488 A    
C72   H36   1.111621 S    
C41   H13   1.110113 S    
C138  H71   1.110162 S    
C88   H45   1.111619 S    
C33   C37   1.537018 S    
O11   Cu4   1.942044 S    
C35   C39   1.537019 S    
C70   H31   1.111701 S    
Cu6   Cu8   2.687274 S    
C106  C108  1.385590 A    
C111  C113  1.411143 A    
O28   C94   1.297642 A    
C28   C36   1.549572 S    
Cu4   O16   1.972014 S    
O36   Cu12  1.972289 S    
C137  H69   1.110159 S    
C38   C46   1.536967 S    
C27   H23   1.110072 S    
O12   C6    1.298000 A    
C74   C76   1.391596 A    
H11   C47   1.110082 S    
Cu10  O42   1.969832 S    
C112  H50   1.083218 S    
C133  O49   1.409622 S    
C85   H39   1.111494 S    
C122  C131  1.383315 A    
C97   C113  1.439532 S    
C133  O50   1.403066 S    
C109  H47   1.083190 S    
C129  C131  1.392470 A    
C33   C41   1.549684 S    
C69   H29   1.111702 S    
C26   C34   1.549565 S    
Cu2   O14   1.970792 S    
C125  H59   1.082782 S    
C134  O51   1.409615 S    
Cu11  O43   1.972183 S    
O13   C7    1.293238 A    
C118  H54   1.111467 S    
C63   C65   1.410688 A    
C34   H18   1.110088 S    
O17   Cu5   1.971923 S    
C117  H52   1.111464 S    
O44   C102  1.280664 A    
O2    C2    1.293393 A    
C96   C124  1.458886 S    
C40   C56   1.468205 S    
C57   C71   1.488972 S    
C16   H4    1.110079 S    
C80   H38   1.083413 S    
C131  C133  1.502615 S    
O35   C98   1.281357 A    
C78   C80   1.406456 A    
O10   Cu3   1.944420 S    
C123  C125  1.410300 A    
C86   H41   1.111494 S    
C111  H49   1.083224 S    
C106  C120  1.488793 S    
Cu5   O29   1.970848 S    
C134  C135  1.524537 S    
C121  C132  1.383317 A    
C122  C124  1.398572 A    
O50   H74   0.991394 S    
C32   C44   1.536894 S    
C58   C60   1.386076 A    
C87   H43   1.111618 S    
O19   Cu7   1.971043 S    
C98   C114  1.439601 S    
O20   Cu8   1.971043 S    
C105  C107  1.385566 A    
C116  C118  1.488476 S    
C120  H58   1.111633 S    
C136  H65   1.111686 S    
C38   C54   1.468212 S    
C112  C114  1.411185 A    
C62   C64   1.410174 A    
C85   C87   1.519247 S    
C14   H2    1.110087 S    
O39   Cu11  1.971075 S    
Cu2   Cu4   2.687119 S    
C75   C77   1.412774 A    
C114  C116  1.385267 A    
O38   Cu10  1.970648 S    
O15   C7    1.289339 A    
O16   C8    1.289337 A    
H12   C48   1.110077 S    
C14   C46   1.549612 S    
C10   C26   1.549546 S    
C11   C39   1.536903 S    
C58   C68   1.348764 A    
C117  C120  1.542003 S    
O31   C95   1.296084 A    
O23   Cu6   1.944759 S    
O27   Cu8   1.943962 S    
C73   C75   1.391601 A    
