data_mof_unit_29586.cif
_audit_creation_date              2012-12-10T16:53:11-0500
_audit_creation_method            fapswitch 2.2
_symmetry_space_group_name_H-M    P1
_symmetry_Int_Tables_number       1
_space_group_crystal_system       triclinic
_cell_length_a                    10.828802
_cell_length_b                    10.919453
_cell_length_c                    9.741146
_cell_angle_alpha                 90.489512
_cell_angle_beta                  91.550069
_cell_angle_gamma                 90.283143
_cell_volume                      1151.35892486

loop_
_atom_site_label
_atom_site_type_symbol
_atom_type_description
_atom_site_fract_x
_atom_site_fract_y
_atom_site_fract_z
_atom_type_partial_charge
C1    C     C_R   0.492649 0.265751 0.499368 0.826759
C2    C     C_R   0.067488 0.561478 0.619968 0.050603
C3    C     C_R   0.129426 0.529906 0.497909 -0.109887
C4    C     C_R   0.061406 0.495403 0.379843 -0.217437
C5    C     C_R   0.934646 0.484156 0.383645 -0.218585
C6    C     C_R   0.874129 0.495207 0.508427 -0.091858
C7    C     C_2   0.495128 0.932433 0.389779 -0.158196
C8    C     C_2   0.515024 0.866282 0.503027 -0.325167
C9    C     C_2   0.505861 0.065815 0.394356 -0.184482
C10   C     C_2   0.465077 0.135415 0.498482 0.046064
C11   C     C_2   0.421089 0.440138 0.921596 -0.070931
C12   C     C_R   0.263112 0.511547 0.498908 0.804037
C13   C     C_2   0.409846 0.454322 0.075291 0.554244
C14   C     C_R   0.503843 0.734429 0.500587 0.838579
C15   C     C_R   0.738336 0.495500 0.502527 0.794844
C16   C     C_R   0.123353 0.628841 0.732092 0.188010
C17   C     C_R   0.072723 0.619173 0.864189 0.237131
C18   C     C_R   0.963797 0.552499 0.879321 -0.216393
C19   C     C_R   0.898971 0.506378 0.764919 -0.236260
C20   C     C_R   0.944482 0.520810 0.631433 0.065231
Cu1   Cu    Cu3+1 0.500020 0.500020 0.638630 0.924753
Cu2   Cu    Cu3+1 0.499980 0.499980 0.361370 0.957048
H1    H     H_    0.106078 0.474990 0.284469 0.202571
H2    H     H_    0.353804 0.382196 0.867908 0.140176
H3    H     H_    0.586063 0.484679 0.119360 0.165689
H4    H     H_    0.926105 0.540029 0.980250 0.147630
H5    H     H_    0.817304 0.453565 0.785088 0.186176
H6    H     H_    0.884439 0.462500 0.288741 0.159391
H7    H     H_    0.477821 0.888628 0.290533 0.168251
H8    H     H_    0.540832 0.909713 0.600300 0.168764
H9    H     H_    0.553393 0.107853 0.309793 0.133510
N1    N     N_2   0.498640 0.498660 0.846910 -0.156770
N2    N     N_2   0.498610 0.498630 0.153040 -0.321636
O1    O     O_R   0.500020 0.321960 0.617040 -0.570076
O2    O     O_R   0.499980 0.321920 0.382900 -0.591312
O3    O     O_R   0.319670 0.500020 0.617100 -0.576900
O4    O     O_R   0.319630 0.499980 0.382950 -0.518923
O5    O     O_R   0.500020 0.678080 0.617100 -0.600933
O6    O     O_R   0.499980 0.678040 0.382960 -0.567506
O7    O     O_R   0.680370 0.500020 0.617050 -0.587824
O8    O     O_R   0.680330 0.499980 0.382900 -0.591198
C21   C     C_3   0.379924 0.089315 0.608074 -0.854463
H10   H     H_    0.308351 0.159135 0.628915 0.220469
H11   H     H_    0.329112 0.004984 0.575650 0.247962
H12   H     H_    0.433435 0.073121 0.704963 0.226262
C22   C     C_3   0.580000 0.594670 0.902222 -0.549940
H13   H     H_    0.613118 0.652935 0.819097 0.240394
H14   H     H_    0.531753 0.656818 0.973775 0.167050
H15   H     H_    0.666492 0.555069 0.945524 0.150298
O9    O     O_3   0.298863 0.424617 0.133671 -0.565487
C23   C     C_3   0.278853 0.297014 0.123725 -0.344559
H16   H     H_    0.363659 0.243308 0.148965 0.162588
H17   H     H_    0.241218 0.271267 0.020265 0.145395
H18   H     H_    0.208543 0.271072 0.199091 0.188188
C24   C     C_3   0.221452 0.724880 0.708066 -0.830802
H19   H     H_    0.190266 0.814857 0.747846 0.216830
H20   H     H_    0.308885 0.699980 0.762413 0.266691
H21   H     H_    0.238653 0.737963 0.597440 0.208971
C25   C     C_3   0.130180 0.678454 0.991223 -0.859087
H22   H     H_    0.222327 0.719111 0.974390 0.232805
H23   H     H_    0.068260 0.751453 0.028781 0.223913
H24   H     H_    0.141928 0.608986 0.072924 0.259337

loop_
_geom_bond_atom_site_label_1
_geom_bond_atom_site_label_2
_ccdc_geom_bond_type
C11   N1    D    
C13   O9    S    
C24   H19   S    
C13   N2    D    
C7    H7    S    
C10   C21   S    
C5    H6    S    
C2    C16   A    
C9    C10   D    
C19   C20   A    
C18   H4    S    
C23   H18   S    
C8    H8    S    
C17   C18   A    
C6    C15   S    
C16   C24   S    
C25   H22   S    
Cu1   O3    S    
Cu1   Cu2   S    
Cu2   O2    S    
C11   C13   S    
C22   H15   S    
C15   O8    A    
C4    C5    A    
Cu1   O7    S    
C21   H11   S    
C17   C25   S    
Cu2   O6    S    
C19   H5    S    
C1    O1    A    
O9    C23   S    
C2    C3    A    
C24   H20   S    
C5    C6    A    
Cu1   N1    S    
C22   H14   S    
C15   O7    A    
C25   H23   S    
Cu2   O8    S    
C12   O3    A    
C21   H10   S    
C9    H9    S    
C14   O5    A    
C23   H16   S    
C11   H2    S    
C7    C8    D    
C6    C20   A    
C1    O2    A    
C18   C19   A    
C24   H21   S    
H3    N2    S    
C12   O4    A    
C7    C9    S    
C4    H1    S    
C22   H13   S    
Cu1   O5    S    
C25   H24   S    
C8    C14   S    
C3    C12   S    
C14   O6    A    
Cu2   O4    S    
C2    C20   A    
Cu1   O1    S    
C1    C10   S    
C3    C4    A    
N1    C22   S    
C16   C17   A    
C23   H17   S    
C21   H12   S    
Cu2   N2    S    
