data_mof_unit_27289.cif
_audit_creation_date              2012-10-26T18:34:22-0400
_audit_creation_method            fapswitch 2.2
_symmetry_space_group_name_H-M    P1
_symmetry_Int_Tables_number       1
_space_group_crystal_system       triclinic
_cell_length_a                    10.835836
_cell_length_b                    9.654145
_cell_length_c                    9.05153
_cell_angle_alpha                 90.000546
_cell_angle_beta                  92.262567
_cell_angle_gamma                 89.99942
_cell_volume                      946.148986219

loop_
_atom_site_label
_atom_site_type_symbol
_atom_type_description
_atom_site_fract_x
_atom_site_fract_y
_atom_site_fract_z
_atom_type_partial_charge
C1    C     C_R   0.262481 0.500021 0.500851 0.553098
C2    C     C_R   0.063873 0.625870 0.501264 -0.106870
C3    C     C_R   0.871561 0.500115 0.498194 0.020549
C4    C     C_R   0.128438 0.500118 0.501801 0.020544
C5    C     C_R   0.435294 0.073873 0.392385 0.129550
C6    C     C_R   0.565419 0.925921 0.606941 0.129665
C7    C     C_R   0.564700 0.073873 0.607621 0.129520
C8    C     C_R   0.434582 0.925920 0.393058 0.129677
C9    C     C_2   0.364679 0.145533 0.272345 0.634537
C10   C     C_2   0.637971 0.853756 0.724977 0.630417
C11   C     C_2   0.635252 0.145533 0.727701 0.634511
C12   C     C_R   0.737519 0.500019 0.499147 0.553103
C13   C     C_2   0.362036 0.853752 0.275018 0.630446
C14   C     C_R   0.499729 0.499999 0.221048 0.554252
C15   C     C_R   0.500271 0.500000 0.778952 0.554250
C16   C     C_1   0.499910 0.499983 0.065673 0.009106
C17   C     C_1   0.500090 0.499984 0.934327 0.009097
C18   C     C_R   0.063850 0.374445 0.501909 -0.123005
C19   C     C_R   0.936123 0.625869 0.498675 -0.106875
C20   C     C_R   0.936152 0.374443 0.498141 -0.122993
Cu1   Cu    Cu3+1 0.500000 0.640660 0.500000 1.048813
Cu2   Cu    Cu3+1 0.500000 0.359340 0.500000 1.056435
H1    H     H_    0.111467 0.275964 0.505059 0.193375
H2    H     H_    0.888406 0.724344 0.496744 0.187634
H3    H     H_    0.888537 0.275961 0.495036 0.193375
H4    H     H_    0.111587 0.724347 0.503153 0.187670
H5    H     H_    0.205191 0.236231 0.203460 0.335233
H6    H     H_    0.650294 0.796171 0.939276 0.345459
H7    H     H_    0.794662 0.236432 0.796624 0.335217
H8    H     H_    0.349733 0.796161 0.060709 0.345472
N1    N     N_R   0.500000 0.852070 0.500000 -0.307653
N2    N     N_R   0.500000 0.147930 0.500000 -0.307269
O1    O     O_R   0.319640 0.618740 0.499990 -0.486431
O2    O     O_R   0.244901 0.191572 0.294897 -0.703716
O3    O     O_2   0.741754 0.811860 0.702035 -0.524889
O4    O     O_R   0.591260 0.844432 0.866411 -0.631141
O5    O     O_2   0.591993 0.154158 0.850141 -0.443728
O6    O     O_R   0.755003 0.191748 0.705176 -0.703673
O7    O     O_2   0.258274 0.811804 0.297975 -0.524863
O8    O     O_R   0.408738 0.844461 0.133572 -0.631156
O9    O     O_R   0.680360 0.381260 0.500010 -0.486667
O10   O     O_R   0.680360 0.618740 0.500010 -0.486466
O11   O     O_R   0.319640 0.381260 0.499990 -0.486729
O12   O     O_R   0.500000 0.618760 0.288390 -0.486528
O13   O     O_R   0.500000 0.381240 0.711610 -0.475052
O14   O     O_R   0.500000 0.618760 0.711610 -0.486504
O15   O     O_R   0.500000 0.381240 0.288390 -0.475052
O16   O     O_2   0.407899 0.154236 0.149895 -0.443745

loop_
_geom_bond_atom_site_label_1
_geom_bond_atom_site_label_2
_ccdc_geom_bond_type
H7    O6    S    
C6    C10   S    
C11   O6    S    
C2    C4    A    
C5    C9    S    
C6    C7    A    
C7    N2    A    
C5    C8    A    
Cu1   O12   S    
Cu2   O11   S    
C1    C4    S    
C4    C18   A    
C3    C19   A    
C5    N2    A    
C19   H2    S    
H8    O8    S    
C3    C20   A    
C2    H4    S    
Cu1   Cu2   S    
C7    C11   S    
Cu1   N1    S    
C12   O9    A    
Cu2   N2    S    
C8    N1    A    
C10   O4    S    
Cu2   O15   S    
C18   C20   A    
H5    O2    S    
C9    O2    S    
C10   O3    D    
C14   C16   S    
C13   O7    D    
Cu2   O9    S    
Cu1   O1    S    
C20   H3    S    
C15   O13   A    
C1    O1    A    
Cu1   O10   S    
C6    N1    A    
C8    C13   S    
Cu2   O13   S    
H6    O4    S    
C9    O16   D    
C14   O12   A    
Cu1   O14   S    
C11   O5    D    
C13   O8    S    
C12   O10   A    
C3    C12   S    
C15   O14   A    
C2    C19   A    
C15   C17   S    
C14   O15   A    
C1    O11   A    
C18   H1    S    
C16   C17   T    
