data_mof_unit_27978.cif
_audit_creation_date              2012-12-10T18:06:01-0500
_audit_creation_method            fapswitch 2.2
_symmetry_space_group_name_H-M    P1
_symmetry_Int_Tables_number       1
_space_group_crystal_system       triclinic
_cell_length_a                    12.619718
_cell_length_b                    13.184914
_cell_length_c                    14.994719
_cell_angle_alpha                 91.308383
_cell_angle_beta                  102.666199
_cell_angle_gamma                 82.482901
_cell_volume                      2413.28787345

loop_
_atom_site_label
_atom_site_type_symbol
_atom_type_description
_atom_site_fract_x
_atom_site_fract_y
_atom_site_fract_z
_atom_type_partial_charge
C1    C     C_R   0.438997 0.691072 0.491283 0.907313
C2    C     C_R   0.402320 0.503403 0.796865 -0.217419
C3    C     C_R   0.502018 0.497856 0.769372 -0.059010
C4    C     C_R   0.501213 0.498631 0.673156 0.915006
C5    C     C_R   0.601411 0.491731 0.833505 -0.217187
C6    C     C_R   0.722281 0.056871 0.595214 0.220400
C7    C     C_R   0.597399 0.199477 0.519937 -0.100962
C8    C     C_R   0.309287 0.829307 0.408629 -0.218347
C9    C     C_R   0.293761 0.926536 0.371030 0.226437
C10   C     C_R   0.370655 0.992977 0.401982 -0.186639
C11   C     C_R   0.458529 0.967098 0.478368 0.040110
C12   C     C_R   0.600704 0.489226 0.111497 0.116131
C13   C     C_R   0.467725 0.872149 0.521740 0.008843
C14   C     C_R   0.538690 0.031834 0.511779 0.036171
C15   C     C_R   0.634645 0.996287 0.578374 0.008286
C16   C     C_R   0.560951 0.308761 0.509707 0.888144
C17   C     C_R   0.631456 0.910400 0.632222 0.116679
C18   C     C_R   0.543017 0.852739 0.606499 0.095396
C19   C     C_R   0.521237 0.133988 0.485688 -0.202256
C20   C     C_R   0.701543 0.159692 0.568275 -0.221419
C21   C     C_R   0.400060 0.799812 0.479606 -0.113415
C22   C     C_R   0.083396 0.350109 0.370757 -0.294652
C23   C     C_R   0.301127 0.507806 0.009227 -0.182032
C24   C     C_R   0.799772 0.630266 0.608790 0.026796
C25   C     C_R   0.904652 0.658336 0.632308 -0.205006
C26   C     C_R   0.986481 0.608433 0.592185 -0.191582
C27   C     C_R   0.963315 0.529678 0.528176 0.027664
C28   C     C_R   0.499518 0.499104 0.326929 0.895432
C29   C     C_R   0.854869 0.503781 0.506984 0.233580
C30   C     C_R   0.042278 0.476544 0.483557 -0.006291
C31   C     C_R   0.009818 0.400461 0.418440 0.148568
C32   C     C_R   0.903642 0.375535 0.400268 -0.261259
C33   C     C_R   0.827603 0.426109 0.444499 -0.210323
C34   C     C_R   0.301663 0.508347 0.916669 -0.191548
C35   C     C_R   0.152221 0.495793 0.499842 -0.084635
C36   C     C_R   0.189206 0.374036 0.387298 0.301191
C37   C     C_R   0.599355 0.489628 0.203491 -0.243618
C38   C     C_R   0.499461 0.496597 0.230851 -0.066107
C39   C     C_R   0.400228 0.501998 0.166605 -0.213916
C40   C     C_R   0.400077 0.501540 0.074202 0.111862
C41   C     C_R   0.500683 0.495476 0.046487 0.065044
C42   C     C_R   0.401163 0.502610 0.888802 0.114596
C43   C     C_R   0.501228 0.496125 0.953751 0.065622
C44   C     C_R   0.601769 0.490624 0.925981 0.117773
C45   C     C_R   0.700737 0.484056 0.990997 -0.183757
C46   C     C_R   0.700222 0.483256 0.083602 -0.194655
H1    H     H_    0.676213 0.484510 0.253654 0.165448
H2    H     H_    0.747567 0.403325 0.427846 0.212122
H3    H     H_    0.223612 0.512488 0.030000 0.159206
H4    H     H_    0.325311 0.509180 0.746813 0.160715
H5    H     H_    0.678267 0.487164 0.811550 0.166288
H6    H     H_    0.778227 0.479681 0.970228 0.156740
H7    H     H_    0.765572 0.208475 0.586781 0.182804
H8    H     H_    0.184377 0.550786 0.549230 0.140206
H9    H     H_    0.066323 0.633265 0.612140 0.150722
H10   H     H_    0.224519 0.513374 0.866961 0.153951
H11   H     H_    0.777350 0.478331 0.133329 0.155882
H12   H     H_    0.443260 0.166579 0.446126 0.183426
H13   H     H_    0.255882 0.774425 0.377082 0.178522
H14   H     H_    0.361208 0.062239 0.362805 0.173131
H15   H     H_    0.878919 0.316811 0.351108 0.167958
H16   H     H_    0.058376 0.293243 0.319770 0.182263
H17   H     H_    0.323172 0.507924 0.188373 0.177646
H18   H     H_    0.735904 0.668665 0.639777 0.170743
H19   H     H_    0.922451 0.718705 0.681316 0.195508
I1    I     I_    0.735623 0.885536 0.765839 -0.280194
I2    I     I_    0.891003 0.998104 0.636998 -0.305573
I3    I     I_    0.162381 0.968320 0.259045 -0.310248
I4    I     I_    0.499027 0.762236 0.706337 -0.315254
I5    I     I_    0.289139 0.297564 0.303892 -0.370677
N1    N     N_R   0.222190 0.444670 0.452360 -0.120173
N2    N     N_R   0.776970 0.554790 0.547140 -0.138464
O1    O     O_R   0.366740 0.627160 0.477250 -0.616985
O2    O     O_R   0.544830 0.662520 0.507680 -0.604603
O3    O     O_R   0.410940 0.482340 0.616930 -0.625463
O4    O     O_R   0.589030 0.517700 0.647360 -0.616039
O5    O     O_R   0.455170 0.337480 0.492320 -0.592868
O6    O     O_R   0.633260 0.372840 0.522750 -0.645822
O7    O     O_R   0.410970 0.482300 0.352640 -0.597449
O8    O     O_R   0.589060 0.517660 0.383070 -0.644357
Zn1   Zn    Zn3+2 0.381090 0.476390 0.479680 0.978474
Zn2   Zn    Zn3+2 0.618910 0.523610 0.520320 0.951406

loop_
_geom_bond_atom_site_label_1
_geom_bond_atom_site_label_2
_ccdc_geom_bond_type
C1    C21   S    
C27   C29   A    
C34   C42   A    
C26   H9    S    
C45   C46   A    
C34   H10   S    
C26   C27   A    
C37   C38   A    
C13   C18   A    
C1    O2    A    
C32   H15   S    
C39   H17   S    
C8    H13   S    
C30   C31   A    
C11   C14   A    
C23   H3    S    
C23   C40   A    
C29   C33   A    
C16   O5    A    
C12   C37   A    
C28   O7    A    
C4    O3    A    
C2    H4    S    
C6    C15   A    
C8    C9    A    
C28   C38   S    
C37   H1    S    
C9    C10   A    
C36   N1    A    
C29   N2    A    
C18   I4    S    
C35   N1    A    
C24   H18   S    
C35   H8    S    
C41   C43   A    
O2    Zn2   S    
O1    Zn1   S    
C36   I5    S    
C8    C21   A    
C19   H12   S    
C22   C31   A    
C25   H19   S    
C24   C25   A    
O8    Zn2   S    
O4    Zn2   S    
C39   C40   A    
O7    Zn1   S    
C27   C30   A    
O3    Zn1   S    
C45   H6    S    
C25   C26   A    
C10   H14   S    
C43   C44   A    
C12   C41   A    
C22   H16   S    
O6    Zn2   S    
C31   C32   A    
O5    Zn1   S    
C23   C34   A    
C17   C18   A    
C17   I1    S    
C13   C21   A    
C30   C35   A    
C12   C46   A    
C6    I2    S    
C5    C44   A    
C7    C19   A    
C46   H11   S    
C42   C43   A    
C3    C4    S    
C22   C36   A    
C44   C45   A    
C24   N2    A    
C15   C17   A    
C7    C16   S    
C14   C19   A    
C20   H7    S    
C3    C5    A    
C6    C20   A    
C1    O1    A    
C32   C33   A    
C2    C3    A    
C9    I3    S    
C11   C13   A    
C38   C39   A    
C2    C42   A    
C16   O6    A    
C28   O8    A    
C4    O4    A    
C10   C11   A    
C7    C20   A    
C33   H2    S    
C14   C15   A    
C5    H5    S    
C40   C41   A    
N2    Zn2   S    
N1    Zn1   S    
