data_mof_unit_57023.cif
_audit_creation_date              2012-12-11T14:17:51-0500
_audit_creation_method            fapswitch 2.2
_symmetry_space_group_name_H-M    P1
_symmetry_Int_Tables_number       1
_space_group_crystal_system       triclinic
_cell_length_a                    11.298968
_cell_length_b                    11.1753
_cell_length_c                    19.000513
_cell_angle_alpha                 90.035846
_cell_angle_beta                  90.282484
_cell_angle_gamma                 120.401997
_cell_volume                      2069.24674256

loop_
_atom_site_label
_atom_site_type_symbol
_atom_type_description
_atom_site_fract_x
_atom_site_fract_y
_atom_site_fract_z
_atom_type_partial_charge
C1    C     C_R   0.541008 0.428847 0.139465 0.528005
C2    C     C_R   0.021191 0.425541 0.533450 -0.152899
C3    C     C_R   0.377806 0.930419 0.528856 -0.151710
C4    C     C_R   0.509969 0.637438 0.519736 -0.157364
C5    C     C_R   0.746262 0.106274 0.582595 -0.070443
C6    C     C_R   0.856132 0.615498 0.604063 -0.069095
C7    C     C_R   0.232665 0.273213 0.562079 -0.083385
C8    C     C_R   0.842321 0.650377 0.460315 -0.112202
C9    C     C_R   0.752912 0.028834 0.444627 -0.095776
C10   C     C_R   0.365527 0.225639 0.455905 -0.073613
C11   C     C_R   0.863651 0.112659 0.556915 -0.121053
C12   C     C_R   0.570087 0.111279 0.139855 0.527551
C13   C     C_R   0.820867 0.710141 0.579629 -0.102943
C14   C     C_R   0.182554 0.139193 0.538420 -0.141138
C15   C     C_R   0.822371 0.733139 0.508027 -0.143470
C16   C     C_R   0.866704 0.072323 0.488110 -0.159421
C17   C     C_R   0.247943 0.115513 0.484576 -0.118363
C18   C     C_R   0.521592 0.451391 0.356048 0.547530
C19   C     C_R   0.545546 0.060939 0.353495 0.548051
C20   C     C_R   0.876868 0.455652 0.361283 0.551608
C21   C     C_R   0.417026 0.545876 0.639265 0.559059
C22   C     C_R   0.059083 0.541465 0.647634 0.540886
C23   C     C_R   0.887351 0.458033 0.139379 0.528232
C24   C     C_R   0.479085 0.934482 0.645506 0.545507
C25   C     C_R   0.473781 0.939215 0.932890 0.008211
C26   C     C_R   0.060315 0.534390 0.933246 0.009864
C27   C     C_R   0.465179 0.527470 0.933197 0.007065
C28   C     C_R   0.938509 0.472965 0.066856 0.007901
C29   C     C_R   0.534483 0.060884 0.067016 0.007724
C30   C     C_R   0.526286 0.464957 0.066712 0.007083
C31   C     C_R   0.374910 0.960508 0.968007 0.050463
C32   C     C_R   0.040001 0.413864 0.968989 0.051109
C33   C     C_R   0.587613 0.626366 0.968178 0.053216
C34   C     C_R   0.429018 0.542420 0.860537 0.529552
C35   C     C_R   0.961571 0.373847 0.032114 0.053110
C36   C     C_R   0.414451 0.039456 0.031386 0.049802
C37   C     C_R   0.626506 0.585961 0.031278 0.051955
C38   C     C_R   0.607713 0.005580 0.036506 0.058057
C39   C     C_R   0.994638 0.603048 0.036400 0.056198
C40   C     C_R   0.396821 0.392578 0.036283 0.055816
C41   C     C_R   0.004380 0.607580 0.963497 0.058262
C42   C     C_R   0.602550 0.995416 0.963726 0.057959
C43   C     C_R   0.391546 0.397139 0.963396 0.055419
C44   C     C_R   0.242937 0.916252 0.940846 -0.054969
C45   C     C_R   0.111053 0.570345 0.860586 0.527787
C46   C     C_R   0.084836 0.326287 0.942369 -0.055604
C47   C     C_R   0.677006 0.759435 0.941330 -0.053830
C48   C     C_R   0.918336 0.240891 0.059188 -0.052629
C49   C     C_R   0.327195 0.083939 0.058117 -0.054637
C50   C     C_R   0.759244 0.673629 0.058105 -0.054931
C51   C     C_R   0.158616 0.957806 0.969939 -0.111792
C52   C     C_R   0.044025 0.199175 0.971626 -0.111728
C53   C     C_R   0.804481 0.843597 0.970199 -0.110141
C54   C     C_R   0.961016 0.156575 0.030367 -0.109644
C55   C     C_R   0.200838 0.041735 0.028933 -0.111194
C56   C     C_R   0.458987 0.888497 0.860150 0.528138
C57   C     C_R   0.845609 0.800753 0.028895 -0.110974
C58   C     C_R   0.495068 0.985869 0.572781 -0.000017
C59   C     C_R   0.982599 0.494347 0.580928 -0.003224
C60   C     C_R   0.425182 0.524991 0.563016 -0.003653
C61   C     C_R   0.911806 0.472452 0.437042 -0.001498
C62   C     C_R   0.519803 0.999713 0.425106 -0.005213
C63   C     C_R   0.493554 0.479291 0.427935 0.004880
C64   C     C_R   0.625266 0.045509 0.541685 0.017446
C65   C     C_R   0.903367 0.551081 0.556886 0.028067
C66   C     C_R   0.352443 0.388783 0.532772 0.043623
C67   C     C_R   0.390920 0.941505 0.455535 -0.176172
C68   C     C_R   0.882528 0.555574 0.483459 0.014992
C69   C     C_R   0.633439 0.026351 0.469179 0.032190
C70   C     C_R   0.406044 0.364951 0.471907 0.027730
C71   C     C_R   0.979877 0.407316 0.463836 -0.125816
C72   C     C_R   0.536105 0.614329 0.450612 -0.145173
Cr1   Cr    Cr6+3 0.768550 0.541320 0.250660 1.020866
Cr2   Cr    Cr6+3 0.458680 0.227230 0.250660 1.031522
Cr3   Cr    Cr6+3 0.772770 0.231450 0.250660 1.032950
Cr4   Cr    Cr6+3 0.541320 0.768550 0.749340 1.021150
Cr5   Cr    Cr6+3 0.227230 0.458680 0.749340 1.014847
Cr6   Cr    Cr6+3 0.231450 0.772770 0.749340 1.028447
H1    H     H_    0.198702 0.848228 0.898117 0.181906
H2    H     H_    0.929568 0.059263 0.055453 0.121816
H3    H     H_    0.137124 0.074637 0.053815 0.121169
H4    H     H_    0.943627 0.864502 0.053428 0.121899
H5    H     H_    0.301256 0.903263 0.422036 0.134102
H6    H     H_    0.011107 0.350575 0.429801 0.157050
H7    H     H_    0.596252 0.701770 0.416380 0.122568
H8    H     H_    0.090082 0.391799 0.549207 0.119943
H9    H     H_    0.275682 0.875817 0.551015 0.153283
H10   H     H_    0.556898 0.742620 0.539625 0.137782
H11   H     H_    0.747475 0.138920 0.636419 0.150394
H12   H     H_    0.153727 0.352190 0.900261 0.176972
H13   H     H_    0.854105 0.599351 0.660324 0.159139
H14   H     H_    0.171340 0.281644 0.602451 0.142661
H15   H     H_    0.830680 0.669078 0.406223 0.169338
H16   H     H_    0.757549 0.988750 0.393603 0.147625
H17   H     H_    0.423391 0.201211 0.420835 0.164983
H18   H     H_    0.949937 0.145730 0.591676 0.102203
H19   H     H_    0.794918 0.767551 0.616181 0.140994
H20   H     H_    0.092942 0.053120 0.562103 0.113830
H21   H     H_    0.799454 0.809850 0.488965 0.116184
H22   H     H_    0.956281 0.073524 0.467803 0.121531
H23   H     H_    0.652950 0.804465 0.899103 0.179688
H24   H     H_    0.204688 0.011360 0.465048 0.115876
H25   H     H_    0.849786 0.195783 0.101448 0.179673
H26   H     H_    0.352062 0.152943 0.100491 0.179319
H27   H     H_    0.802187 0.648049 0.100516 0.177955
H28   H     H_    0.061492 0.924561 0.945000 0.121885
H29   H     H_    0.077689 0.135317 0.947100 0.120778
H30   H     H_    0.870070 0.940883 0.945151 0.121335
I1    I     I_    0.567400 0.826472 0.094462 -0.293773
I2    I     I_    0.174395 0.737877 0.095149 -0.283349
I3    I     I_    0.264711 0.438610 0.094788 -0.282434
I4    I     I_    0.827088 0.565239 0.904290 -0.301145
I5    I     I_    0.739486 0.174936 0.905719 -0.301204
I6    I     I_    0.437856 0.263462 0.905191 -0.285061
O1    O     O_R   0.910960 0.572410 0.171010 -0.491152
O2    O     O_R   0.528530 0.639750 0.824400 -0.501857
O3    O     O_R   0.111220 0.471470 0.824400 -0.510761
O4    O     O_R   0.360250 0.888780 0.824400 -0.506110
O5    O     O_R   0.909330 0.572400 0.331540 -0.515776
O6    O     O_R   0.427600 0.336930 0.331540 -0.510703
O7    O     O_R   0.663070 0.090670 0.331540 -0.525798
O8    O     O_R   0.572400 0.909330 0.668460 -0.530315
O9    O     O_R   0.336930 0.427600 0.668460 -0.513278
O10   O     O_R   0.090670 0.663070 0.668460 -0.519094
O11   O     O_R   0.638240 0.528520 0.324410 -0.523785
O12   O     O_R   0.427590 0.338550 0.171010 -0.490686
O13   O     O_R   0.471480 0.109720 0.324410 -0.511100
O14   O     O_R   0.890280 0.361760 0.324410 -0.480778
O15   O     O_R   0.528520 0.638240 0.675590 -0.484783
O16   O     O_R   0.109720 0.471480 0.675590 -0.524995
O17   O     O_R   0.361760 0.890280 0.675590 -0.487773
O18   O     O_3   0.666667 0.333333 0.250630 -0.338153
O19   O     O_3   0.333333 0.666667 0.749370 -0.336293
O20   O     O_R   0.661450 0.089040 0.171010 -0.496773
O21   O     O_R   0.572410 0.910960 0.828990 -0.498329
O22   O     O_R   0.338550 0.427590 0.828990 -0.489376
O23   O     O_R   0.089040 0.661450 0.828990 -0.500749
O24   O     O_R   0.639750 0.528530 0.175600 -0.506051
O25   O     O_R   0.471470 0.111220 0.175600 -0.506018
O26   O     O_R   0.888780 0.360250 0.175600 -0.500546

loop_
_geom_bond_atom_site_label_1
_geom_bond_atom_site_label_2
_ccdc_geom_bond_type
C11   H18   S    
C25   C31   A    
C26   C32   A    
C47   H23   S    
Cr2   O18   S    
C12   C29   S    
C53   H30   S    
C25   C56   S    
C17   H24   S    
C49   H26   S    
C72   H7    S    
Cr3   O20   S    
C39   C41   A    
Cr2   O12   S    
C27   C33   A    
C48   C54   A    
C29   C36   A    
C62   C67   A    
Cr1   O5    S    
Cr6   O4    S    
C9    C16   A    
C9    C69   A    
C20   O14   A    
Cr5   O3    S    
Cr3   O26   S    
C31   C36   A    
C43   I6    S    
C18   C63   S    
Cr1   O24   S    
C19   C62   S    
C34   O2    A    
C6    H13   S    
C46   C52   A    
Cr3   O14   S    
C11   C16   A    
C20   C61   S    
C26   C45   S    
C39   I2    S    
C52   H29   S    
C41   I4    S    
C29   C38   A    
C50   H27   S    
Cr5   O22   S    
C55   H3    S    
Cr6   O10   S    
C47   C53   A    
C61   C71   A    
Cr1   O18   S    
C60   C66   A    
C12   O20   A    
C22   O16   A    
C14   C17   A    
C4    C60   A    
Cr5   O19   S    
C35   C48   A    
C24   O8    A    
C6    C65   A    
Cr4   O21   S    
C52   C54   A    
C14   H20   S    
C40   I3    S    
C54   H2    S    
C7    C14   A    
C27   C34   S    
C58   C64   A    
C31   C44   A    
C3    H9    S    
C32   C35   A    
C23   O26   A    
C1    O12   A    
C28   C35   A    
C21   C60   S    
C22   C59   S    
C53   C57   A    
C2    C59   A    
C16   H22   S    
C28   C39   A    
C49   C55   A    
C48   H25   S    
C33   C37   A    
C30   C37   A    
C21   O9    A    
Cr6   O17   S    
C3    C58   A    
Cr5   O9    S    
Cr4   O15   S    
C42   I5    S    
Cr2   O13   S    
C63   C70   A    
C34   O22   A    
C65   C68   A    
C40   C43   A    
C45   O23   A    
C12   O25   A    
C30   C40   A    
C67   H5    S    
C38   I1    S    
C21   O15   A    
C4    H10   S    
C10   C70   A    
C44   C51   A    
C8    C68   A    
C8    C15   A    
C13   C15   A    
C5    C11   A    
C33   C47   A    
C23   C28   S    
C2    C71   A    
Cr6   O23   S    
C18   O6    A    
C4    C72   A    
C56   O21   A    
Cr2   O6    S    
Cr3   O18   S    
C71   H6    S    
C45   O3    A    
C61   C68   A    
C19   O7    A    
Cr3   O7    S    
C50   C57   A    
C32   C46   A    
C44   H1    S    
C3    C67   A    
C8    H15   S    
C15   H21   S    
C25   C42   A    
Cr4   O19   S    
C22   O10   A    
C46   H12   S    
C64   C69   A    
Cr2   O25   S    
Cr1   O1    S    
C5    C64   A    
Cr4   O8    S    
C18   O11   A    
C59   C65   A    
C7    C66   A    
C56   O4    A    
C37   C50   A    
C24   O17   A    
C66   C70   A    
C10   H17   S    
C51   H28   S    
Cr1   O11   S    
C7    H14   S    
C19   O13   A    
C1    C30   S    
Cr4   O2    S    
C2    H8    S    
C51   C55   A    
Cr5   O16   S    
C13   H19   S    
Cr6   O19   S    
C1    O24   A    
C23   O1    A    
C38   C42   A    
C27   C43   A    
C63   C72   A    
C62   C69   A    
C24   C58   S    
C57   H4    S    
C10   C17   A    
C9    H16   S    
C20   O5    A    
C5    H11   S    
C36   C49   A    
C26   C41   A    
C6    C13   A    
