data_mof_unit_58686.cif
_audit_creation_date              2012-12-10T17:11:04-0500
_audit_creation_method            fapswitch 2.2
_symmetry_space_group_name_H-M    P1
_symmetry_Int_Tables_number       1
_space_group_crystal_system       triclinic
_cell_length_a                    11.666398
_cell_length_b                    13.007591
_cell_length_c                    13.446863
_cell_angle_alpha                 92.006799
_cell_angle_beta                  76.454423
_cell_angle_gamma                 100.066171
_cell_volume                      1953.24844449

loop_
_atom_site_label
_atom_site_type_symbol
_atom_type_description
_atom_site_fract_x
_atom_site_fract_y
_atom_site_fract_z
_atom_type_partial_charge
C1    C     C_R   0.521097 0.700855 0.501375 0.823584
C2    C     C_R   0.447210 0.501997 0.976128 0.083969
C3    C     C_R   0.476880 0.533418 0.871912 0.090107
C4    C     C_R   0.535597 0.526947 0.034529 0.078881
C5    C     C_R   0.647645 0.589386 0.990548 0.161384
C6    C     C_R   0.669349 0.628945 0.891757 -0.229266
C7    C     C_R   0.584458 0.603003 0.834040 -0.192781
C8    C     C_R   0.516280 0.491864 0.135518 -0.228899
C9    C     C_R   0.712454 0.581341 0.148367 -0.184127
C10   C     C_R   0.397274 0.495412 0.808513 -0.103377
C11   C     C_R   0.465250 0.185617 0.500629 -0.154584
C12   C     C_R   0.436565 0.499458 0.696128 0.788267
C13   C     C_R   0.533596 0.814255 0.501253 -0.136803
C14   C     C_R   0.658145 0.984751 0.488606 0.274329
C15   C     C_R   0.646061 0.876727 0.491568 -0.202904
C16   C     C_R   0.432042 0.859883 0.509430 -0.171123
C17   C     C_R   0.440877 0.968195 0.507257 -0.011712
C18   C     C_R   0.555854 0.031292 0.496202 0.052946
C19   C     C_R   0.566101 0.139400 0.493054 -0.205400
C20   C     C_R   0.352168 0.123771 0.511436 -0.242732
C21   C     C_R   0.338239 0.015280 0.515418 0.447593
C22   C     C_R   0.949514 0.604501 0.587210 -0.278955
C23   C     C_R   0.478688 0.299112 0.499094 0.845951
C24   C     C_R   0.829929 0.593760 0.579546 0.099303
C25   C     C_R   0.855098 0.453618 0.463572 0.048958
C26   C     C_R   0.976245 0.461825 0.468487 0.056410
C27   C     C_R   0.023819 0.538187 0.531433 0.061162
C28   C     C_R   0.144798 0.546164 0.536659 0.060191
C29   C     C_R   0.170650 0.407115 0.419365 0.102213
C30   C     C_R   0.050872 0.396058 0.412060 -0.289043
C31   C     C_R   0.563865 0.505787 0.304159 0.803829
C32   C     C_R   0.735794 0.614173 0.047032 -0.177705
C33   C     C_R   0.601207 0.522525 0.193519 -0.051410
C34   C     C_R   0.282367 0.441724 0.852533 -0.174912
C35   C     C_R   0.248494 0.420294 0.956632 -0.133088
C36   C     C_R   0.330038 0.447802 0.017709 -0.169668
Cu1   Cu    Cu3+1 0.386470 0.492430 0.492410 0.960709
Cu2   Cu    Cu3+1 0.613530 0.507570 0.507590 0.954645
H1    H     H_    0.778859 0.606068 0.192625 0.163132
H2    H     H_    0.274346 0.160464 0.517913 0.217069
H3    H     H_    0.725180 0.841683 0.485034 0.189993
H4    H     H_    0.346326 0.809694 0.517310 0.224269
H5    H     H_    0.182152 0.604095 0.585424 0.136571
H6    H     H_    0.227497 0.355995 0.375791 0.131370
H7    H     H_    0.983602 0.664503 0.635902 0.175229
H8    H     H_    0.017008 0.336539 0.362820 0.163986
H9    H     H_    0.773990 0.646163 0.621654 0.119273
H10   H     H_    0.752270 0.680583 0.858930 0.150445
H11   H     H_    0.817658 0.395527 0.415003 0.127848
H12   H     H_    0.821375 0.661807 0.013776 0.146750
H13   H     H_    0.434603 0.442048 0.172352 0.140739
H14   H     H_    0.219508 0.413263 0.805838 0.164108
H15   H     H_    0.297353 0.427163 0.097414 0.129462
H16   H     H_    0.159426 0.378924 0.989790 0.150463
H17   H     H_    0.603079 0.640403 0.760227 0.155184
H18   H     H_    0.652708 0.188649 0.484431 0.204716
N1    N     N_R   0.215880 0.481050 0.481000 -0.190830
N2    N     N_R   0.784100 0.518950 0.519000 -0.185967
O1    O     O_R   0.419710 0.645650 0.494620 -0.583287
O2    O     O_R   0.611450 0.658430 0.507430 -0.596556
O3    O     O_R   0.357340 0.490460 0.641450 -0.583715
O4    O     O_R   0.549080 0.503250 0.654260 -0.579854
O5    O     O_R   0.388550 0.341570 0.492570 -0.590210
O6    O     O_R   0.580290 0.354350 0.505380 -0.584339
O7    O     O_R   0.450920 0.496750 0.345740 -0.583073
O8    O     O_R   0.642660 0.509540 0.358550 -0.586514
Br1   Br    Br    0.817158 0.063526 0.473049 -0.532758
S1    S     S_3+6 0.191341 0.942355 0.531842 -0.018729
O9    O     O_2   0.185137 0.872430 0.441173 -0.291182
O10   O     O_2   0.162286 0.876613 0.627154 -0.334625
O11   O     O_3   0.090175 0.022146 0.542585 -0.504521
H19   H     H_    0.011445 0.975560 0.560691 0.399611

loop_
_geom_bond_atom_site_label_1
_geom_bond_atom_site_label_2
_ccdc_geom_bond_type
C19   H18   S    
C31   O8    A    
Cu1   O3    S    
C14   Br1   S    
C31   C33   S    
Cu1   N1    S    
C29   C30   A    
C12   O4    A    
C14   C18   A    
C28   H5    S    
C2    C4    A    
C35   C36   A    
C9    C32   A    
C7    H17   S    
C4    C8    A    
C5    C32   A    
C32   H12   S    
C23   O5    A    
C17   C18   A    
O11   H19   S    
C10   C34   A    
C3    C10   A    
S1    O9    D    
C28   N1    A    
C35   H16   S    
C9    C33   A    
C12   O3    A    
C8    H13   S    
C11   C19   A    
C26   C27   A    
Cu1   O1    S    
C6    H10   S    
S1    O11   S    
Cu2   O2    S    
C4    C5    A    
C10   C12   S    
S1    O10   D    
C23   O6    A    
Cu1   O5    S    
Cu1   Cu2   S    
C29   N1    A    
C26   C30   A    
C6    C7    A    
Cu2   O6    S    
C8    C33   A    
C13   C15   A    
C21   S1    S    
C5    C6    A    
C20   H2    S    
C22   C24   A    
C11   C20   A    
C1    O2    A    
C1    C13   S    
C25   N2    A    
C16   H4    S    
C22   C27   A    
C22   H7    S    
C20   C21   A    
C15   H3    S    
C11   C23   S    
C24   N2    A    
C34   C35   A    
C13   C16   A    
C2    C36   A    
C27   C28   A    
C31   O7    A    
C14   C15   A    
C18   C19   A    
C2    C3    A    
C36   H15   S    
C3    C7    A    
C25   C26   A    
Cu2   N2    S    
C24   H9    S    
C34   H14   S    
C29   H6    S    
C30   H8    S    
C9    H1    S    
C17   C21   A    
Cu2   O8    S    
C16   C17   A    
C1    O1    A    
Cu2   O4    S    
C25   H11   S    
Cu1   O7    S    
