data_mof_unit_55415.cif
_audit_creation_date              2012-12-11T15:17:34-0500
_audit_creation_method            fapswitch 2.2
_symmetry_space_group_name_H-M    P1
_symmetry_Int_Tables_number       1
_space_group_crystal_system       monoclinic
_cell_length_a                    6.92732
_cell_length_b                    19.969278
_cell_length_c                    22.50082
_cell_angle_alpha                 90.0
_cell_angle_beta                  90.353222
_cell_angle_gamma                 90.0
_cell_volume                      3112.55980957

loop_
_atom_site_label
_atom_site_type_symbol
_atom_type_description
_atom_site_fract_x
_atom_site_fract_y
_atom_site_fract_z
_atom_type_partial_charge
O1    O     O_R   0.620180 0.810610 0.187990 -0.541171
O2    O     O_R   0.379820 0.189390 0.812010 -0.541172
O3    O     O_R   0.379820 0.189390 0.687990 -0.545169
O4    O     O_R   0.620180 0.810610 0.312010 -0.545169
O5    O     O_R   0.120180 0.689390 0.312010 -0.545169
O6    O     O_R   0.879820 0.310610 0.687990 -0.545169
O7    O     O_R   0.879820 0.310610 0.812010 -0.541171
O8    O     O_R   0.120180 0.689390 0.187990 -0.541172
O9    O     O_R   0.290420 0.818570 0.311590 -0.532187
O10   O     O_R   0.709580 0.181430 0.688410 -0.532187
O11   O     O_R   0.709580 0.181430 0.811590 -0.539431
O12   O     O_R   0.290420 0.818570 0.188410 -0.539431
O13   O     O_R   0.790420 0.681430 0.188410 -0.539431
O14   O     O_R   0.209580 0.318570 0.811590 -0.539431
O15   O     O_R   0.209580 0.318570 0.688410 -0.532187
O16   O     O_R   0.790420 0.681430 0.311590 -0.532186
C1    C     C_R   0.459323 0.833276 0.333042 0.715566
C2    C     C_R   0.540677 0.166724 0.666958 0.715566
C3    C     C_R   0.541902 0.167699 0.833749 0.716929
C4    C     C_R   0.458098 0.832301 0.166251 0.716928
C5    C     C_R   0.958098 0.667699 0.166251 0.716929
C6    C     C_R   0.041902 0.332301 0.833749 0.716928
C7    C     C_R   0.040677 0.333276 0.666958 0.715567
C8    C     C_R   0.959323 0.666724 0.333042 0.715566
H1    H     H_    0.789262 0.430293 0.652981 0.137597
H2    H     H_    0.210738 0.569707 0.347020 0.137597
H3    H     H_    0.085292 0.544889 0.171623 0.129257
H4    H     H_    0.914711 0.455112 0.828377 0.129257
H5    H     H_    0.414709 0.044888 0.828376 0.129257
H6    H     H_    0.585289 0.955112 0.171623 0.129257
H7    H     H_    0.710738 0.930293 0.347020 0.137597
H8    H     H_    0.289262 0.069707 0.652980 0.137597
O17   O     O_3   0.453640 0.707610 0.250000 -0.367441
O18   O     O_3   0.546360 0.292390 0.750000 -0.367441
O19   O     O_3   0.953640 0.792390 0.250000 -0.367441
O20   O     O_3   0.046360 0.207610 0.750000 -0.367441
V1    V     V_3+5 0.178800 0.757860 0.250000 1.438077
V2    V     V_3+5 0.821200 0.242140 0.750000 1.438077
V3    V     V_3+5 0.678800 0.742140 0.250000 1.438078
V4    V     V_3+5 0.321200 0.257860 0.750000 1.438077
C9    C     C_R   0.158936 0.375469 0.567342 0.110268
C10   C     C_R   0.841065 0.624532 0.432658 0.110269
C11   C     C_R   0.899879 0.637029 0.057943 0.103473
C12   C     C_R   0.100120 0.362970 0.942057 0.103473
C13   C     C_R   0.600120 0.137029 0.942057 0.103473
C14   C     C_R   0.399880 0.862970 0.057943 0.103473
C15   C     C_R   0.341064 0.875469 0.432658 0.110268
C16   C     C_R   0.658935 0.124531 0.567342 0.110268
C17   C     C_R   0.031090 0.380261 0.615934 -0.070386
C18   C     C_R   0.968910 0.619739 0.384066 -0.070385
C19   C     C_R   0.965731 0.620051 0.115746 -0.070302
C20   C     C_R   0.034269 0.379948 0.884254 -0.070300
C21   C     C_R   0.534269 0.120052 0.884254 -0.070301
C22   C     C_R   0.465731 0.879948 0.115746 -0.070300
C23   C     C_R   0.468910 0.880261 0.384066 -0.070385
C24   C     C_R   0.531089 0.119739 0.615934 -0.070385
C25   C     C_R   0.887864 0.429137 0.615824 -0.208457
C26   C     C_R   0.112136 0.570863 0.384176 -0.208458
C27   C     C_R   0.039352 0.556357 0.126645 -0.225250
C28   C     C_R   0.960650 0.443642 0.873355 -0.225251
C29   C     C_R   0.460649 0.056357 0.873355 -0.225250
C30   C     C_R   0.539350 0.943642 0.126645 -0.225250
C31   C     C_R   0.612136 0.929137 0.384176 -0.208458
C32   C     C_R   0.387864 0.070863 0.615824 -0.208457
C33   C     C_R   0.868175 0.475027 0.568845 0.072711
C34   C     C_R   0.131826 0.524974 0.431156 0.072710
C35   C     C_R   0.043202 0.506981 0.082007 0.053477
C36   C     C_R   0.956799 0.493019 0.917994 0.053477
C37   C     C_R   0.456798 0.006981 0.917993 0.053477
C38   C     C_R   0.543201 0.993019 0.082006 0.053477
C39   C     C_R   0.631825 0.975027 0.431155 0.072710
C40   C     C_R   0.368175 0.024973 0.568844 0.072711
C41   C     C_R   0.007340 0.475669 0.523017 0.039903
C42   C     C_R   0.992660 0.524331 0.476983 0.039903
C43   C     C_R   0.993382 0.524533 0.022905 0.017099
C44   C     C_R   0.006619 0.475466 0.977096 0.017098
C45   C     C_R   0.506618 0.024533 0.977096 0.017098
C46   C     C_R   0.493381 0.975466 0.022904 0.017098
C47   C     C_R   0.492659 0.975669 0.476983 0.039903
C48   C     C_R   0.507340 0.024331 0.523017 0.039903
C49   C     C_R   0.160150 0.427426 0.523195 0.056449
C50   C     C_R   0.839851 0.572575 0.476805 0.056449
C51   C     C_R   0.932265 0.591264 0.009662 0.049472
C52   C     C_R   0.067735 0.408735 0.990338 0.049472
C53   C     C_R   0.567735 0.091264 0.990338 0.049472
C54   C     C_R   0.432265 0.908736 0.009662 0.049472
C55   C     C_R   0.339850 0.927426 0.476805 0.056449
C56   C     C_R   0.660149 0.072574 0.523195 0.056448
C57   C     C_R   0.709564 0.519401 0.566741 -0.094287
C58   C     C_R   0.290438 0.480601 0.433260 -0.094286
C59   C     C_R   0.091303 0.440068 0.095973 -0.098632
C60   C     C_R   0.908700 0.559931 0.904027 -0.098632
C61   C     C_R   0.408698 0.940068 0.904027 -0.098632
C62   C     C_R   0.591300 0.059931 0.095973 -0.098632
C63   C     C_R   0.790437 0.019400 0.433260 -0.094287
C64   C     C_R   0.209563 0.980600 0.566740 -0.094287
C65   C     C_R   0.692216 0.566594 0.520467 -0.099544
C66   C     C_R   0.307786 0.433407 0.479533 -0.099544
C67   C     C_R   0.093323 0.390657 0.051235 -0.100651
C68   C     C_R   0.906680 0.609342 0.948766 -0.100652
C69   C     C_R   0.406678 0.890657 0.948765 -0.100651
C70   C     C_R   0.593321 0.109342 0.051234 -0.100652
C71   C     C_R   0.807785 0.066594 0.479533 -0.099543
C72   C     C_R   0.192214 0.933407 0.520467 -0.099544
C73   C     C_1   0.557411 0.514820 0.610953 0.325321
N1    N     N_1   0.436145 0.511105 0.645959 -0.324785
C74   C     C_1   0.442592 0.485182 0.389049 0.325321
N2    N     N_1   0.563861 0.488899 0.354043 -0.324787
C75   C     C_1   0.132415 0.420835 0.157153 0.338285
N3    N     N_1   0.165163 0.405517 0.205793 -0.297554
C76   C     C_1   0.867591 0.579165 0.842847 0.338285
N4    N     N_1   0.834844 0.594483 0.794207 -0.297553
C77   C     C_1   0.367587 0.920835 0.842847 0.338285
N5    N     N_1   0.334839 0.905517 0.794207 -0.297553
C78   C     C_1   0.632410 0.079165 0.157153 0.338286
N6    N     N_1   0.665157 0.094483 0.205793 -0.297554
C79   C     C_1   0.942589 0.014819 0.389047 0.325322
N7    N     N_1   0.063856 0.011104 0.354042 -0.324787
C80   C     C_1   0.057410 0.985181 0.610952 0.325321
N8    N     N_1   0.936142 0.988897 0.645958 -0.324786
C81   C     C_1   0.512405 0.603910 0.516456 0.322398
N9    N     N_1   0.368554 0.633325 0.513847 -0.345132
C82   C     C_1   0.487598 0.396091 0.483545 0.322398
N10   N     N_1   0.631449 0.366677 0.486155 -0.345132
C83   C     C_1   0.099245 0.321112 0.070238 0.365531
N11   N     N_1   0.103315 0.265903 0.085922 -0.315428
C84   C     C_1   0.900760 0.678888 0.929763 0.365531
N12   N     N_1   0.896693 0.734097 0.914079 -0.315428
C85   C     C_1   0.400756 0.821112 0.929763 0.365531
N13   N     N_1   0.396687 0.765902 0.914078 -0.315428
C86   C     C_1   0.599241 0.178888 0.070237 0.365531
N14   N     N_1   0.603309 0.234097 0.085921 -0.315428
C87   C     C_1   0.987596 0.103909 0.483544 0.322398
N15   N     N_1   0.131448 0.133324 0.486154 -0.345133
C88   C     C_1   0.012403 0.896091 0.516455 0.322398
N16   N     N_1   0.868552 0.866676 0.513846 -0.345132
C89   C     C_3   0.270862 0.310667 0.559526 -0.699326
H9    H     H_    0.200142 0.267779 0.581922 0.188046
H10   H     H_    0.274712 0.295737 0.512042 0.225617
H11   H     H_    0.418711 0.316027 0.578181 0.206639
C90   C     C_3   0.729137 0.689334 0.440474 -0.699326
H12   H     H_    0.799853 0.732221 0.418077 0.188046
H13   H     H_    0.581287 0.683972 0.421820 0.206639
H14   H     H_    0.725291 0.704264 0.487958 0.225617
C91   C     C_3   0.782945 0.700690 0.049629 -0.777500
H15   H     H_    0.705735 0.716135 0.090171 0.209987
H16   H     H_    0.877967 0.742541 0.036132 0.213181
H17   H     H_    0.666097 0.692709 0.016465 0.217349
C92   C     C_3   0.217050 0.299308 0.950371 -0.777501
H18   H     H_    0.294250 0.283860 0.909828 0.209986
H19   H     H_    0.333904 0.307290 0.983533 0.217350
H20   H     H_    0.122027 0.257459 0.963872 0.213182
C93   C     C_3   0.717053 0.200690 0.950371 -0.777500
H21   H     H_    0.794261 0.216136 0.909828 0.209987
H22   H     H_    0.622032 0.242541 0.963869 0.213181
H23   H     H_    0.833903 0.192709 0.983534 0.217349
C94   C     C_3   0.282949 0.799309 0.049629 -0.777501
H24   H     H_    0.205745 0.783861 0.090172 0.209986
H25   H     H_    0.166096 0.807290 0.016466 0.217350
H26   H     H_    0.377971 0.757459 0.036129 0.213182
C95   C     C_3   0.229136 0.810667 0.440474 -0.699326
H27   H     H_    0.299853 0.767779 0.418077 0.188045
H28   H     H_    0.225289 0.795736 0.487958 0.225617
H29   H     H_    0.081286 0.816028 0.421820 0.206639
C96   C     C_3   0.770864 0.189333 0.559526 -0.699325
H30   H     H_    0.700149 0.232221 0.581924 0.188046
H31   H     H_    0.918715 0.183972 0.578180 0.206639
H32   H     H_    0.774709 0.204264 0.512042 0.225617

loop_
_geom_bond_atom_site_label_1
_geom_bond_atom_site_label_2
_ccdc_geom_bond_type
C94   H24   S    
C72   C88   S    
O5    V1    S    
C38   C46   A    
C68   C84   S    
C11   C51   A    
C41   C42   A    
C64   C80   S    
C37   C45   A    
C76   N4    T    
C10   C50   A    
C43   C51   A    
C44   C52   A    
C47   C55   A    
C95   H27   S    
C33   C41   A    
C88   N16   T    
C67   C83   S    
C96   H30   S    
C45   C46   A    
C63   C79   S    
C33   C57   A    
C89   H10   S    
O11   C3    A    
O17   V3    S    
O18   V4    S    
C6    C20   S    
C38   C62   A    
O10   C2    A    
C58   C74   S    
C77   N5    T    
C37   C61   A    
C92   H19   S    
C7    C17   S    
C92   H18   S    
C39   C63   A    
C49   C66   A    
C78   N6    T    
C34   C42   A    
C17   C25   A    
C30   C38   A    
O3    C2    A    
O14   C6    A    
C9    C17   A    
O12   V1    S    
C65   C81   S    
C20   C28   A    
C91   H16   S    
C21   C29   A    
C26   C34   A    
C16   C96   S    
C23   C31   A    
C74   N2    T    
C16   C56   A    
C56   C71   A    
C93   H22   S    
C1    C23   S    
C9    C89   S    
C2    C24   S    
C27   C35   A    
C3    C21   S    
O15   C7    A    
C13   C21   A    
C94   H25   S    
C48   C56   A    
O12   C4    A    
C96   H31   S    
C90   H12   S    
H1    C25   S    
C42   C50   A    
C41   C49   A    
C95   H28   S    
C63   C71   A    
C91   H15   S    
H4    C28   S    
C8    C18   S    
C66   C82   S    
C89   H11   S    
H5    C29   S    
C35   C59   A    
C18   C26   A    
H7    C31   S    
C82   N10   T    
C70   C86   S    
H8    C32   S    
C4    C22   S    
C92   H20   S    
C61   C69   A    
C22   C30   A    
C14   C94   S    
O14   V4    S    
O17   V1    S    
C39   C47   A    
C55   C72   A    
C57   C65   A    
C40   C64   A    
O11   V2    S    
O19   V3    S    
C43   C44   A    
C11   C91   S    
O4    V3    S    
O20   V4    S    
C62   C78   S    
C9    C49   A    
C14   C22   A    
C10   C90   S    
O9    V1    S    
O8    C5    A    
O13   C5    A    
C61   C77   S    
C36   C44   A    
C93   H23   S    
H2    C26   S    
C62   C70   A    
C81   N9    T    
C10   C18   A    
O4    C1    A    
O9    C1    A    
C34   C58   A    
C31   C39   A    
O3    V4    S    
C96   H32   S    
C51   C68   A    
H6    C30   S    
C87   N15   T    
C50   C65   A    
C90   H14   S    
C35   C43   A    
O8    V1    S    
C86   N14   T    
C5    C19   S    
C95   H29   S    
C91   H17   S    
C60   C68   A    
C15   C23   A    
C85   N13   T    
C89   H9    S    
C29   C37   A    
C16   C24   A    
C64   C72   A    
O1    C4    A    
O19   V1    S    
O2    C3    A    
O18   V2    S    
C52   C67   A    
C13   C93   S    
C25   C33   A    
C12   C52   A    
C80   N8    T    
C60   C76   S    
C94   H26   S    
O7    C6    A    
C73   N1    T    
C12   C92   S    
C13   C53   A    
O10   V2    S    
C59   C75   S    
C90   H13   S    
C71   C87   S    
C40   C48   A    
H3    C27   S    
C75   N3    T    
C12   C20   A    
C24   C32   A    
C83   N11   T    
O5    C8    A    
C11   C19   A    
O6    C7    A    
O20   V2    S    
C36   C60   A    
O7    V2    S    
C32   C40   A    
O15   V4    S    
O13   V3    S    
O1    V3    S    
O16   V3    S    
C45   C53   A    
C47   C48   A    
C15   C95   S    
O2    V4    S    
C19   C27   A    
C28   C36   A    
O16   C8    A    
C46   C54   A    
C57   C73   S    
C59   C67   A    
C93   H21   S    
C79   N7    T    
C54   C69   A    
O6    V2    S    
C58   C66   A    
C53   C70   A    
C84   N12   T    
C15   C55   A    
C14   C54   A    
C69   C85   S    
