data_mof_unit_7614.cif
_audit_creation_date              2012-12-11T14:36:21-0500
_audit_creation_method            fapswitch 2.2
_symmetry_space_group_name_H-M    P1
_symmetry_Int_Tables_number       1
_space_group_crystal_system       triclinic
_cell_length_a                    13.492845
_cell_length_b                    13.452529
_cell_length_c                    27.445814
_cell_angle_alpha                 90.19756
_cell_angle_beta                  90.109287
_cell_angle_gamma                 59.928887
_cell_volume                      4311.21787302

loop_
_atom_site_label
_atom_site_type_symbol
_atom_type_description
_atom_site_fract_x
_atom_site_fract_y
_atom_site_fract_z
_atom_type_partial_charge
C1    C     C_R   0.620773 0.101523 0.570009 0.536792
C2    C     C_1   0.608648 0.776983 0.666986 -0.060766
C3    C     C_3   0.118991 0.542673 0.200998 -0.448195
C4    C     C_1   0.167481 0.351950 0.384005 0.214441
C5    C     C_1   0.919301 0.050308 0.151646 0.222496
C6    C     C_3   0.100860 0.118657 0.738678 -0.106552
C7    C     C_R   0.570439 0.831083 0.574215 0.559754
C8    C     C_3   0.195744 0.055133 0.777571 -0.111661
C9    C     C_1   0.096107 0.201556 0.901916 -0.020487
C10   C     C_1   0.229831 0.137176 0.617593 -0.015290
C11   C     C_3   0.051389 0.230882 0.769142 -0.113052
C12   C     C_3   0.146409 0.167212 0.807290 0.061408
C13   C     C_3   0.129969 0.265542 0.741886 -0.099885
C14   C     C_3   0.179097 0.153526 0.712217 0.040403
C15   C     C_1   0.592649 0.800008 0.624401 -0.013994
C16   C     C_3   0.224077 0.201296 0.780410 0.050157
C17   C     C_3   0.274664 0.089573 0.750127 -0.089491
C18   C     C_1   0.123298 0.181519 0.859716 -0.061848
C19   C     C_R   0.277658 0.121674 0.569690 0.539868
C20   C     C_1   0.201917 0.145863 0.659768 -0.058320
C21   C     C_3   0.641588 0.277541 0.738012 -0.100652
C22   C     C_3   0.562388 0.265850 0.775582 -0.101766
C23   C     C_1   0.692221 0.209728 0.902359 -0.018542
C24   C     C_1   0.638359 0.134345 0.617577 -0.014935
C25   C     C_3   0.746962 0.200686 0.770297 -0.099343
C26   C     C_3   0.669702 0.613757 0.770783 -0.099225
C27   C     C_3   0.667495 0.188754 0.807025 0.052357
C28   C     C_3   0.763071 0.092142 0.743398 -0.097116
C29   C     C_3   0.657910 0.169174 0.711948 0.052766
C30   C     C_3   0.683936 0.080461 0.780884 -0.103630
C31   C     C_R   0.622871 0.101960 0.432114 0.548091
C32   C     C_3   0.578674 0.157199 0.748671 -0.106191
C33   C     C_1   0.676992 0.199386 0.859787 -0.064003
C34   C     C_1   0.649177 0.153737 0.659552 -0.057828
C35   C     C_R   0.727403 0.722055 0.357612 -0.126895
C36   C     C_R   0.736025 0.708608 0.307095 0.013610
C37   C     C_3   0.656327 0.697823 0.811752 0.053365
C38   C     C_R   0.747730 0.686707 0.205213 0.015493
C39   C     C_R   0.827713 0.704535 0.230543 -0.131457
C40   C     C_R   0.822140 0.715281 0.281255 -0.125923
C41   C     C_R   0.760425 0.660928 0.155358 -0.133338
C42   C     C_R   0.679617 0.641620 0.131476 -0.002741
C43   C     C_R   0.601874 0.776281 0.430306 0.558773
C44   C     C_R   0.559818 0.698696 0.357264 -0.128331
C45   C     C_R   0.564556 0.689674 0.306964 0.015809
C46   C     C_R   0.652576 0.695170 0.281656 0.063028
C47   C     C_R   0.478731 0.681886 0.281493 -0.125931
C48   C     C_3   0.556811 0.708192 0.747917 -0.099290
C49   C     C_R   0.480291 0.679033 0.230927 -0.130274
C50   C     C_R   0.570086 0.679482 0.205639 0.012748
C51   C     C_R   0.656485 0.687869 0.230818 0.064354
C52   C     C_R   0.578978 0.663399 0.155781 -0.128741
C53   C     C_R   0.636021 0.722658 0.382377 -0.004449
C54   C     C_R   0.229351 0.052230 0.354824 -0.146186
C55   C     C_R   0.278108 0.121292 0.430453 0.546991
C56   C     C_R   0.213933 0.060219 0.304257 0.018192
C57   C     C_R   0.181453 0.079153 0.202759 0.016713
C58   C     C_R   0.196999 0.980850 0.227105 -0.132677
C59   C     C_3   0.626040 0.749816 0.718791 0.052735
C60   C     C_R   0.214215 0.970953 0.277517 -0.127182
C61   C     C_R   0.148844 0.097708 0.153684 -0.139217
C62   C     C_R   0.123508 0.201410 0.131510 -0.014521
C63   C     C_R   0.198183 0.247166 0.357070 -0.018696
C64   C     C_R   0.199653 0.248897 0.306012 -0.016031
C65   C     C_R   0.202852 0.157259 0.279697 0.045540
C66   C     C_R   0.204019 0.337361 0.280692 -0.113020
C67   C     C_3   0.738687 0.655858 0.740964 -0.096687
C68   C     C_R   0.203880 0.339625 0.229857 0.020394
C69   C     C_R   0.185882 0.259041 0.204015 0.021273
C70   C     C_3   0.543559 0.791846 0.789605 -0.105677
C71   C     C_R   0.191246 0.164559 0.228784 0.051218
C72   C     C_R   0.153391 0.275311 0.155096 -0.129899
C73   C     C_R   0.225858 0.143506 0.381419 -0.019108
C74   C     C_R   0.566702 0.249311 0.366347 -0.134679
C75   C     C_R   0.589374 0.279248 0.320521 0.015716
C76   C     C_R   0.627246 0.317792 0.223271 0.015468
C77   C     C_R   0.524289 0.394100 0.246805 -0.126495
C78   C     C_R   0.504685 0.373998 0.294868 -0.132694
C79   C     C_3   0.725630 0.739505 0.782677 -0.099697
C80   C     C_R   0.642215 0.329595 0.173535 -0.148978
C81   C     C_3   0.612497 0.834171 0.759590 -0.109230
C82   C     C_R   0.738912 0.244640 0.148713 -0.023079
C83   C     C_R   0.761200 0.087999 0.370391 -0.131490
C84   C     C_R   0.783709 0.114501 0.324465 0.014116
C85   C     C_R   0.696753 0.208110 0.298544 0.066619
C86   C     C_R   0.889317 0.042813 0.302716 -0.134206
C87   C     C_R   0.905378 0.056696 0.253990 -0.124469
C88   C     C_R   0.817008 0.145013 0.226276 0.000066
C89   C     C_R   0.714698 0.225390 0.249567 0.051504
C90   C     C_R   0.826393 0.150176 0.175566 -0.021743
C91   C     C_1   0.690364 0.622075 0.902953 -0.017642
C92   C     C_1   0.674361 0.661161 0.862529 -0.059318
C93   C     C_R   0.651008 0.149802 0.389998 -0.007090
C94   C     C_R   0.049267 0.236239 0.949822 0.545505
C95   C     C_R   0.710636 0.564794 0.948699 0.547625
C96   C     C_R   0.722055 0.225776 0.950778 0.555259
C97   C     C_R   0.051792 0.242990 0.087529 0.537950
C98   C     C_R   0.706805 0.576290 0.085971 0.538617
C99   C     C_R   0.751151 0.255306 0.095443 0.559284
C100  C     C_3   0.292228 0.251172 0.804134 -0.282374
C101  C     C_3   0.386821 0.164100 0.837256 -0.433133
C102  C     C_3   0.227241 0.426050 0.204946 -0.280435
Cr1   Cr    Cr6+3 0.417550 0.169090 0.500530 1.039664
Cr2   Cr    Cr6+3 0.669180 0.913420 0.499920 1.028401
Cr3   Cr    Cr6+3 0.413260 0.917540 0.499520 1.019389
Cr4   Cr    Cr6+3 0.909170 0.177380 0.020380 1.045288
Cr5   Cr    Cr6+3 0.912710 0.429210 0.018220 1.017390
Cr6   Cr    Cr6+3 0.657170 0.432570 0.019030 1.019672
H1    H     H_    0.794808 0.752498 0.797651 0.103259
H2    H     H_    0.836362 0.647837 0.136286 0.121420
H3    H     H_    0.818526 0.600074 0.720364 0.106395
H4    H     H_    0.786527 0.740467 0.376979 0.134437
H5    H     H_    0.893848 0.710842 0.211066 0.111807
H6    H     H_    0.884977 0.728770 0.300213 0.110111
H7    H     H_    0.513200 0.653856 0.137191 0.133294
H8    H     H_    0.413419 0.672754 0.211676 0.095544
H9    H     H_    0.409815 0.679401 0.300629 0.097955
H10   H     H_    0.489655 0.698158 0.376257 0.130602
H11   H     H_    0.136090 0.035655 0.133819 0.151275
H12   H     H_    0.103196 0.351950 0.726905 0.102187
H13   H     H_    0.248544 0.973256 0.373130 0.127359
H14   H     H_    0.192600 0.913220 0.207409 0.113836
H15   H     H_    0.588383 0.925085 0.753879 0.092612
H16   H     H_    0.224567 0.895007 0.295746 0.099267
H17   H     H_    0.138863 0.352458 0.136775 0.141372
H18   H     H_    0.212328 0.402897 0.300279 0.118943
H19   H     H_    0.575762 0.401946 0.153677 0.129723
H20   H     H_    0.481853 0.299030 0.382012 0.132977
H21   H     H_    0.456871 0.466182 0.227289 0.096895
H22   H     H_    0.422211 0.430470 0.311420 0.102755
H23   H     H_    0.959414 0.289397 0.777434 0.098564
H24   H     H_    0.463759 0.847780 0.810207 0.103569
H25   H     H_    0.986318 0.994992 0.237951 0.124161
H26   H     H_    0.957278 0.971575 0.322519 0.104221
H27   H     H_    0.827461 0.013174 0.389126 0.130793
H28   H     H_    0.487449 0.695431 0.732982 0.106755
H29   H     H_    0.693443 0.522609 0.775959 0.100949
H30   H     H_    0.222926 0.968807 0.792725 0.102837
H31   H     H_    0.049583 0.084974 0.720936 0.108067
H32   H     H_    0.366579 0.031790 0.741544 0.099269
H33   H     H_    0.349780 0.139167 0.867678 0.160889
H34   H     H_    0.480038 0.337210 0.789474 0.102831
H35   H     H_    0.446758 0.085942 0.816419 0.141317
H36   H     H_    0.435749 0.202782 0.852880 0.148487
H37   H     H_    0.330367 0.278493 0.775068 0.134018
H38   H     H_    0.233099 0.328257 0.825789 0.148905
H39   H     H_    0.138480 0.603758 0.182123 0.141150
H40   H     H_    0.052743 0.535263 0.179856 0.155586
H41   H     H_    0.085826 0.576718 0.237986 0.151342
H42   H     H_    0.291848 0.435994 0.226206 0.138823
H43   H     H_    0.265523 0.395639 0.168311 0.143820
H44   H     H_    0.624729 0.358214 0.719904 0.104523
H45   H     H_    0.510121 0.138492 0.738346 0.101093
H46   H     H_    0.701058 0.999968 0.799224 0.101923
H47   H     H_    0.845751 0.021065 0.729600 0.104877
H48   H     H_    0.816550 0.218451 0.779892 0.100414
N1    N     N_1   0.142789 0.435580 0.405332 -0.309078
N2    N     N_1   0.991786 0.969353 0.132817 -0.331787
O1    O     O_R   0.301710 0.195650 0.554160 -0.500933
O2    O     O_R   0.635520 0.542770 0.964420 -0.506089
O3    O     O_R   0.665950 0.325030 0.970100 -0.489312
O4    O     O_R   0.522390 0.158990 0.550460 -0.497071
O5    O     O_R   0.816620 0.158530 0.074540 -0.488176
O6    O     O_R   0.004460 0.188870 0.069750 -0.507393
O7    O     O_R   0.025800 0.341780 0.072300 -0.521509
O8    O     O_R   0.807650 0.528950 0.067500 -0.499997
O9    O     O_R   0.633420 0.550490 0.071810 -0.532840
O10   O     O_R   0.664000 0.332180 0.069640 -0.500141
O11   O     O_3   0.826350 0.346390 0.019210 -0.267022
O12   O     O_R   0.658900 0.818120 0.449760 -0.494169
O13   O     O_R   0.694390 0.003530 0.554040 -0.513605
O14   O     O_R   0.657700 0.819660 0.549320 -0.488297
O15   O     O_R   0.501930 0.803280 0.552920 -0.501903
O16   O     O_R   0.318170 0.023580 0.549580 -0.511530
O17   O     O_R   0.303010 0.193990 0.446760 -0.493593
O18   O     O_R   0.523600 0.157450 0.450900 -0.498026
O19   O     O_R   0.695690 0.001860 0.446640 -0.519544
O20   O     O_R   0.503220 0.801620 0.445520 -0.517311
O21   O     O_R   0.319370 0.022040 0.450020 -0.502108
O22   O     O_3   0.499990 0.000010 0.499990 -0.268982
O23   O     O_R   0.818720 0.150820 0.967160 -0.499661
O24   O     O_R   0.006410 0.181720 0.970200 -0.494331
O25   O     O_R   0.027890 0.334070 0.964920 -0.506677
O26   O     O_R   0.809600 0.521790 0.967960 -0.492629

loop_
_geom_bond_atom_site_label_1
_geom_bond_atom_site_label_2
_ccdc_geom_bond_type
C66   C68   A    
C87   C88   A    
Cr5   O7    S    
C43   O20   A    
C3    H39   S    
C61   H11   S    
C101  H35   S    
C82   C99   S    
C87   H25   S    
C35   C36   A    
C14   C17   S    
C96   O23   A    
C26   H29   S    
C59   C81   S    
C47   C49   A    
C77   C78   A    
C27   C33   S    
C25   C28   S    
C37   C79   S    
C4    C63   S    
C22   C32   S    
C31   O19   A    
C26   C67   S    
C48   C70   S    
C28   C29   S    
C10   C19   S    
C68   C102  S    
C29   C32   S    
C42   C98   S    
C38   C39   A    
C101  H36   S    
C95   O26   A    
C35   C53   A    
C58   C60   A    
C56   C65   A    
C83   C93   A    
C23   C96   S    
C8    H30   S    
Cr1   O22   S    
C41   C42   A    
C21   H44   S    
C6    H31   S    
C69   C71   A    
C70   C81   S    
Cr4   O24   S    
C40   H6    S    
C13   C14   S    
C59   C67   S    
C47   H9    S    
C101  H33   S    
C44   C53   A    
C75   C85   A    
Cr2   O19   S    
C74   H20   S    
C12   C16   S    
C100  H38   S    
C16   C17   S    
C23   C33   T    
C28   H47   S    
C50   C52   A    
C36   C46   A    
Cr4   O6    S    
C32   H45   S    
Cr3   O20   S    
C83   H27   S    
C98   O9    A    
C26   C48   S    
C102  H43   S    
Cr2   O14   S    
C7    C15   S    
Cr6   O10   S    
Cr5   O8    S    
C3    H40   S    
Cr3   O15   S    
C37   C70   S    
C25   H48   S    
C74   C93   A    
Cr3   O21   S    
Cr1   O17   S    
C43   O12   A    
C86   H26   S    
C31   O18   A    
C45   C47   A    
C54   C56   A    
C3    H41   S    
C58   H14   S    
C74   C75   A    
C79   H1    S    
C39   C40   A    
C95   O2    A    
C14   C20   S    
C36   C40   A    
C67   C79   S    
C84   C85   A    
C38   C41   A    
C80   C82   A    
C10   C20   T    
C91   C92   T    
C79   C81   S    
C85   C89   A    
C86   C87   A    
C68   C69   A    
C6    C8    S    
C38   C51   A    
C63   C73   A    
C39   H5    S    
C65   C71   A    
C21   C29   S    
C29   C34   S    
C1    O13   A    
C4    N1    T    
C24   C34   T    
Cr3   O16   S    
C66   H18   S    
Cr5   O25   S    
C64   C66   A    
C69   C72   A    
Cr4   O23   S    
C6    C14   S    
C62   C97   S    
C54   C73   A    
C83   C84   A    
C44   H10   S    
C100  H37   S    
C8    C12   S    
C97   O6    A    
C22   H34   S    
C7    O14   A    
C70   H24   S    
C50   C51   A    
C62   C72   A    
C77   H21   S    
Cr4   O5    S    
C57   C71   A    
Cr6   O11   S    
C2    C15   T    
C55   O17   A    
C98   O8    A    
C102  H42   S    
Cr2   O13   S    
C99   O5    A    
C3    C102  S    
C67   H3    S    
C54   H13   S    
C81   H15   S    
C1    O4    A    
C5    N2    T    
C41   H2    S    
Cr4   O11   S    
C76   C80   A    
C94   O25   A    
Cr3   O22   S    
C6    C11   S    
C13   H12   S    
C44   C45   A    
C48   H28   S    
C48   C59   S    
Cr2   O12   S    
C99   O10   A    
Cr5   O11   S    
C52   H7    S    
C21   C25   S    
Cr1   O4    S    
C88   C90   A    
C37   C92   S    
C2    C59   S    
C55   O21   A    
Cr6   O9    S    
C16   C100  S    
C5    C90   S    
C84   C86   A    
C11   H23   S    
C11   C12   S    
C26   C37   S    
C57   C61   A    
Cr6   O2    S    
C80   H19   S    
C60   H16   S    
C25   C27   S    
Cr6   O3    S    
C72   H17   S    
C8    C17   S    
C82   C90   A    
Cr5   O26   S    
C22   C27   S    
C19   O1    A    
C64   C65   A    
C28   C30   S    
C78   H22   S    
C19   O16   A    
C31   C93   S    
C30   C32   S    
C76   C77   A    
C11   C13   S    
Cr1   O1    S    
C57   C58   A    
Cr2   O22   S    
C97   O7    A    
C7    O15   A    
Cr1   O18   S    
C43   C53   S    
C96   O3    A    
C17   H32   S    
C46   C51   A    
C61   C62   A    
C75   C78   A    
C91   C95   S    
C63   C64   A    
C55   C73   S    
C45   C46   A    
C9    C18   T    
C30   H46   S    
C49   H8    S    
C56   C60   A    
C88   C89   A    
C1    C24   S    
C49   C50   A    
C13   C16   S    
C12   C18   S    
C76   C89   A    
C100  C101  S    
C94   O24   A    
C21   C22   S    
C9    C94   S    
C35   H4    S    
C42   C52   A    
C27   C30   S    
