data_mof_unit_21641.cif
_audit_creation_date              2012-12-10T18:50:44-0500
_audit_creation_method            fapswitch 2.2
_symmetry_space_group_name_H-M    P1
_symmetry_Int_Tables_number       1
_space_group_crystal_system       triclinic
_cell_length_a                    10.699442
_cell_length_b                    9.861789
_cell_length_c                    15.739359
_cell_angle_alpha                 89.898739
_cell_angle_beta                  90.432838
_cell_angle_gamma                 90.004243
_cell_volume                      1660.69854335

loop_
_atom_site_label
_atom_site_type_symbol
_atom_type_description
_atom_site_fract_x
_atom_site_fract_y
_atom_site_fract_z
_atom_type_partial_charge
C1    C     C_R   0.259936 0.500020 0.500218 0.860671
C2    C     C_3   0.622013 0.451257 0.952341 -0.413532
C3    C     C_3   0.620133 0.450010 0.050128 -0.418428
C4    C     C_1   0.496734 0.500164 0.825906 -0.089698
C5    C     C_1   0.492605 0.500991 0.174187 -0.063044
C6    C     C_1   0.495670 0.500630 0.249466 -0.205774
C7    C     C_R   0.064310 0.384839 0.529025 -0.210959
C8    C     C_R   0.063622 0.615856 0.473367 -0.195149
C9    C     C_R   0.936171 0.384535 0.528582 -0.195643
C10   C     C_R   0.935580 0.615860 0.473286 -0.200662
C11   C     C_R   0.872414 0.500049 0.500624 -0.005859
C12   C     C_R   0.127465 0.500198 0.500885 -0.013876
C13   C     C_R   0.573204 0.071593 0.555731 -0.149646
C14   C     C_R   0.572963 0.928077 0.555878 -0.147890
C15   C     C_R   0.499196 0.500142 0.338294 0.910455
C16   C     C_R   0.427074 0.927565 0.443003 0.227727
C17   C     C_R   0.425449 0.073096 0.444077 0.233963
C18   C     C_R   0.739983 0.499994 0.500180 0.853218
C19   C     C_R   0.500005 0.499912 0.661746 0.902386
C20   C     C_3   0.466306 0.647680 0.048412 0.048602
C21   C     C_3   0.383650 0.408487 0.047399 0.040921
C22   C     C_3   0.390651 0.404232 0.949160 -0.431401
C23   C     C_3   0.469827 0.646365 0.949749 -0.447441
C24   C     C_1   0.498480 0.499846 0.750617 -0.193841
C25   C     C_3   0.491496 0.500976 0.082646 0.227347
C26   C     C_3   0.494572 0.500649 0.917301 0.286217
H1    H     H_    0.378941 0.684057 0.924153 0.156799
H2    H     H_    0.298724 0.434822 0.921542 0.150718
H3    H     H_    0.370128 0.676884 0.068285 0.124206
H4    H     H_    0.292616 0.456797 0.063687 0.126970
H5    H     H_    0.409721 0.299200 0.926740 0.188729
H6    H     H_    0.543675 0.715723 0.925621 0.183496
H7    H     H_    0.697382 0.514197 0.075127 0.168043
H8    H     H_    0.640821 0.346166 0.073634 0.164734
H9    H     H_    0.698225 0.519147 0.930032 0.170269
H10   H     H_    0.642550 0.347367 0.928615 0.172815
H11   H     H_    0.113699 0.295845 0.551771 0.157777
H12   H     H_    0.112261 0.705226 0.451205 0.145548
H13   H     H_    0.887280 0.295134 0.550782 0.150454
H14   H     H_    0.886304 0.705301 0.451047 0.154969
H15   H     H_    0.632141 0.125722 0.600344 0.148033
H16   H     H_    0.631528 0.873706 0.600713 0.152065
N1    N     N_R   0.499970 0.857200 0.499980 -0.103239
N2    N     N_R   0.499970 0.142800 0.499980 -0.103468
O1    O     O_R   0.316750 0.614620 0.499990 -0.614143
O2    O     O_R   0.316750 0.385380 0.499990 -0.600119
O3    O     O_R   0.499990 0.614720 0.377140 -0.585216
O4    O     O_R   0.499990 0.385280 0.377140 -0.607532
O5    O     O_R   0.683220 0.614710 0.500000 -0.627159
O6    O     O_R   0.683220 0.385290 0.500000 -0.626543
O7    O     O_R   0.499980 0.614620 0.622860 -0.615182
O8    O     O_R   0.499980 0.385380 0.622860 -0.617473
Zn1   Zn    Zn3+2 0.499980 0.653120 0.500000 0.959324
Zn2   Zn    Zn3+2 0.499980 0.346880 0.500000 0.957223
N3    N     N_2   0.351390 0.853208 0.384991 -0.261157
H17   H     H_    0.256787 0.866312 0.392912 0.205402
C27   C     C_3   0.389926 0.855701 0.297019 -0.751253
H18   H     H_    0.352459 0.764677 0.264220 0.242224
H19   H     H_    0.493513 0.854915 0.291842 0.257948
H20   H     H_    0.351605 0.945952 0.264065 0.200935
N4    N     N_2   0.352728 0.148344 0.384699 -0.258518
H21   H     H_    0.387069 0.151197 0.323816 0.220777
C28   C     C_3   0.218076 0.141279 0.391573 -0.791657
H22   H     H_    0.179071 0.074034 0.341496 0.216718
H23   H     H_    0.178333 0.243991 0.381631 0.257452
H24   H     H_    0.189155 0.103790 0.455128 0.227988
N5    N     N_2   0.386001 0.270765 0.081596 -0.288693
H25   H     H_    0.471249 0.223203 0.087515 0.235642
C29   C     C_3   0.295611 0.237497 0.146302 -0.822868
H26   H     H_    0.301342 0.127728 0.161381 0.231402
H27   H     H_    0.199467 0.259506 0.123012 0.244348
H28   H     H_    0.314353 0.296442 0.204953 0.249332
N6    N     N_2   0.554445 0.746260 0.083377 -0.284127
H29   H     H_    0.645703 0.734338 0.064263 0.234148
C30   C     C_3   0.514131 0.886421 0.081230 -0.834674
H30   H     H_    0.581731 0.949825 0.117374 0.238695
H31   H     H_    0.420974 0.897446 0.111016 0.248431
H32   H     H_    0.509464 0.923716 0.014655 0.240743

loop_
_geom_bond_atom_site_label_1
_geom_bond_atom_site_label_2
_ccdc_geom_bond_type
C2    H9    S    
N3    H17   S    
C28   H23   S    
C11   C18   S    
N6    H29   S    
C15   O3    A    
C13   H15   S    
O4    Zn2   S    
O6    Zn2   S    
C5    C6    T    
C4    C24   T    
C1    O2    A    
C27   H19   S    
C20   C25   S    
C3    H7    S    
C9    H13   S    
C10   H14   S    
C23   C26   S    
C29   H27   S    
C17   N4    S    
C6    C15   S    
C19   O8    A    
N1    Zn1   S    
C16   C17   A    
C23   H1    S    
O3    Zn1   S    
C28   H24   S    
O1    Zn1   S    
C22   H2    S    
C21   C22   S    
C21   N5    S    
N6    C30   S    
C29   H26   S    
C1    C12   S    
C8    H12   S    
C15   O4    A    
O8    Zn2   S    
C20   H3    S    
C7    C12   A    
C22   H5    S    
N5    H25   S    
C3    C25   S    
C27   H20   S    
C3    H8    S    
O7    Zn1   S    
C29   H28   S    
C30   H30   S    
C19   O7    A    
C9    C11   A    
C20   C23   S    
C8    C12   A    
O2    Zn2   S    
N4    C28   S    
C7    H11   S    
C2    C26   S    
C30   H31   S    
C16   N1    A    
C5    C25   S    
N3    C27   S    
C18   O6    A    
C2    H10   S    
C7    C9    A    
C21   C25   S    
C4    C26   S    
C21   H4    S    
C14   H16   S    
C23   H6    S    
C2    C3    S    
C16   N3    S    
C1    O1    A    
C27   H18   S    
O5    Zn1   S    
C20   N6    S    
C19   C24   S    
N4    H21   S    
C30   H32   S    
C17   N2    A    
C10   C11   A    
C28   H22   S    
N2    Zn2   S    
C8    C10   A    
C22   C26   S    
N5    C29   S    
C13   C14   A    
C13   N2    A    
C18   O5    A    
C14   N1    A    
