data_mof_unit_10642.cif
_audit_creation_date              2012-12-10T19:36:15-0500
_audit_creation_method            fapswitch 2.2
_symmetry_space_group_name_H-M    P1
_symmetry_Int_Tables_number       1
_space_group_crystal_system       triclinic
_cell_length_a                    15.893225
_cell_length_b                    15.916695
_cell_length_c                    17.090978
_cell_angle_alpha                 83.511251
_cell_angle_beta                  88.886967
_cell_angle_gamma                 112.606035
_cell_volume                      3956.39849227

loop_
_atom_site_label
_atom_site_type_symbol
_atom_type_description
_atom_site_fract_x
_atom_site_fract_y
_atom_site_fract_z
_atom_type_partial_charge
C1    C     C_R   0.497077 0.509327 0.348806 0.799907
C2    C     C_R   0.499917 0.489547 0.651289 0.805984
C3    C     C_R   0.098386 0.607711 0.512172 -0.229668
C4    C     C_R   0.901505 0.393238 0.483670 -0.235123
C5    C     C_R   0.055373 0.666536 0.524513 -0.236496
C6    C     C_R   0.944305 0.333829 0.472506 -0.233680
C7    C     C_R   0.488153 0.510776 0.263358 -0.016642
C8    C     C_R   0.499815 0.484342 0.737247 -0.018728
C9    C     C_R   0.500479 0.442635 0.224984 -0.243526
C10   C     C_R   0.467667 0.540288 0.775927 -0.233312
C11   C     C_R   0.495122 0.444436 0.143896 -0.166392
C12   C     C_R   0.466434 0.535741 0.857631 -0.172818
C13   C     C_R   0.475611 0.514184 0.099468 0.387763
C14   C     C_R   0.498341 0.475115 0.902053 0.386347
C15   C     C_R   0.457966 0.578957 0.138437 -0.208048
C16   C     C_R   0.531242 0.420048 0.863080 -0.206821
C17   C     C_R   0.463377 0.576893 0.219931 -0.230761
C18   C     C_R   0.532509 0.424833 0.781153 -0.239050
C19   C     C_R   0.548533 0.265797 0.461583 0.623666
C20   C     C_R   0.455340 0.735062 0.541935 0.630971
C21   C     C_R   0.545908 0.174589 0.466038 -0.408178
C22   C     C_R   0.460664 0.827214 0.539701 -0.412592
C23   C     C_R   0.674831 0.555194 0.499141 0.812142
C24   C     C_R   0.325172 0.444886 0.499819 0.803177
C25   C     C_R   0.480442 0.101615 0.516212 0.274004
C26   C     C_R   0.520416 0.898606 0.484472 0.274980
C27   C     C_R   0.419603 0.121898 0.563219 -0.167743
C28   C     C_R   0.576691 0.877140 0.433387 -0.167189
C29   C     C_R   0.425134 0.213472 0.560379 0.014162
C30   C     C_R   0.571661 0.785706 0.436758 0.013770
C31   C     C_R   0.773981 0.586358 0.504443 -0.047623
C32   C     C_R   0.226067 0.414046 0.492646 -0.043643
C33   C     C_R   0.919043 0.698027 0.534401 -0.210570
C34   C     C_R   0.080513 0.301513 0.464358 -0.210884
C35   C     C_R   0.825340 0.671210 0.528713 -0.205429
C36   C     C_R   0.174196 0.328041 0.470712 -0.201220
C37   C     C_R   0.816326 0.526587 0.490121 -0.252935
C38   C     C_R   0.184329 0.475340 0.502906 -0.255769
C39   C     C_R   0.909340 0.548830 0.501691 0.080848
C40   C     C_R   0.090920 0.452426 0.492830 0.085898
C41   C     C_R   0.961441 0.637919 0.520463 0.173527
C42   C     C_R   0.038386 0.362487 0.476208 0.171512
C43   C     C_R   0.952043 0.485716 0.494430 0.066453
C44   C     C_R   0.048203 0.515595 0.499999 0.070416
Cu1   Cu    Cu3+1 0.504410 0.586150 0.496120 0.982534
Cu2   Cu    Cu3+1 0.495590 0.413850 0.503880 0.979786
H1    H     H_    0.096367 0.735625 0.536007 0.135767
H2    H     H_    0.903036 0.264216 0.462471 0.138024
H3    H     H_    0.420077 0.844400 0.581487 0.189407
H4    H     H_    0.594948 0.160326 0.431149 0.188626
H5    H     H_    0.226686 0.540655 0.519245 0.147663
H6    H     H_    0.775130 0.463341 0.469038 0.187029
H7    H     H_    0.206018 0.281949 0.457352 0.143503
H8    H     H_    0.793121 0.716253 0.544214 0.144833
H9    H     H_    0.958191 0.765202 0.551025 0.126437
H10   H     H_    0.041057 0.233580 0.449407 0.126620
H11   H     H_    0.171510 0.637465 0.511984 0.129774
H12   H     H_    0.828109 0.363678 0.485040 0.161811
H13   H     H_    0.442958 0.587168 0.742907 0.195267
H14   H     H_    0.513776 0.387402 0.257566 0.147838
H15   H     H_    0.440674 0.579666 0.885553 0.151375
H16   H     H_    0.506253 0.391208 0.116386 0.147301
H17   H     H_    0.440337 0.631399 0.105426 0.136176
H18   H     H_    0.556690 0.373801 0.896419 0.136746
H19   H     H_    0.446517 0.625777 0.248964 0.147628
H20   H     H_    0.560331 0.383221 0.752138 0.148298
N1    N     N_2   0.472674 0.521284 0.016167 -0.270409
N2    N     N_2   0.499798 0.467988 0.985392 -0.271984
N3    N     N_R   0.488960 0.284450 0.509710 -0.224019
N4    N     N_R   0.511040 0.715550 0.490290 -0.223807
N5    N     N_2   0.473237 0.007741 0.522628 -0.213052
N6    N     N_2   0.528168 0.992641 0.478583 -0.213313
O1    O     O_R   0.504130 0.580750 0.382440 -0.588866
O2    O     O_R   0.495870 0.419250 0.617560 -0.592526
O3    O     O_R   0.496670 0.435250 0.388990 -0.564033
O4    O     O_R   0.503330 0.564750 0.611010 -0.538341
O5    O     O_R   0.635650 0.613550 0.494890 -0.589708
O6    O     O_R   0.364350 0.386450 0.505110 -0.587871
O7    O     O_R   0.628200 0.468050 0.501440 -0.538227
O8    O     O_R   0.371800 0.531950 0.498560 -0.560801
O9    O     O_3   0.401511 0.664417 0.599798 -0.559704
C45   C     C_3   0.320630 0.672647 0.627319 0.026250
H21   H     H_    0.265451 0.603001 0.636222 0.169573
H22   H     H_    0.295681 0.714323 0.584466 0.119076
C46   C     C_3   0.331838 0.708075 0.707482 -0.836038
H23   H     H_    0.272244 0.724434 0.723212 0.218342
H24   H     H_    0.334968 0.654677 0.753688 0.234107
H25   H     H_    0.395088 0.770629 0.706813 0.249035
O10   O     O_3   0.616080 0.339380 0.415231 -0.561762
C47   C     C_3   0.638498 0.318697 0.341032 0.030416
H26   H     H_    0.644148 0.376809 0.296038 0.169760
H27   H     H_    0.585668 0.256502 0.321564 0.121252
C48   C     C_3   0.732197 0.313012 0.339621 -0.843610
H28   H     H_    0.735846 0.262474 0.388256 0.243775
H29   H     H_    0.746364 0.292221 0.282571 0.216763
H30   H     H_    0.785729 0.381319 0.345478 0.248389
C49   C     C_R   0.349806 0.045696 0.616116 0.154595
C50   C     C_R   0.267805 0.990434 0.586667 -0.134831
C51   C     C_R   0.203016 0.916962 0.635937 -0.145062
C52   C     C_R   0.220007 0.898098 0.714570 -0.114845
C53   C     C_R   0.301759 0.952769 0.744086 -0.139628
C54   C     C_R   0.366660 0.026391 0.695021 -0.129751
H31   H     H_    0.254297 0.004281 0.525710 0.115896
H32   H     H_    0.139718 0.874596 0.613166 0.115298
H33   H     H_    0.169915 0.841037 0.752579 0.122340
H34   H     H_    0.314929 0.937932 0.804915 0.125464
H35   H     H_    0.430029 0.068060 0.718237 0.115352
C55   C     C_R   0.643376 0.952622 0.377585 0.155136
C56   C     C_R   0.726767 0.009950 0.403530 -0.133693
C57   C     C_R   0.788323 0.083264 0.351847 -0.148255
C58   C     C_R   0.766840 0.099746 0.274200 -0.110808
C59   C     C_R   0.683756 0.042963 0.248144 -0.140037
C60   C     C_R   0.621951 0.969667 0.299709 -0.132579
H36   H     H_    0.743728 0.997986 0.463722 0.118036
H37   H     H_    0.852525 0.127446 0.372025 0.119025
H38   H     H_    0.814443 0.156660 0.234306 0.122753
H39   H     H_    0.667089 0.055992 0.188091 0.123044
H40   H     H_    0.557392 0.926567 0.279243 0.113231
C61   C     C_R   0.360135 0.229352 0.613887 0.211231
C62   C     C_R   0.269871 0.208521 0.593670 -0.127568
C63   C     C_R   0.205303 0.214782 0.646958 -0.141807
C64   C     C_R   0.229592 0.238203 0.722059 -0.121421
C65   C     C_R   0.317637 0.252736 0.744593 -0.149047
C66   C     C_R   0.382006 0.246187 0.691273 -0.120766
H41   H     H_    0.249567 0.185769 0.537173 0.102214
H42   H     H_    0.136190 0.200238 0.630423 0.137851
H43   H     H_    0.179602 0.242846 0.763406 0.129741
H44   H     H_    0.335643 0.267832 0.803647 0.142788
H45   H     H_    0.448699 0.253410 0.710198 0.112468
C67   C     C_R   0.636347 0.769794 0.382956 0.212241
C68   C     C_R   0.615625 0.756500 0.304788 -0.124752
C69   C     C_R   0.679789 0.749706 0.251408 -0.145299
C70   C     C_R   0.766753 0.760681 0.274802 -0.121018
C71   C     C_R   0.790233 0.780983 0.350812 -0.146382
C72   C     C_R   0.725800 0.787493 0.404108 -0.122104
H46   H     H_    0.550385 0.753300 0.285210 0.104314
H47   H     H_    0.662584 0.737451 0.191634 0.140329
H48   H     H_    0.816647 0.755895 0.233435 0.129692
H49   H     H_    0.858640 0.792928 0.368063 0.139394
H50   H     H_    0.745537 0.807710 0.461467 0.105422

loop_
_geom_bond_atom_site_label_1
_geom_bond_atom_site_label_2
_ccdc_geom_bond_type
C33   H9    S    
C34   H10   S    
C48   H28   S    
C27   C29   A    
C26   N6    S    
C58   C59   A    
C34   C42   A    
C11   H16   S    
C49   C50   A    
C65   H44   S    
C65   C66   A    
C39   C41   A    
C61   C66   A    
C29   C61   S    
C52   H33   S    
C53   C54   A    
C6    H2    S    
Cu1   O4    S    
C32   C36   A    
C19   C21   A    
C59   H39   S    
C50   H31   S    
C55   C56   A    
Cu1   O1    S    
C64   H43   S    
C57   C58   A    
C59   C60   A    
Cu2   N3    S    
C21   C25   A    
C36   H7    S    
C24   O8    A    
C67   C72   A    
C69   C70   A    
C7    C17   A    
C58   H38   S    
C25   N5    S    
C32   C38   A    
C34   C36   A    
C49   C54   A    
C2    O2    A    
C40   C42   A    
C51   H32   S    
C70   H48   S    
C48   H29   S    
C20   O9    S    
C35   H8    S    
C20   N4    A    
Cu2   O3    S    
C30   N4    A    
O9    C45   S    
C29   N3    A    
C46   H24   S    
C72   H50   S    
C3    C44   A    
N1    N2    D    
C1    O3    A    
C4    C6    A    
C68   H46   S    
C71   H49   S    
Cu2   O6    S    
C37   H6    S    
C62   H41   S    
C39   C43   A    
C38   H5    S    
C69   H47   S    
C46   H23   S    
C8    C18   A    
C31   C37   A    
C23   C31   S    
C55   C60   A    
C43   C44   A    
C24   C32   S    
C19   O10   S    
C5    H1    S    
C47   H27   S    
C51   C52   A    
C54   H35   S    
C16   C18   A    
C23   O5    A    
C9    C11   A    
C63   C64   A    
C10   C12   A    
C56   H36   S    
C22   H3    S    
C3    H11   S    
C24   O6    A    
C12   C14   A    
C45   H21   S    
C48   H30   S    
C45   H22   S    
C13   C15   A    
C22   C26   A    
C70   C71   A    
C14   C16   A    
C19   N3    A    
C25   C27   A    
C68   C69   A    
Cu2   O2    S    
C2    O4    A    
C62   C63   A    
C47   C48   S    
C13   N1    S    
C46   H25   S    
C53   H34   S    
C7    C9    A    
C5    C41   A    
C27   C49   S    
C15   H17   S    
Cu1   N4    S    
C1    C7    S    
C26   C28   A    
C2    C8    S    
C20   C22   A    
C3    C5    A    
C61   C62   A    
C15   C17   A    
C71   C72   A    
C4    C43   A    
C18   H20   S    
C45   C46   S    
C17   H19   S    
C9    H14   S    
C1    O1    A    
C28   C30   A    
C10   H13   S    
C64   C65   A    
C33   C41   A    
C63   H42   S    
C37   C39   A    
C30   C67   S    
C56   C57   A    
C38   C40   A    
C12   H15   S    
C11   C13   A    
C47   H26   S    
Cu2   O7    S    
C28   C55   S    
C31   C35   A    
C52   C53   A    
C33   C35   A    
C66   H45   S    
C67   C68   A    
Cu1   O8    S    
C21   H4    S    
C60   H40   S    
Cu1   Cu2   S    
C40   C44   A    
N5    N6    D    
C8    C10   A    
C50   C51   A    
C6    C42   A    
C4    H12   S    
C14   N2    S    
Cu1   O5    S    
C16   H18   S    
C23   O7    A    
O10   C47   S    
C57   H37   S    
