data_mof_unit_12178.cif
_audit_creation_date              2012-12-10T16:50:02-0500
_audit_creation_method            fapswitch 2.2
_symmetry_space_group_name_H-M    P1
_symmetry_Int_Tables_number       1
_space_group_crystal_system       triclinic
_cell_length_a                    7.880822
_cell_length_b                    8.556773
_cell_length_c                    10.599861
_cell_angle_alpha                 92.560401
_cell_angle_beta                  84.92551
_cell_angle_gamma                 93.521456
_cell_volume                      710.095641325

loop_
_atom_site_label
_atom_site_type_symbol
_atom_type_description
_atom_site_fract_x
_atom_site_fract_y
_atom_site_fract_z
_atom_type_partial_charge
C1    C     C_R   0.545245 0.794242 0.497130 0.929995
C2    C     C_R   0.454786 0.205765 0.502820 0.945458
C3    C     C_R   0.499963 0.502817 0.261033 0.842560
C4    C     C_R   0.418222 0.788000 0.884180 -0.179309
C5    C     C_R   0.376283 0.921758 0.957638 -0.136034
C6    C     C_R   0.373916 0.921019 0.089073 -0.145274
C7    C     C_R   0.413686 0.786579 0.147439 -0.174377
C8    C     C_R   0.455880 0.649751 0.074346 0.097900
C9    C     C_3   0.932942 0.286092 0.283712 -0.691263
C10   C     C_R   0.457930 0.650432 0.942073 0.090719
C11   C     C_R   0.504189 0.513570 0.871648 -0.086977
C12   C     C_R   0.553337 0.381624 0.927705 -0.203095
C13   C     C_R   0.551772 0.381064 0.056695 -0.231155
C14   C     C_R   0.500865 0.512376 0.128861 -0.078997
C15   C     C_2   0.568911 0.957857 0.494937 -0.391120
C16   C     C_2   0.431134 0.042122 0.504345 -0.396510
C17   C     C_R   0.501187 0.503760 0.739071 0.855454
H1    H     H_    0.589718 0.278071 0.871413 0.151458
H2    H     H_    0.144398 0.340377 0.373838 0.287383
H3    H     H_    0.934987 0.386433 0.220482 0.244809
H4    H     H_    0.801308 0.239005 0.307656 0.267782
H5    H     H_    0.001679 0.190528 0.230883 0.188440
H6    H     H_    0.989782 0.627785 0.589024 0.173400
H7    H     H_    0.421510 0.794205 0.782297 0.142314
H8    H     H_    0.346691 0.026559 0.912410 0.140553
H9    H     H_    0.342404 0.025220 0.145937 0.132080
H10   H     H_    0.412995 0.791713 0.249467 0.152451
H11   H     H_    0.587660 0.277299 0.100714 0.145315
H12   H     H_    0.699265 0.008405 0.485676 0.193887
H13   H     H_    0.300784 0.991561 0.513438 0.188549
N1    N     N_2   0.950330 0.457950 0.466250 0.011861
N2    N     N_2   0.049670 0.542050 0.533750 -0.148324
N3    N     N_2   0.017231 0.332429 0.396165 -0.217051
O1    O     O_R   0.389250 0.738570 0.508280 -0.624285
O2    O     O_R   0.678390 0.711630 0.486650 -0.625937
O3    O     O_R   0.355400 0.513470 0.694050 -0.613175
O4    O     O_R   0.644540 0.486530 0.672420 -0.617073
O5    O     O_R   0.321610 0.288370 0.513350 -0.641219
O6    O     O_R   0.610750 0.261430 0.491720 -0.609233
O7    O     O_R   0.355460 0.513470 0.327580 -0.651079
O8    O     O_R   0.644600 0.486530 0.305950 -0.615866
Zn1   Zn    Zn3+2 0.306930 0.517990 0.514440 0.937893
Zn2   Zn    Zn3+2 0.693070 0.482010 0.485560 0.957092

loop_
_geom_bond_atom_site_label_1
_geom_bond_atom_site_label_2
_ccdc_geom_bond_type
O4    Zn2   S    
C8    C14   A    
C11   C12   A    
N1    N3    S    
C13   H11   S    
C15   H12   S    
C6    C7    A    
C1    C15   S    
C17   O3    A    
C2    C16   S    
C2    O5    A    
C9    H3    S    
O3    Zn1   S    
N1    N2    D    
O1    Zn1   S    
H6    N2    S    
O7    Zn1   S    
C7    H10   S    
C7    C8    A    
C17   O4    A    
C13   C14   A    
C9    N3    S    
O8    Zn2   S    
C9    H4    S    
C6    H9    S    
C3    C14   S    
N1    Zn2   S    
C5    H8    S    
C1    O1    A    
O5    Zn1   S    
C5    C6    A    
C4    H7    S    
C9    H5    S    
C10   C11   A    
C4    C10   A    
C15   C16   D    
O2    Zn2   S    
C12   C13   A    
C1    O2    A    
C8    C10   A    
H2    N3    S    
C12   H1    S    
N2    Zn1   S    
C3    O8    A    
O6    Zn2   S    
C3    O7    A    
C16   H13   S    
C2    O6    A    
C11   C17   S    
C4    C5    A    
