data_mof_unit_64923.cif
_audit_creation_date              2013-03-05T16:45:24-0500
_audit_creation_method            fapswitch 2.2
_symmetry_space_group_name_H-M    P1
_symmetry_Int_Tables_number       1
_space_group_crystal_system       triclinic
_cell_length_a                    10.785551
_cell_length_b                    15.798246
_cell_length_c                    17.065074
_cell_angle_alpha                 96.764643
_cell_angle_beta                  89.888645
_cell_angle_gamma                 92.852704
_cell_volume                      2883.92200527

loop_
_atom_site_label
_atom_site_type_symbol
_atom_site_description
_atom_site_fract_x
_atom_site_fract_y
_atom_site_fract_z
_atom_type_partial_charge
O1    O     O_R   0.494300 0.420530 0.382500 -0.565439
O2    O     O_R   0.504600 0.563720 0.388950 -0.561744
C1    C     C_R   0.498045 0.489014 0.347910 0.890574
O3    O     O_R   0.312540 0.428400 0.496760 -0.566774
O4    O     O_R   0.322840 0.571590 0.503210 -0.604659
C2    C     C_R   0.259848 0.499625 0.500307 0.857640
Cu1   Cu    Cu3+1 0.493900 0.415220 0.496180 1.001542
Cu2   Cu    Cu3+1 0.506100 0.584780 0.503820 1.017874
O5    O     O_R   0.495400 0.436280 0.611050 -0.588827
O6    O     O_R   0.505700 0.579470 0.617500 -0.582307
O7    O     O_R   0.677160 0.428410 0.496790 -0.589623
O8    O     O_R   0.687460 0.571600 0.503240 -0.534605
C3    C     C_R   0.500719 0.510701 0.651610 0.811337
C4    C     C_R   0.740453 0.499975 0.498517 0.838256
C5    C     C_3   0.063565 0.405046 0.479185 -0.006610
H1    H     H_    0.102286 0.375288 0.422914 0.219840
C6    C     C_3   0.921081 0.407097 0.472694 -0.107764
H2    H     H_    0.878066 0.364304 0.513520 0.184645
H3    H     H_    0.115183 0.503958 0.628998 0.197570
H4    H     H_    0.907820 0.472359 0.618232 0.151701
C7    C     C_3   0.074866 0.536100 0.581059 -0.439547
C8    C     C_3   0.079555 0.557697 0.438060 0.077948
C9    C     C_3   0.122420 0.498346 0.499067 -0.143463
H5    H     H_    0.116137 0.623482 0.459633 0.176121
C10   C     C_3   0.878448 0.500098 0.497534 -0.164913
C11   C     C_3   0.931994 0.526030 0.583217 0.016160
C12   C     C_3   0.935544 0.557639 0.435713 0.133451
H6    H     H_    0.903318 0.528510 0.376347 0.168143
H7    H     H_    0.105225 0.604741 0.593051 0.222031
C13   C     C_R   0.485860 0.483147 0.260937 -0.166084
C14   C     C_R   0.459658 0.558239 0.228809 -0.190908
C15   C     C_R   0.440696 0.558370 0.148444 0.171602
C16   C     C_R   0.450959 0.482422 0.097468 0.238487
C17   C     C_R   0.474284 0.406104 0.128010 0.112636
C18   C     C_R   0.492959 0.405569 0.209729 0.123180
C19   C     C_R   0.469264 0.449625 0.857104 -0.130484
C20   C     C_R   0.469641 0.444390 0.775298 -0.215430
C21   C     C_R   0.500169 0.527888 0.903204 0.378571
N1    N     N_2   0.437922 0.480000 0.014941 -0.204280
N2    N     N_2   0.505788 0.534780 0.986654 -0.205142
C22   C     C_R   0.500540 0.516967 0.737963 -0.040190
H8    H     H_    0.445531 0.383460 0.741341 0.180158
H9    H     H_    0.446582 0.392181 0.884144 0.183097
C23   C     C_R   0.531762 0.594935 0.783760 -0.182750
C24   C     C_R   0.532738 0.599937 0.865897 -0.147839
H10   H     H_    0.556828 0.651695 0.756166 0.182439
H11   H     H_    0.558311 0.660133 0.900644 0.173637
H12   H     H_    0.450609 0.617660 0.266591 0.219670
N3    N     N_R   0.515260 0.712130 0.509560 -0.200768
C25   C     C_R   0.416285 0.750902 0.482372 0.010959
C26   C     C_R   0.414009 0.840258 0.486154 0.083589
C27   C     C_R   0.519744 0.891583 0.515236 0.312403
C28   C     C_R   0.619854 0.849730 0.542933 -0.282312
C29   C     C_R   0.615956 0.760379 0.539827 0.116510
C30   C     C_R   0.556917 0.158852 0.532853 -0.302030
C31   C     C_R   0.559907 0.248240 0.537188 0.056497
C32   C     C_R   0.476778 0.108374 0.478733 0.290233
N4    N     N_2   0.528520 0.983377 0.522409 -0.217261
N5    N     N_2   0.468903 0.016459 0.472027 -0.126234
N6    N     N_R   0.484730 0.287850 0.490450 -0.194980
H13   H     H_    0.622918 0.286113 0.578104 0.146565
H14   H     H_    0.617753 0.129840 0.571212 0.189623
H15   H     H_    0.701265 0.886477 0.567148 0.189875
H16   H     H_    0.693892 0.729985 0.561729 0.199797
C33   C     C_R   0.405026 0.241198 0.438634 0.035578
C34   C     C_R   0.400790 0.151119 0.429980 0.213241
H17   H     H_    0.346821 0.274377 0.402032 0.184081
H18   H     H_    0.336502 0.712496 0.458549 0.177452
I1    I     I_    0.107512 0.317851 0.564080 -0.330436
N7    N     N_R   0.893327 0.645417 0.445508 0.143579
O9    O     O_R   0.823084 0.670392 0.391585 -0.309918
O10   O     O_R   0.936142 0.701652 0.502058 -0.339070
I2    I     I_    0.854925 0.629874 0.658195 -0.316276
I3    I     I_    0.483538 0.292842 0.046140 -0.179440
I4    I     I_    0.534575 0.286634 0.250223 -0.140122
I5    I     I_    0.387099 0.674342 0.109794 -0.154682
I6    I     I_    0.241714 0.887754 0.455606 -0.096903
N8    N     N_R   0.320382 0.104525 0.371073 0.151067
O11   O     O_R   0.221415 0.138655 0.347966 -0.294928
O12   O     O_R   0.353076 0.032684 0.333405 -0.261556
I7    I     I_    0.856230 0.346673 0.358513 -0.175097
N9    N     N_R   0.132319 0.536767 0.358978 0.111916
O13   O     O_R   0.205708 0.592716 0.329559 -0.343300
O14   O     O_R   0.102417 0.465274 0.315798 -0.336580

loop_
_geom_bond_atom_site_label_1
_geom_bond_atom_site_label_2
_geom_bond_distance
_ccdc_geom_bond_type
C7    C11   1.542067 S    
C32   C34   1.417742 A    
C30   C31   1.404134 A    
C3    C22   1.465268 S    
Cu1   Cu2   2.663218 S    
C28   C29   1.404866 A    
C23   C24   1.394615 A    
Cu1   O7    1.977092 S    
C18   I4    2.144885 S    
C16   N1    1.411457 S    
C29   H16   1.077271 S    
C13   C18   1.424218 A    
C8    N9    1.471425 S    
C19   C20   1.388728 A    
H3    C7    1.112390 S    
O4    C2    1.290979 A    
O7    C4    1.288614 A    
N8    O12   1.301060 A    
C32   N5    1.441349 S    
N3    C29   1.361749 A    
C30   H14   1.082302 S    
C11   I2    2.157912 S    
C5    C6    1.543197 S    
C17   C18   1.410462 A    
C20   H8    1.083629 S    
N3    C25   1.365279 A    
O5    C3    1.290900 A    
C21   C24   1.397988 A    
C33   H17   1.081843 S    
N7    O9    1.301697 A    
C5    C9    1.574979 S    
O3    Cu1   1.977280 S    
C34   N8    1.438757 S    
C23   H10   1.083408 S    
C16   C17   1.402627 A    
C24   H11   1.083394 S    
C7    C9    1.551655 S    
C5    I1    2.181485 S    
C26   C27   1.421145 A    
O3    C2    1.280722 A    
N1    N2    1.245684 D    
N8    O11   1.301763 A    
C25   C26   1.406963 A    
N4    N5    1.251917 D    
C7    H7    1.112503 S    
C31   N6    1.362266 A    
O1    C1    1.290989 A    
C1    C13   1.481849 S    
C26   I6    2.126676 S    
C14   C15   1.387252 A    
Cu2   O8    1.977281 S    
C6    H2    1.111821 S    
C31   H13   1.081831 S    
C12   N7    1.471823 S    
C27   N4    1.439286 S    
C17   I3    2.142875 S    
O8    C4    1.286974 A    
N6    C33   1.360314 A    
N9    O13   1.301233 A    
N9    O14   1.300490 A    
C8    C12   1.553783 S    
C30   C32   1.413155 A    
C22   C23   1.405115 A    
C8    H5    1.113971 S    
Cu1   N6    2.000563 S    
C27   C28   1.404661 A    
Cu1   O5    1.949240 S    
O1    Cu1   1.951603 S    
O2    Cu2   1.949240 S    
O6    C3    1.290391 A    
C15   I5    2.125456 S    
O4    Cu2   1.977092 S    
C10   C12   1.576788 S    
C14   H12   1.082942 S    
C6    C10   1.571496 S    
C15   C16   1.405545 A    
C19   C21   1.410520 A    
O2    C1    1.298293 A    
C10   C11   1.574147 S    
C21   N2    1.416586 S    
C28   H15   1.083024 S    
C13   C14   1.405348 A    
H4    C11   1.113891 S    
C2    C9    1.481527 S    
C6    I7    2.167447 S    
C4    C10   1.488326 S    
C20   C22   1.401751 A    
Cu2   O6    1.951603 S    
C33   C34   1.411788 A    
C12   H6    1.111103 S    
C8    C9    1.565820 S    
C19   H9    1.082799 S    
N7    O10   1.301044 A    
C25   H18   1.079430 S    
Cu2   N3    2.000237 S    
C5    H1    1.108685 S    
