data_mof_unit_64428.cif
_audit_creation_date              2012-12-10T17:27:31-0500
_audit_creation_method            fapswitch 2.2
_symmetry_space_group_name_H-M    P1
_symmetry_Int_Tables_number       1
_space_group_crystal_system       triclinic
_cell_length_a                    42.614657
_cell_length_b                    29.423894
_cell_length_c                    29.419558
_cell_angle_alpha                 90.000118
_cell_angle_beta                  133.877371
_cell_angle_gamma                 90.003401
_cell_volume                      26590.412582

loop_
_atom_site_label
_atom_site_type_symbol
_atom_type_description
_atom_site_fract_x
_atom_site_fract_y
_atom_site_fract_z
_atom_type_partial_charge
C1    C     C_R   0.499969 0.585483 0.499986 0.827091
C2    C     C_1   0.835085 0.999650 0.336079 -0.068672
C3    C     C_3   0.760911 0.968320 0.232333 0.033166
C4    C     C_1   0.373295 0.500117 0.374035 -0.179750
C5    C     C_1   0.873298 0.999732 0.374032 -0.179690
C6    C     C_1   0.120523 0.499990 0.120234 -0.191826
C7    C     C_1   0.620525 0.000031 0.120268 -0.191824
C8    C     C_3   0.260971 0.505208 0.304255 -0.176980
C9    C     C_3   0.760975 0.990444 0.303557 -0.176995
C10   C     C_3   0.289071 0.500058 0.289652 0.117504
C11   C     C_3   0.789076 0.999771 0.289665 0.117523
C12   C     C_R   0.278588 0.572177 0.224207 0.114636
C13   C     C_1   0.158761 0.499969 0.158455 -0.060819
C14   C     C_R   0.270686 0.617901 0.227370 -0.141938
C15   C     C_R   0.287610 0.652706 0.217233 -0.131364
C16   C     C_R   0.312493 0.642194 0.203882 -0.107389
C17   C     C_R   0.320458 0.596840 0.200589 -0.129326
C18   C     C_R   0.303571 0.561963 0.210661 -0.145045
C19   C     C_R   0.278658 0.416932 0.242997 0.114776
C20   C     C_R   0.269693 0.374997 0.254876 -0.141426
C21   C     C_R   0.286663 0.334755 0.253857 -0.131335
C22   C     C_R   0.312662 0.336027 0.241017 -0.106949
C23   C     C_R   0.321687 0.377553 0.229091 -0.130711
C24   C     C_1   0.658764 0.000055 0.158507 -0.060807
C25   C     C_R   0.304740 0.417838 0.230006 -0.146907
C26   C     C_R   0.778818 0.086089 0.251622 0.115114
C27   C     C_R   0.770337 0.125680 0.268334 -0.141268
C28   C     C_R   0.787443 0.167471 0.271574 -0.131343
C29   C     C_R   0.813094 0.170093 0.258200 -0.106709
C30   C     C_R   0.821631 0.130922 0.241477 -0.131126
C31   C     C_R   0.804551 0.089101 0.238136 -0.147616
C32   C     C_R   0.778452 0.933462 0.217188 0.114470
C33   C     C_R   0.770180 0.886903 0.215190 -0.142003
C34   C     C_R   0.786994 0.854932 0.201590 -0.131314
C35   C     C_1   0.499939 0.636529 0.499923 -0.205137
C36   C     C_R   0.812137 0.869123 0.189896 -0.107521
C37   C     C_R   0.820475 0.915331 0.191731 -0.128954
C38   C     C_R   0.803696 0.947383 0.205272 -0.144302
C39   C     C_1   0.499919 0.363471 0.499901 -0.205215
C40   C     C_1   0.999906 0.136529 0.499889 -0.205308
C41   C     C_1   0.999948 0.863471 0.499933 -0.205147
C42   C     C_1   0.499921 0.678850 0.499894 0.002660
C43   C     C_1   0.499896 0.321150 0.499867 0.002426
C44   C     C_1   0.999878 0.178850 0.499848 0.002204
C45   C     C_R   0.499959 0.414517 0.499976 0.827254
C46   C     C_1   0.999934 0.821150 0.499909 0.002729
C47   C     C_1   0.499914 0.729015 0.499888 0.003355
C48   C     C_1   0.499890 0.270986 0.499861 0.002794
C49   C     C_1   0.999869 0.229014 0.499840 0.002423
C50   C     C_1   0.999929 0.770985 0.499906 0.003558
C51   C     C_1   0.499917 0.771336 0.499901 0.002987
C52   C     C_1   0.499901 0.228665 0.499880 0.002414
C53   C     C_1   0.999880 0.271335 0.499860 0.002098
C54   C     C_1   0.999932 0.728664 0.499918 0.003208
C55   C     C_1   0.499929 0.821501 0.499928 0.002349
C56   C     C_R   0.999954 0.085483 0.499971 0.827272
C57   C     C_1   0.499924 0.178499 0.499919 0.001953
C58   C     C_1   0.999908 0.321500 0.499903 0.001775
C59   C     C_1   0.999942 0.678499 0.499942 0.002518
C60   C     C_1   0.499941 0.863823 0.499953 -0.199811
C61   C     C_1   0.499944 0.136177 0.499954 -0.200062
C62   C     C_1   0.999933 0.363823 0.499943 -0.200151
C63   C     C_1   0.999952 0.636177 0.499964 -0.199693
C64   C     C_R   0.418268 0.500052 0.418499 0.870428
C65   C     C_R   0.918269 0.999899 0.418499 0.870290
C66   C     C_1   0.635085 0.499999 0.634688 -0.204395
C67   C     C_R   0.999973 0.914517 0.499990 0.826931
C68   C     C_1   0.135085 0.999999 0.634688 -0.204383
C69   C     C_1   0.676567 0.499998 0.676155 0.012924
C70   C     C_1   0.176567 0.999998 0.676155 0.012934
C71   C     C_1   0.726138 0.499997 0.725803 0.001336
C72   C     C_1   0.226138 0.999997 0.725803 0.001345
C73   C     C_1   0.767621 0.499997 0.767378 0.001344
C74   C     C_1   0.267621 0.999997 0.767378 0.001352
C75   C     C_1   0.817192 0.499996 0.817071 0.012984
C76   C     C_1   0.317192 0.999996 0.817071 0.012990
C77   C     C_1   0.858674 0.499996 0.858654 -0.204578
C78   C     C_3   0.204716 0.499967 0.204572 0.175060
C79   C     C_1   0.358674 0.999996 0.858654 -0.204573
C80   C     C_R   0.994840 0.500000 0.080446 0.826230
C81   C     C_R   0.494840 1.000000 0.080446 0.826207
C82   C     C_R   0.075513 0.500000 0.075329 0.867509
C83   C     C_R   0.575514 0.000006 0.075338 0.867487
C84   C     C_R   0.993224 0.500000 0.907790 0.825325
C85   C     C_R   0.493223 1.000000 0.907790 0.825330
C86   C     C_R   0.909164 0.499998 0.909249 0.811403
C87   C     C_R   0.409164 0.999998 0.909249 0.811399
C88   C     C_R   0.584597 0.500000 0.584464 0.810925
C89   C     C_3   0.704721 0.000022 0.204627 0.175083
C90   C     C_R   0.084597 1.000000 0.584464 0.810925
C91   C     C_R   0.499102 0.000000 0.414045 0.815971
C92   C     C_R   0.999102 0.500000 0.414045 0.815984
C93   C     C_R   0.499955 0.914870 0.499980 0.815997
C94   C     C_R   0.499957 0.085130 0.499982 0.815930
C95   C     C_R   0.999954 0.414870 0.499979 0.815905
C96   C     C_R   0.999958 0.585130 0.499984 0.816017
C97   C     C_R   0.500743 1.000000 0.585882 0.815993
C98   C     C_R   0.000743 0.500000 0.585882 0.815973
C99   C     C_1   0.995597 0.500000 0.132239 -0.206707
C100  C     C_3   0.232472 0.494786 0.189378 -0.235146
C101  C     C_1   0.495597 0.000000 0.132239 -0.206724
C102  C     C_1   0.996238 0.500000 0.175197 0.002019
C103  C     C_1   0.496238 1.000000 0.175197 0.001984
C104  C     C_1   0.996995 0.500000 0.226108 0.003506
C105  C     C_1   0.496995 1.000000 0.226108 0.003462
C106  C     C_1   0.497614 1.000000 0.269043 0.003214
C107  C     C_1   0.997614 0.500000 0.269043 0.003265
C108  C     C_1   0.498295 1.000000 0.319880 0.002311
C109  C     C_1   0.998295 0.500000 0.319880 0.002366
C110  C     C_1   0.498771 1.000000 0.362674 -0.200091
C111  C     C_3   0.732479 0.009408 0.190153 -0.235189
C112  C     C_1   0.998771 0.500000 0.362674 -0.200038
C113  C     C_1   0.994222 0.500000 0.857726 -0.205531
C114  C     C_1   0.494222 1.000000 0.857726 -0.205530
C115  C     C_3   0.232219 0.539807 0.249450 -0.183494
C116  C     C_3   0.232247 0.465401 0.258456 -0.183248
C117  C     C_3   0.732307 0.031777 0.261857 -0.183276
C118  C     C_3   0.732168 0.958627 0.245401 -0.183456
C119  C     C_1   0.995375 0.500000 0.816560 0.003088
C120  C     C_1   0.495375 1.000000 0.816559 0.003103
C121  C     C_1   0.996901 0.500000 0.767923 0.004227
C122  C     C_1   0.335082 0.500139 0.336083 -0.068743
C123  C     C_1   0.496901 1.000000 0.767923 0.004245
C124  C     C_1   0.498189 1.000000 0.726897 0.003966
C125  C     C_1   0.998189 0.500000 0.726897 0.003950
C126  C     C_1   0.499588 1.000000 0.678129 0.003291
C127  C     C_1   0.999588 0.500000 0.678129 0.003277
C128  C     C_1   0.500463 1.000000 0.636676 -0.199536
C129  C     C_1   0.000463 0.500000 0.636676 -0.199544
C130  C     C_3   0.260960 0.534276 0.235633 0.033333
C131  C     C_3   0.260993 0.460654 0.244544 0.033678
C132  C     C_3   0.761054 0.040701 0.248620 0.033794
Cu1   Cu    Cu3+1 0.500480 0.500000 0.542990 0.960398
Cu2   Cu    Cu3+1 0.958020 0.500000 0.458050 0.958599
Cu3   Cu    Cu3+1 0.541920 1.000000 0.541950 0.960604
Cu4   Cu    Cu3+1 0.041920 0.500000 0.541950 0.960646
Cu5   Cu    Cu3+1 0.000480 1.000000 0.542990 0.960429
Cu6   Cu    Cu3+1 0.499450 0.500000 0.457010 0.954078
Cu7   Cu    Cu3+1 0.999450 1.000000 0.457010 0.954266
Cu8   Cu    Cu3+1 0.993800 0.542460 0.993900 0.958666
Cu9   Cu    Cu3+1 0.993800 0.457540 0.993900 0.958855
Cu10  Cu    Cu3+1 0.493800 0.042460 0.993900 0.958994
Cu11  Cu    Cu3+1 0.493800 0.957540 0.993900 0.958577
Cu12  Cu    Cu3+1 0.458020 0.000000 0.458050 0.958551
H1    H     H_    0.218409 0.571514 0.250059 0.128416
H2    H     H_    0.281469 0.687857 0.219810 0.130610
H3    H     H_    0.325592 0.669175 0.196098 0.127072
H4    H     H_    0.339733 0.588691 0.190241 0.129574
H5    H     H_    0.310029 0.527084 0.207930 0.114859
H6    H     H_    0.249756 0.373158 0.265086 0.118267
H7    H     H_    0.279688 0.302564 0.263101 0.130590
H8    H     H_    0.325807 0.304856 0.240316 0.127561
H9    H     H_    0.341845 0.378547 0.219170 0.130225
H10   H     H_    0.312100 0.449657 0.220797 0.115623
H11   H     H_    0.750700 0.124486 0.279091 0.118223
H12   H     H_    0.218484 0.438047 0.266273 0.128093
H13   H     H_    0.780852 0.197839 0.284547 0.130583
H14   H     H_    0.826348 0.202454 0.260802 0.127790
H15   H     H_    0.841514 0.132947 0.231134 0.130403
H16   H     H_    0.811520 0.059141 0.225220 0.115397
H17   H     H_    0.750933 0.875083 0.224273 0.118324
H18   H     H_    0.780564 0.819118 0.200189 0.130564
H19   H     H_    0.825150 0.844330 0.179424 0.126886
H20   H     H_    0.839956 0.926330 0.182675 0.129371
H21   H     H_    0.810460 0.982968 0.206515 0.114865
H22   H     H_    0.718579 0.056878 0.272305 0.128003
H23   H     H_    0.718319 0.925664 0.242770 0.128465
H24   H     H_    0.219639 0.490554 0.141463 0.140444
H25   H     H_    0.719642 0.017113 0.142832 0.140471
H26   H     H_    0.273841 0.509436 0.352182 0.144642
H27   H     H_    0.773846 0.982746 0.350888 0.144598
H28   H     H_    0.251661 0.626879 0.237852 0.118335
O1    O     O_R   0.500410 0.561970 0.536310 -0.561618
O2    O     O_R   0.963790 0.500000 0.401850 -0.558991
O3    O     O_R   0.534640 1.000000 0.472710 -0.558619
O4    O     O_R   0.034640 0.500000 0.472710 -0.558616
O5    O     O_R   0.464530 0.938000 0.464560 -0.559188
O6    O     O_R   0.464530 0.062000 0.464560 -0.559394
O7    O     O_R   0.964530 0.438000 0.464560 -0.559489
O8    O     O_R   0.964530 0.562000 0.464560 -0.559097
O9    O     O_R   0.535390 0.937990 0.535420 -0.558370
O10   O     O_R   0.535390 0.062010 0.535420 -0.558308
O11   O     O_R   0.035390 0.437990 0.535420 -0.558266
O12   O     O_R   0.500410 0.438030 0.536310 -0.561190
O13   O     O_R   0.035390 0.562010 0.535420 -0.558396
O14   O     O_R   0.465290 1.000000 0.527290 -0.558744
O15   O     O_R   0.965290 0.500000 0.527290 -0.558755
O16   O     O_R   0.536150 1.000000 0.598150 -0.558349
O17   O     O_R   0.036150 0.500000 0.598150 -0.558348
O18   O     O_R   0.499540 0.561910 0.463710 -0.562243
O19   O     O_R   0.499540 0.438090 0.463710 -0.562948
O20   O     O_R   0.999540 0.061910 0.463710 -0.563139
O21   O     O_R   0.999540 0.938090 0.463710 -0.562043
O22   O     O_R   0.439190 0.500000 0.475090 -0.576917
O23   O     O_R   0.000410 0.061970 0.536310 -0.561050
O24   O     O_R   0.939190 0.000000 0.475090 -0.576885
O25   O     O_R   0.438320 0.500000 0.402480 -0.579915
O26   O     O_R   0.938320 1.000000 0.402480 -0.579770
O27   O     O_R   0.561610 0.500000 0.597520 -0.557253
O28   O     O_R   0.061610 1.000000 0.597520 -0.557262
O29   O     O_R   0.560740 0.500000 0.524910 -0.557799
O30   O     O_R   0.060740 1.000000 0.524910 -0.557785
O31   O     O_R   0.994560 0.535840 0.056620 -0.561843
O32   O     O_R   0.994560 0.464160 0.056620 -0.561874
O33   O     O_R   0.494560 0.035840 0.056620 -0.561892
O34   O     O_R   0.000410 0.938030 0.536310 -0.561732
O35   O     O_R   0.494560 0.964160 0.056620 -0.561818
O36   O     O_R   0.055010 0.535850 0.055100 -0.577500
O37   O     O_R   0.055010 0.464150 0.055100 -0.577359
O38   O     O_R   0.555010 0.035850 0.055100 -0.577244
O39   O     O_R   0.555010 0.964150 0.055100 -0.577591
O40   O     O_R   0.993040 0.535870 0.931160 -0.561666
O41   O     O_R   0.993040 0.464130 0.931160 -0.561645
O42   O     O_R   0.493040 0.035870 0.931160 -0.561609
O43   O     O_R   0.493040 0.964130 0.931160 -0.561707
O44   O     O_R   0.932590 0.535860 0.932690 -0.557244
O45   O     O_R   0.932590 0.464140 0.932690 -0.557212
O46   O     O_R   0.432590 0.035860 0.932690 -0.557205
O47   O     O_R   0.432590 0.964140 0.932690 -0.557246
O48   O     O_R   0.463790 1.000000 0.401850 -0.559017

loop_
_geom_bond_atom_site_label_1
_geom_bond_atom_site_label_2
_ccdc_geom_bond_type
C44   C49   S    
C58   C62   T    
C38   H21   S    
C7    C83   S    
C10   C130  S    
Cu4   O4    S    
C84   C113  S    
C6    C82   S    
Cu4   O13   S    
C97   O16   A    
C115  H1    S    
C9    C117  S    
Cu6   O19   S    
C76   C79   T    
C11   C132  S    
C56   O20   A    
Cu7   O26   S    
C123  C124  T    
C41   C67   S    
Cu12  O14   S    
C92   O4    A    
Cu5   Cu7   S    
C1    O1    A    
C26   C27   A    
C98   O15   A    
C12   C130  S    
C16   H3    S    
C88   O27   A    
C81   O33   A    
C28   C29   A    
C117  C132  S    
C37   C38   A    
Cu12  O48   S    
C85   O43   A    
C66   C88   S    
C30   C31   A    
Cu6   O29   S    
C100  C130  S    
Cu10  O33   S    
C66   C69   T    
C90   O28   A    
C7    C24   T    
C118  H23   S    
C98   C129  S    
C94   O6    A    
C87   O46   A    
C91   O48   A    
C69   C71   S    
C35   C42   T    
C10   C131  S    
Cu10  O46   S    
C8    C115  S    
Cu9   O45   S    
C21   C22   A    
C113  C119  T    
C93   O9    A    
C45   O19   A    
Cu10  Cu11  S    
Cu11  O35   S    
C78   C115  S    
C3    C111  S    
C16   C17   A    
C40   C56   S    
Cu1   O22   S    
C64   O22   A    
C36   H19   S    
C68   C90   S    
C41   C46   T    
Cu9   O32   S    
Cu11  O39   S    
C87   O47   A    
Cu2   O7    S    
C18   H5    S    
C43   C48   S    
C51   C55   S    
C31   H16   S    
C120  C123  S    
C96   O13   A    
C81   O35   A    
C65   O24   A    
C60   C93   S    
C116  C131  S    
Cu5   O24   S    
Cu1   Cu6   S    
Cu1   O27   S    
C55   C60   T    
C24   C89   S    
C27   H11   S    
C9    C118  S    
C73   C75   S    
C4    C64   S    
Cu6   O18   S    
Cu11  O43   S    
C98   O17   A    
C2    C11   S    
Cu8   O36   S    
C82   O36   A    
C8    H26   S    
C33   C34   A    
Cu5   O34   S    
C119  C121  S    
C19   C131  S    
C30   H15   S    
Cu5   O23   S    
C22   H8    S    
C100  C131  S    
C20   H6    S    
C91   O3    A    
Cu8   O40   S    
C17   H4    S    
C3    C11   S    
C97   O14   A    
Cu10  O42   S    
C72   C74   T    
Cu7   O20   S    
Cu8   O31   S    
Cu9   O41   S    
C71   C73   T    
C1    C35   S    
C93   O5    A    
C61   C94   S    
C92   C112  S    
C47   C51   T    
C34   H18   S    
C63   C96   S    
C96   O8    A    
C111  H25   S    
C86   O45   A    
Cu3   O3    S    
C33   H17   S    
C127  C129  T    
C121  C125  T    
C29   C30   A    
C3    C118  S    
C15   H2    S    
C56   O23   A    
C9    C11   S    
Cu1   O12   S    
Cu5   O28   S    
C40   C44   T    
C117  H22   S    
C99   C102  T    
C5    C65   S    
C17   C18   A    
C4    C122  T    
C103  C105  S    
C50   C54   T    
Cu8   Cu9   S    
C102  C104  S    
C75   C77   T    
C79   C87   S    
C67   O34   A    
C74   C76   S    
C37   H20   S    
C14   H28   S    
Cu3   Cu12  S    
C89   C117  S    
C77   C86   S    
C32   C38   A    
C23   H9    S    
C80   C99   S    
C78   C100  S    
C88   O29   A    
C109  C112  T    
C2    C5    T    
Cu12  O6    S    
Cu3   O9    S    
C20   C21   A    
Cu9   O37   S    
Cu3   O16   S    
C26   C132  S    
C84   O41   A    
C91   C110  S    
C124  C126  S    
C95   O7    A    
C114  C120  T    
C89   C111  S    
C13   C78   S    
C85   C114  S    
C126  C128  T    
Cu2   O2    S    
C62   C95   S    
C25   H10   S    
C22   C23   A    
C26   C31   A    
Cu2   O15   S    
C8    C10   S    
C78   C116  S    
C12   C14   A    
C10   C122  S    
Cu7   O30   S    
C54   C59   S    
C39   C43   T    
C53   C58   S    
C84   O40   A    
C57   C61   T    
C29   H14   S    
C105  C106  T    
C46   C50   S    
C8    C116  S    
C59   C63   T    
C39   C45   S    
Cu4   O17   S    
C100  H24   S    
C92   O2    A    
C32   C33   A    
C82   O37   A    
C19   C20   A    
C67   O21   A    
C85   O42   A    
C1    O18   A    
C6    C13   T    
C95   O11   A    
C107  C109  S    
C108  C110  T    
C106  C108  S    
C36   C37   A    
C49   C53   T    
Cu4   O11   S    
C28   H13   S    
Cu2   O8    S    
Cu2   Cu4   S    
C34   C36   A    
C42   C47   S    
C21   H7    S    
C3    C32   S    
C19   C25   A    
C86   O44   A    
C89   C118  S    
C116  H12   S    
C83   O38   A    
C9    H27   S    
C52   C57   S    
Cu8   O44   S    
Cu11  O47   S    
C65   O26   A    
C80   O31   A    
Cu6   O25   S    
Cu7   O21   S    
C111  C132  S    
C48   C52   T    
C23   C25   A    
Cu12  O5    S    
C101  C103  T    
C12   C18   A    
C27   C28   A    
C125  C127  S    
C68   C70   T    
Cu10  O38   S    
C14   C15   A    
C81   C101  S    
C70   C72   S    
C94   O10   A    
Cu3   O10   S    
C97   C128  S    
C64   O25   A    
Cu1   O1    S    
C104  C107  T    
C83   O39   A    
C15   C16   A    
C45   O12   A    
C90   O30   A    
C115  C130  S    
C80   O32   A    
