data_mof_unit_67914.cif
_audit_creation_date              2013-03-05T16:11:43-0500
_audit_creation_method            fapswitch 2.2
_symmetry_space_group_name_H-M    P1
_symmetry_Int_Tables_number       1
_space_group_crystal_system       triclinic
_cell_length_a                    11.252419
_cell_length_b                    10.151335
_cell_length_c                    10.963539
_cell_angle_alpha                 90.0416
_cell_angle_beta                  95.783315
_cell_angle_gamma                 89.613298
_cell_volume                      1245.9303547

loop_
_atom_site_label
_atom_site_type_symbol
_atom_site_description
_atom_site_fract_x
_atom_site_fract_y
_atom_site_fract_z
_atom_type_partial_charge
O1    O     O_R   0.316770 0.614620 0.499990 -0.584815
O2    O     O_R   0.683230 0.385380 0.500010 -0.548885
O3    O     O_R   0.683230 0.614620 0.500010 -0.581208
O4    O     O_R   0.316770 0.385380 0.499990 -0.542229
C1    C     C_R   0.872384 0.498696 0.500759 -0.415776
C2    C     C_R   0.125762 0.499460 0.497089 -0.429867
C3    C     C_R   0.259798 0.499971 0.498844 0.929206
C4    C     C_R   0.739709 0.499354 0.501327 0.930785
O5    O     O_R   0.499970 0.614650 0.313950 -0.580585
O6    O     O_R   0.500030 0.385350 0.686050 -0.548977
O7    O     O_R   0.500030 0.614650 0.686050 -0.565075
O8    O     O_R   0.499970 0.385350 0.313950 -0.543354
C5    C     C_R   0.510899 0.501681 0.259590 0.903350
C6    C     C_R   0.493587 0.501425 0.741228 0.916870
Zn1   Zn    Zn3+2 0.500000 0.653120 0.500000 1.084010
Zn2   Zn    Zn3+2 0.500000 0.346880 0.500000 1.116909
N1    N     N_R   0.500000 0.857200 0.500000 -0.231045
N2    N     N_R   0.500000 0.142800 0.500000 -0.197028
C7    C     C_3   0.453968 0.616672 0.041671 0.087059
C8    C     C_3   0.562837 0.408760 0.960934 0.129155
C9    C     C_3   0.553532 0.621358 0.957045 0.099367
C10   C     C_3   0.460787 0.404945 0.042083 0.145912
C11   C     C_3   0.389711 0.507665 0.961282 0.351189
C12   C     C_3   0.624811 0.518466 0.041450 0.361646
C13   C     C_3   0.491442 0.509190 0.876175 -0.371885
C14   C     C_3   0.521593 0.510898 0.125293 -0.378300
C15   C     C_R   0.579451 0.067695 0.577791 0.208226
C16   C     C_R   0.412323 0.928804 0.433808 0.192639
C17   C     C_R   0.421851 0.069230 0.420931 0.214761
C18   C     C_R   0.588048 0.927131 0.565098 0.229597
C19   C     C_R   0.059611 0.381041 0.490138 0.343234
C20   C     C_R   0.933567 0.616095 0.478415 0.338552
C21   C     C_R   0.941759 0.382442 0.520649 0.339468
C22   C     C_R   0.059036 0.618506 0.496078 0.367845
N3    N     N_R   0.651934 0.125348 0.678776 0.245109
O9    O     O_R   0.675330 0.249222 0.681591 -0.379251
O10   O     O_R   0.691237 0.054375 0.773545 -0.273157
N4    N     N_R   0.306852 0.864715 0.378811 0.278197
O11   O     O_R   0.313416 0.761417 0.310357 -0.308427
O12   O     O_R   0.203740 0.922307 0.380835 -0.392574
N5    N     N_R   0.354811 0.127629 0.316204 0.239500
O13   O     O_R   0.324953 0.250394 0.314342 -0.386823
O14   O     O_R   0.322897 0.056946 0.219352 -0.258246
N6    N     N_R   0.693792 0.860478 0.616831 0.277213
O15   O     O_R   0.686971 0.766153 0.695272 -0.336015
O16   O     O_R   0.797698 0.910970 0.604452 -0.417788
O17   O     O_3   0.264386 0.496749 0.936499 -0.616358
C23   C     C_3   0.210459 0.547680 0.038659 0.178405
H1    H     H_    0.168300 0.643605 0.014161 0.175665
H2    H     H_    0.272066 0.560450 0.123715 0.162693
C24   C     C_3   0.115889 0.459967 0.079691 -0.426400
H3    H     H_    0.042337 0.455687 0.007471 0.236476
H4    H     H_    0.151702 0.359525 0.097850 0.278295
C25   C     C_3   0.074185 0.519761 0.195669 -0.971915
H5    H     H_    0.147116 0.509518 0.269947 0.281663
H6    H     H_    0.992388 0.470303 0.220078 0.268547
H7    H     H_    0.058320 0.627282 0.184717 0.275522
O18   O     O_3   0.747436 0.514595 0.083155 -0.635014
C26   C     C_3   0.815113 0.580050 0.000028 0.062335
H8    H     H_    0.901740 0.603282 0.048800 0.162783
H9    H     H_    0.782180 0.677782 0.972675 0.198057
C27   C     C_3   0.833140 0.498337 0.886326 -0.313081
H10   H     H_    0.869492 0.400834 0.915848 0.244945
H11   H     H_    0.746920 0.482966 0.829974 0.231277
C28   C     C_3   0.918418 0.567350 0.807599 -0.969898
H12   H     H_    0.865867 0.624013 0.734882 0.312855
H13   H     H_    0.975248 0.495852 0.763999 0.246369
H14   H     H_    0.979257 0.634795 0.862661 0.267909
N7    N     N_R   0.407461 0.743323 0.081105 0.281238
O19   O     O_R   0.326181 0.804298 0.009419 -0.349989
O20   O     O_R   0.475717 0.814556 0.157258 -0.280582
N8    N     N_R   0.610583 0.283242 0.924344 0.283191
O21   O     O_R   0.716391 0.245611 0.969660 -0.365007
O22   O     O_R   0.535193 0.195275 0.878564 -0.234132
N9    N     N_R   0.580000 0.755157 0.916195 0.282861
O23   O     O_R   0.641143 0.833588 0.992096 -0.335759
O24   O     O_R   0.503992 0.810714 0.834463 -0.273213
N10   N     N_R   0.420415 0.277502 0.080560 0.299555
O25   O     O_R   0.319794 0.231684 0.030416 -0.331818
O26   O     O_R   0.499307 0.195993 0.133311 -0.273336
O27   O     O_3   0.110047 0.259780 0.468692 -0.595246
C29   C     C_3   0.082247 0.223375 0.344072 0.197869
H15   H     H_    0.129523 0.130929 0.330157 0.248621
H16   H     H_    0.118612 0.294418 0.283713 0.177164
C30   C     C_3   0.950467 0.197567 0.300576 -0.427815
H17   H     H_    0.916603 0.120659 0.359271 0.277449
H18   H     H_    0.895131 0.287775 0.305165 0.246124
C31   C     C_3   0.937816 0.152879 0.166743 -0.852317
H19   H     H_    0.959571 0.235119 0.106572 0.276873
H20   H     H_    0.844707 0.122914 0.139194 0.317620
H21   H     H_    0.997870 0.068085 0.152781 0.270179
O28   O     O_3   0.873284 0.731232 0.442456 -0.526130
C32   C     C_3   0.831878 0.722532 0.316204 0.198450
H22   H     H_    0.742792 0.675772 0.302318 0.168458
H23   H     H_    0.891461 0.663137 0.263827 0.084947
C33   C     C_3   0.824984 0.859030 0.258602 -0.368716
H24   H     H_    0.911698 0.908695 0.281817 0.248579
H25   H     H_    0.811937 0.848285 0.157528 0.216691
C34   C     C_3   0.722789 0.941948 0.300686 -0.631397
H26   H     H_    0.643570 0.880606 0.311193 0.268613
H27   H     H_    0.695974 0.020085 0.232661 0.277229
H28   H     H_    0.751167 0.989910 0.389299 0.254415
O29   O     O_3   0.893003 0.263110 0.548703 -0.594635
C35   C     C_3   0.921244 0.233381 0.674771 0.189813
H29   H     H_    0.881986 0.136047 0.690090 0.241675
H30   H     H_    0.877782 0.305207 0.731142 0.179231
C36   C     C_3   0.054325 0.221328 0.722237 -0.428923
H31   H     H_    0.098785 0.145739 0.669592 0.274901
H32   H     H_    0.101554 0.316153 0.715590 0.243205
C37   C     C_3   0.066424 0.183399 0.857067 -0.847970
H33   H     H_    0.045077 0.268850 0.912265 0.254316
H34   H     H_    0.158961 0.151236 0.885512 0.331165
H35   H     H_    0.003357 0.104588 0.875818 0.272164
O30   O     O_3   0.114072 0.739228 0.499347 -0.527606
C38   C     C_3   0.158890 0.769194 0.621267 0.193958
H36   H     H_    0.237407 0.834488 0.618604 0.189186
H37   H     H_    0.191554 0.680506 0.675334 0.119243
C39   C     C_3   0.065077 0.842299 0.686059 -0.366084
H38   H     H_    0.042904 0.937480 0.639854 0.267956
H39   H     H_    0.982909 0.783592 0.680818 0.276686
C40   C     C_3   0.109616 0.862958 0.819791 -0.870582
H40   H     H_    0.147108 0.769789 0.857998 0.277150
H41   H     H_    0.034666 0.891179 0.872825 0.271966
H42   H     H_    0.181376 0.937550 0.828356 0.312901

loop_
_geom_bond_atom_site_label_1
_geom_bond_atom_site_label_2
_geom_bond_distance
_ccdc_geom_bond_type
C32   H22   1.108570 S    
C36   H32   1.108671 S    
N5    O13   1.288172 A    
N3    O9    1.286201 A    
C35   H30   1.099178 S    
O30   C38   1.413920 S    
C30   H17   1.105881 S    
C16   C17   1.438377 A    
C7    C9    1.525940 S    
C12   C14   1.554446 S    
N4    O11   1.295105 A    
O7    C6    1.305098 A    
N10   O26   1.301723 A    
C28   H13   1.104101 S    
C8    C13   1.545374 S    
C38   H36   1.110814 S    
C33   C34   1.528739 S    
N7    O20   1.298941 A    
C7    C14   1.556372 S    
O5    C5    1.302806 A    
C37   H33   1.096405 S    
C40   H42   1.107724 S    
C27   H11   1.108338 S    
C39   H38   1.106534 S    
O7    Zn1   2.077057 S    
C23   C24   1.495803 S    
O8    Zn2   2.077058 S    
C38   H37   1.117765 S    
C1    C21   1.415370 A    
C36   H31   1.106609 S    
C19   C21   1.399948 A    
O1    Zn1   2.101076 S    
O2    Zn2   2.101075 S    
C1    C20   1.414133 A    
C17   N5    1.435004 S    
C38   C39   1.519683 S    
C23   H2    1.112522 S    
C2    C19   1.416138 A    
C26   H8    1.090683 S    
C32   H23   1.102014 S    
C21   O29   1.380780 S    
C15   C18   1.437144 A    
N1    C18   1.364245 A    
N5    O14   1.302619 A    
C18   N6    1.431425 S    
O4    C3    1.323862 A    
C35   H29   1.104860 S    
N6    O16   1.299345 A    
O27   C29   1.419798 S    
C39   H39   1.100011 S    
C30   H18   1.107859 S    
C25   H6    1.107660 S    
C26   H9    1.088406 S    
C11   O17   1.414088 S    
C24   H3    1.087275 S    
O17   C23   1.421935 S    
C8    C12   1.546209 S    
C10   N10   1.450989 S    
N8    O22   1.301052 A    
O3    C4    1.327176 A    
O6    C6    1.329016 A    
N10   O25   1.296844 A    
C15   N3    1.434237 S    
O18   C26   1.414069 S    
C2    C22   1.417879 A    
C33   H25   1.108448 S    
C24   H4    1.104645 S    
C39   C40   1.515824 S    
C20   C22   1.405956 A    
O4    Zn2   2.095893 S    
C7    C11   1.550812 S    
N9    O23   1.300297 A    
C27   H10   1.104572 S    
C34   H26   1.106318 S    
C31   H21   1.110773 S    
C16   N4    1.435603 S    
C28   H14   1.106469 S    
C33   H24   1.107900 S    
N2    C17   1.391690 A    
C31   H19   1.108239 S    
N9    O24   1.300869 A    
C37   H35   1.105994 S    
C40   H40   1.098881 S    
Zn2   N2    2.071684 S    
C23   H1    1.101763 S    
C34   H27   1.108468 S    
C8    C10   1.522550 S    
C28   H12   1.103261 S    
C32   C33   1.521439 S    
C29   H16   1.088443 S    
C36   C37   1.520349 S    
C5    C14   1.492372 S    
C7    N7    1.466094 S    
O3    Zn1   2.095892 S    
N6    O15   1.295314 A    
C30   C31   1.528653 S    
Zn1   N1    2.071684 S    
C9    C13   1.566910 S    
C25   H5    1.100782 S    
C26   C27   1.526545 S    
C27   C28   1.527564 S    
N3    O10   1.303213 A    
O1    C3    1.331950 A    
N1    C16   1.369351 A    
O2    C4    1.323167 A    
N2    C15   1.394994 A    
C31   H20   1.105362 S    
N8    O21   1.298154 A    
C1    C4    1.493521 S    
C2    C3    1.506454 S    
C22   O30   1.375620 S    
C29   C30   1.535396 S    
C9    N9    1.472175 S    
C19   O27   1.381908 S    
C24   C25   1.523401 S    
O5    Zn1   2.076502 S    
O6    Zn2   2.076501 S    
N4    O12   1.297875 A    
C20   O28   1.384817 S    
O28   C32   1.418178 S    
C11   C13   1.548139 S    
C6    C13   1.484157 S    
N7    O19   1.298269 A    
C37   H34   1.103729 S    
C40   H41   1.107586 S    
C34   H28   1.105324 S    
O8    C5    1.335147 A    
C12   O18   1.409506 S    
C29   H15   1.093783 S    
C10   C14   1.529693 S    
C9    C12   1.559200 S    
O29   C35   1.418872 S    
C10   C11   1.535904 S    
C8    N8    1.451395 S    
C35   C36   1.539087 S    
C25   H7    1.109436 S    
