data_mof_unit_43120.cif
_audit_creation_date              2012-12-10T17:19:57-0500
_audit_creation_method            fapswitch 2.2
_symmetry_space_group_name_H-M    P1
_symmetry_Int_Tables_number       1
_space_group_crystal_system       triclinic
_cell_length_a                    9.576579
_cell_length_b                    10.904738
_cell_length_c                    15.465418
_cell_angle_alpha                 87.780076
_cell_angle_beta                  74.285966
_cell_angle_gamma                 91.709603
_cell_volume                      1552.16044515

loop_
_atom_site_label
_atom_site_type_symbol
_atom_type_description
_atom_site_fract_x
_atom_site_fract_y
_atom_site_fract_z
_atom_type_partial_charge
C1    C     C_R   0.999961 0.262661 0.495017 0.806451
C2    C     C_R   0.673254 0.487175 0.907850 0.079635
C3    C     C_R   0.765168 0.432003 0.954944 0.129046
C4    C     C_R   0.522546 0.492834 0.952190 0.070197
C5    C     C_R   0.473497 0.471660 0.046992 0.065319
C6    C     C_R   0.572263 0.426984 0.092972 -0.216631
C7    C     C_R   0.714026 0.403702 0.046952 -0.227657
C8    C     C_R   0.418082 0.507241 0.903710 -0.223493
C9    C     C_R   0.272021 0.517230 0.947387 -0.242159
C10   C     C_R   0.224902 0.511692 0.040965 0.170977
C11   C     C_R   0.325408 0.489791 0.091794 0.093732
C12   C     C_R   0.918206 0.500413 0.672021 0.812855
C13   C     C_R   0.077789 0.526279 0.084420 -0.205386
C14   C     C_R   0.029203 0.520541 0.178006 -0.197084
C15   C     C_R   0.274760 0.489061 0.185841 -0.221725
C16   C     C_R   0.264847 0.133982 0.411624 -0.117625
C17   C     C_R   0.398787 0.083195 0.404804 -0.132553
C18   C     C_R   0.404416 0.968616 0.445591 -0.153547
C19   C     C_R   0.276391 0.899344 0.484348 -0.147892
C20   C     C_R   0.139272 0.944779 0.483797 0.113264
C21   C     C_R   0.134066 0.070278 0.460145 0.054952
C22   C     C_R   0.999445 0.128622 0.487328 -0.144997
C23   C     C_R   0.001717 0.737710 0.503056 0.811453
C24   C     C_R   0.868052 0.056059 0.517200 0.164015
C25   C     C_R   0.874711 0.929210 0.521663 -0.210717
C26   C     C_R   0.007289 0.872096 0.505794 -0.159036
C27   C     C_R   0.704157 0.656560 0.375472 -0.158939
C28   C     C_R   0.662338 0.730343 0.312549 -0.333599
C29   C     C_R   0.518048 0.731855 0.312283 0.002508
C30   C     C_R   0.415521 0.658795 0.376641 -0.165856
C31   C     C_R   0.454670 0.577687 0.439078 0.147317
C32   C     C_R   0.604301 0.577081 0.438777 0.212147
C33   C     C_R   0.545961 0.426470 0.558169 -0.077993
C34   C     C_R   0.081965 0.501102 0.327798 0.790806
C35   C     C_R   0.397987 0.426297 0.558019 -0.055160
C36   C     C_R   0.872291 0.490435 0.770624 -0.054049
C37   C     C_R   0.127958 0.502923 0.229137 -0.031443
C38   C     C_R   0.907122 0.404284 0.909298 -0.225751
C39   C     C_R   0.957895 0.428291 0.817023 -0.246839
C40   C     C_R   0.736307 0.532686 0.818024 0.107154
Cu1   Cu    Cu3+1 0.140660 0.499990 0.500010 0.923372
Cu2   Cu    Cu3+1 0.859340 0.500010 0.499990 0.925074
H1    H     H_    0.784269 0.363428 0.083794 0.147180
H2    H     H_    0.000471 0.542936 0.045981 0.146968
H3    H     H_    0.264962 0.223154 0.378445 0.148794
H4    H     H_    0.498160 0.134513 0.370490 0.128790
H5    H     H_    0.508312 0.932001 0.445520 0.144198
H6    H     H_    0.288437 0.813806 0.518044 0.163507
H7    H     H_    0.774049 0.874040 0.540357 0.169815
H8    H     H_    0.578287 0.366475 0.605969 0.137125
H9    H     H_    0.816240 0.666469 0.371442 0.214434
H10   H     H_    0.743487 0.788284 0.264610 0.155848
H11   H     H_    0.348987 0.481491 0.226876 0.152394
H12   H     H_    0.306284 0.671419 0.376775 0.236516
H13   H     H_    0.319690 0.365922 0.605532 0.136081
H14   H     H_    0.915276 0.532190 0.210161 0.159233
H15   H     H_    0.195736 0.529756 0.907583 0.153965
H16   H     H_    0.976551 0.358847 0.944321 0.148296
H17   H     H_    0.063835 0.397522 0.781809 0.158374
H18   H     H_    0.540793 0.400780 0.163712 0.141087
H19   H     H_    0.446750 0.505280 0.831401 0.164147
N1    N     N_R   0.648320 0.501210 0.499140 -0.196935
N2    N     N_R   0.352470 0.501290 0.499110 -0.197830
O1    O     O_R   0.118810 0.319640 0.500010 -0.586912
O2    O     O_R   0.881240 0.319660 0.500000 -0.571788
O3    O     O_R   0.055570 0.499980 0.629840 -0.585249
O4    O     O_R   0.818000 0.500010 0.629830 -0.574730
O5    O     O_R   0.118760 0.680340 0.500000 -0.612534
O6    O     O_R   0.881190 0.680360 0.499990 -0.600857
O7    O     O_R   0.182000 0.499990 0.370170 -0.606243
O8    O     O_R   0.944430 0.500020 0.370160 -0.602461
C41   C     C_3   0.718940 0.108761 0.545063 -0.825649
H20   H     H_    0.630954 0.036195 0.566610 0.209397
H21   H     H_    0.710402 0.167429 0.603187 0.233381
H22   H     H_    0.697811 0.162061 0.487614 0.244743
C42   C     C_2   0.475325 0.813019 0.245613 0.376445
H23   H     H_    0.556992 0.870836 0.197720 0.067828
O9    O     O_2   0.349094 0.816362 0.243125 -0.553548
C43   C     C_3   0.677722 0.643248 0.778655 -0.862537
H24   H     H_    0.620750 0.615767 0.728384 0.244779
H25   H     H_    0.603381 0.694189 0.831740 0.239048
H26   H     H_    0.768415 0.709383 0.744935 0.224758

loop_
_geom_bond_atom_site_label_1
_geom_bond_atom_site_label_2
_ccdc_geom_bond_type
C8    C9    A    
C14   H14   S    
C24   C25   A    
C16   C21   A    
C34   C37   S    
Cu1   Cu2   S    
C23   O6    A    
C19   C20   A    
C4    C8    A    
C18   H5    S    
C29   C42   S    
C30   H12   S    
C15   H11   S    
C28   C29   A    
C42   O9    D    
C5    C11   A    
C3    C7    A    
C30   C31   A    
C18   C19   A    
C23   C26   S    
C15   C37   A    
C38   H16   S    
C11   C15   A    
C3    C38   A    
C16   C17   A    
Cu2   O2    S    
C1    O2    A    
C7    H1    S    
C12   C36   S    
C9    C10   A    
Cu2   N1    S    
C8    H19   S    
C1    C22   S    
C21   C22   A    
C41   H22   S    
C27   H9    S    
Cu1   O5    S    
C38   C39   A    
C12   O4    A    
C35   H13   S    
C31   N2    A    
C36   C40   A    
C17   H4    S    
C41   H21   S    
C43   H25   S    
C19   H6    S    
C33   N1    A    
C25   C26   A    
C12   O3    A    
Cu2   O6    S    
C23   O5    A    
C2    C4    A    
C29   C30   A    
C6    H18   S    
C31   C32   A    
C39   H17   S    
C17   C18   A    
C40   C43   S    
C42   H23   S    
Cu1   O3    S    
Cu2   O4    S    
C22   C24   A    
Cu1   N2    S    
C1    O1    A    
C24   C41   S    
C34   O7    A    
C27   C32   A    
C36   C39   A    
C41   H20   S    
C10   C13   A    
C16   H3    S    
C43   H26   S    
C6    C7    A    
C2    C3    A    
C33   H8    S    
C32   N1    A    
C14   C37   A    
C28   H10   S    
C5    C6    A    
C20   C26   A    
Cu2   O8    S    
C33   C35   A    
C9    H15   S    
C25   H7    S    
C10   C11   A    
C43   H24   S    
C2    C40   A    
C4    C5    A    
C20   C21   A    
C27   C28   A    
C35   N2    A    
Cu1   O1    S    
C13   C14   A    
C34   O8    A    
C13   H2    S    
Cu1   O7    S    
