data_mof_unit_26849.cif
_audit_creation_date              2012-12-10T18:35:20-0500
_audit_creation_method            fapswitch 2.2
_symmetry_space_group_name_H-M    P1
_symmetry_Int_Tables_number       1
_space_group_crystal_system       triclinic
_cell_length_a                    14.947172
_cell_length_b                    15.452615
_cell_length_c                    16.799045
_cell_angle_alpha                 92.643946
_cell_angle_beta                  99.786834
_cell_angle_gamma                 97.163769
_cell_volume                      3784.80320677

loop_
_atom_site_label
_atom_site_type_symbol
_atom_type_description
_atom_site_fract_x
_atom_site_fract_y
_atom_site_fract_z
_atom_type_partial_charge
C1    C     C_R   0.557270 0.662470 0.511323 0.936896
C2    C     C_R   0.442835 0.337587 0.488825 0.898353
C3    C     C_R   0.592322 0.754061 0.505464 -0.081747
C4    C     C_R   0.407547 0.244579 0.477739 -0.083662
C5    C     C_R   0.700252 0.861080 0.457380 -0.012037
C6    C     C_R   0.281281 0.126240 0.459288 -0.009478
C7    C     C_R   0.677451 0.777564 0.483160 -0.250217
C8    C     C_R   0.313712 0.215659 0.468258 -0.232899
C9    C     C_R   0.532291 0.815339 0.506817 -0.151988
C10   C     C_R   0.468847 0.184470 0.474558 -0.181189
C11   C     C_R   0.545796 0.893516 0.469374 0.084647
C12   C     C_R   0.438095 0.095978 0.454148 0.100932
C13   C     C_R   0.633914 0.920195 0.450769 0.060726
C14   C     C_R   0.344242 0.065541 0.452863 0.058408
C15   C     C_R   0.474987 0.947294 0.453607 -0.003551
C16   C     C_R   0.500567 0.036460 0.442016 -0.008769
C17   C     C_R   0.587949 0.062447 0.420398 -0.087126
C18   C     C_R   0.379502 0.916392 0.447638 -0.026380
C19   C     C_R   0.653171 0.004754 0.426464 -0.235698
C20   C     C_R   0.316045 0.975688 0.444260 -0.225555
C21   C     C_R   0.159141 0.596401 0.351097 0.437207
C22   C     C_R   0.831882 0.363549 0.620038 0.449882
C23   C     C_R   0.512229 0.499940 0.349669 0.904091
C24   C     C_R   0.489496 0.504807 0.650419 0.892423
C25   C     C_R   0.249484 0.584832 0.381422 -0.095531
C26   C     C_R   0.744460 0.387278 0.599571 -0.093198
C27   C     C_R   0.208049 0.523181 0.498470 -0.043297
C28   C     C_R   0.793617 0.487420 0.508392 -0.024927
C29   C     C_R   0.114435 0.526100 0.468909 -0.095688
C30   C     C_R   0.883533 0.466133 0.524873 -0.096020
C31   C     C_R   0.090506 0.568044 0.396004 -0.062904
C32   C     C_R   0.903797 0.406052 0.585154 -0.079768
C33   C     C_R   0.044530 0.486858 0.508496 0.051448
C34   C     C_R   0.952843 0.502307 0.483064 0.049070
C35   C     C_R   0.932245 0.550048 0.414217 -0.298222
C36   C     C_R   0.063174 0.429160 0.569995 -0.308445
C37   C     C_R   0.998481 0.579071 0.368834 0.555179
C38   C     C_R   0.994797 0.389645 0.608419 0.545899
C39   C     C_R   0.526067 0.520231 0.268324 -0.113875
C40   C     C_R   0.484585 0.512515 0.735705 -0.104463
C41   C     C_R   0.481774 0.588092 0.233628 -0.160715
C42   C     C_R   0.512557 0.445439 0.783278 -0.204529
C43   C     C_R   0.495517 0.614605 0.158672 -0.130134
C44   C     C_R   0.504675 0.447782 0.864268 -0.131442
C45   C     C_R   0.554383 0.574229 0.117836 0.066984
C46   C     C_R   0.469101 0.517321 0.897839 0.078713
C47   C     C_R   0.603418 0.510514 0.153400 -0.194447
C48   C     C_R   0.440108 0.584140 0.851036 -0.193612
C49   C     C_R   0.589012 0.481530 0.228271 -0.030699
C50   C     C_R   0.448280 0.583388 0.769628 -0.030148
C51   C     C_2   0.543780 0.578908 0.029908 0.369275
C52   C     C_2   0.472738 0.525524 0.985361 0.370997
H1    H     H_    0.435602 0.620487 0.264218 0.165796
H2    H     H_    0.539858 0.390981 0.757463 0.150100
H3    H     H_    0.773181 0.536331 0.468152 0.136998
H4    H     H_    0.232370 0.496751 0.555066 0.142827
H5    H     H_    0.688961 0.357493 0.627209 0.148461
H6    H     H_    0.302115 0.600218 0.345620 0.182252
H7    H     H_    0.863984 0.563098 0.391252 0.153837
H8    H     H_    0.129935 0.409217 0.587135 0.156798
H9    H     H_    0.646289 0.477940 0.119036 0.167803
H10   H     H_    0.415079 0.638572 0.879376 0.167895
H11   H     H_    0.528167 0.396703 0.901325 0.150541
H12   H     H_    0.456180 0.662763 0.130230 0.133376
H13   H     H_    0.719469 0.027147 0.411864 0.219873
H14   H     H_    0.244033 0.950364 0.435338 0.209945
H15   H     H_    0.541396 0.207215 0.489291 0.150349
H16   H     H_    0.472966 0.799167 0.534724 0.183456
H17   H     H_    0.266071 0.262542 0.472029 0.185343
H18   H     H_    0.724274 0.729490 0.481692 0.178566
N1    N     N_R   0.271750 0.551950 0.454510 -0.128743
N2    N     N_R   0.728250 0.448050 0.545490 -0.125192
O1    O     O_R   0.615140 0.606020 0.522930 -0.629252
O2    O     O_R   0.384860 0.393980 0.477070 -0.613438
O3    O     O_R   0.468580 0.639400 0.493740 -0.563506
O4    O     O_R   0.531420 0.360600 0.506260 -0.609590
O5    O     O_R   0.581950 0.481350 0.400520 -0.599717
O6    O     O_R   0.418050 0.518650 0.599480 -0.612833
O7    O     O_R   0.435380 0.514730 0.371330 -0.623526
O8    O     O_R   0.564620 0.485270 0.628670 -0.611807
Zn1   Zn    Zn3+2 0.597860 0.477710 0.519490 0.977700
Zn2   Zn    Zn3+2 0.402140 0.522290 0.480510 0.991237
C53   C     C_2   0.610340 0.143746 0.380020 0.929297
O9    O     O_2   0.551812 0.170173 0.330574 -0.554035
O10   O     O_R   0.699352 0.188702 0.397206 -0.819481
H19   H     H_    0.706662 0.243032 0.366208 0.363820
C54   C     C_2   0.339490 0.823365 0.437164 0.851474
O11   O     O_2   0.366591 0.772401 0.391823 -0.668676
O12   O     O_R   0.269686 0.794822 0.479531 -0.785804
H20   H     H_    0.249281 0.729783 0.471203 0.340619
O13   O     O_3   0.974355 0.626639 0.302380 -0.572862
C55   C     C_3   0.919767 0.570480 0.239055 -0.192317
H21   H     H_    0.849302 0.552919 0.251387 0.168439
H22   H     H_    0.951181 0.510411 0.227591 0.174460
H23   H     H_    0.913850 0.605624 0.182683 0.185517
O14   O     O_3   0.017167 0.330572 0.665568 -0.563363
C56   C     C_3   0.059794 0.377443 0.739074 -0.221022
H24   H     H_    0.015045 0.422916 0.760129 0.166640
H25   H     H_    0.127349 0.413820 0.733713 0.132975
H26   H     H_    0.072283 0.330153 0.786112 0.194951
O15   O     O_3   0.135777 0.621670 0.272939 -0.582503
C57   C     C_3   0.177476 0.707549 0.266947 -0.193280
H27   H     H_    0.250616 0.708155 0.261863 0.171083
H28   H     H_    0.169790 0.752832 0.318155 0.179867
H29   H     H_    0.142888 0.732510 0.210565 0.189126
O16   O     O_3   0.846910 0.302247 0.676524 -0.580594
C58   C     C_3   0.814709 0.218299 0.638182 -0.181989
H30   H     H_    0.848653 0.205624 0.585473 0.187876
H31   H     H_    0.738948 0.209056 0.618894 0.129226
H32   H     H_    0.831697 0.168874 0.682161 0.194295
C59   C     C_2   0.423285 0.659716 0.724186 0.919000
O17   O     O_2   0.465705 0.685774 0.671893 -0.641315
O18   O     O_R   0.352925 0.704031 0.743529 -0.803540
H33   H     H_    0.342610 0.755230 0.709014 0.361609
C60   C     C_2   0.635348 0.406977 0.258522 0.913540
O19   O     O_2   0.596278 0.351390 0.294745 -0.578727
O20   O     O_R   0.722736 0.398488 0.242427 -0.840758
H34   H     H_    0.747127 0.344689 0.265105 0.345309
O21   O     O_3   0.414236 0.471154 0.024259 -0.610857
C61   C     C_3   0.328783 0.443500 0.973998 -0.275114
H35   H     H_    0.335523 0.394562 0.925517 0.169835
H36   H     H_    0.297373 0.499819 0.947709 0.153961
H37   H     H_    0.281564 0.411220 0.011270 0.205590
O22   O     O_3   0.607460 0.627190 0.991328 -0.620907
C62   C     C_3   0.670193 0.687596 0.045407 -0.257301
H38   H     H_    0.716207 0.653315 0.088593 0.163187
H39   H     H_    0.634175 0.732749 0.078171 0.166314
H40   H     H_    0.713775 0.727882 0.010008 0.203653
C63   C     C_2   0.790697 0.880489 0.432138 0.890262
O23   O     O_2   0.859149 0.860568 0.474324 -0.600865
O24   O     O_R   0.797249 0.917058 0.358403 -0.801841
H41   H     H_    0.862424 0.925823 0.347754 0.360437
C64   C     C_2   0.182447 0.099784 0.459985 0.890143
O25   O     O_2   0.125252 0.138700 0.420971 -0.604385
O26   O     O_R   0.154814 0.033687 0.508230 -0.782278
H42   H     H_    0.085824 0.022662 0.504120 0.366980

loop_
_geom_bond_atom_site_label_1
_geom_bond_atom_site_label_2
_ccdc_geom_bond_type
C15   C18   A    
C54   O11   D    
O15   C57   S    
C29   C33   A    
C27   C29   A    
C57   H27   S    
C26   N2    A    
C59   O17   D    
C4    C8    A    
C7    H18   S    
C56   H24   S    
C2    O4    A    
O26   H42   S    
C39   C41   A    
O10   H19   S    
C21   C31   A    
C8    H17   S    
C22   C32   A    
C20   H14   S    
C35   C37   A    
O18   H33   S    
C6    C64   S    
C3    C7    A    
C23   C39   S    
O16   C58   S    
C45   C51   S    
C15   C16   A    
C46   C52   S    
C33   C36   A    
C57   H29   S    
C35   H7    S    
C34   C35   A    
C55   H21   S    
C17   C19   A    
C11   C15   A    
C24   O8    A    
C12   C16   A    
C44   C46   A    
C16   C17   A    
C60   O20   S    
C62   H40   S    
C58   H30   S    
C25   N1    A    
C32   C38   A    
C40   C42   A    
C5    C13   A    
N2    Zn1   S    
C2    O2    A    
C61   H37   S    
N1    Zn2   S    
C21   O15   S    
C48   C50   A    
C62   H38   S    
C51   O22   S    
C41   C43   A    
C28   N2    A    
C42   C44   A    
O2    Zn2   S    
O1    Zn1   S    
C56   H25   S    
C28   H3    S    
C61   H36   S    
C43   H12   S    
C45   C47   A    
C44   H11   S    
C46   C48   A    
C30   C34   A    
C51   C52   D    
C1    O3    A    
C14   C20   A    
C47   C49   A    
O13   C55   S    
C5    C7    A    
C13   C19   A    
C27   H4    S    
C6    C8    A    
C22   O16   S    
C55   H23   S    
C31   C37   A    
C1    C3    S    
C2    C4    S    
C3    C9    A    
C6    C14   A    
C43   C45   A    
O6    Zn2   S    
C48   H10   S    
C53   O9    D    
O5    Zn1   S    
O14   C56   S    
C55   H22   S    
C33   C34   A    
C59   O18   S    
C23   O5    A    
C57   H28   S    
C9    C11   A    
C41   H1    S    
C10   C12   A    
C24   O6    A    
C49   C60   S    
C12   C14   A    
C54   O12   S    
C64   O25   D    
C58   H32   S    
C25   H6    S    
C4    C10   A    
O24   H41   S    
C56   H26   S    
C27   N1    A    
C61   H35   S    
C64   O26   S    
C63   O23   D    
C21   C25   A    
C39   C49   A    
O8    Zn1   S    
C36   H8    S    
O4    Zn1   S    
C47   H9    S    
O7    Zn2   S    
O21   C61   S    
O3    Zn2   S    
C23   O7    A    
C18   C54   S    
C1    O1    A    
C28   C30   A    
C9    H16   S    
C29   C31   A    
C10   H15   S    
O20   H34   S    
C42   H2    S    
C36   C38   A    
C30   C32   A    
C11   C13   A    
C58   H31   S    
C40   C50   A    
C5    C63   S    
C50   C59   S    
C24   C40   S    
C19   H13   S    
C18   C20   A    
C53   O10   S    
C26   H5    S    
C52   O21   S    
C22   C26   A    
C38   O14   S    
C62   H39   S    
C17   C53   S    
O12   H20   S    
C60   O19   D    
C37   O13   S    
O22   C62   S    
C63   O24   S    
