data_mof_unit_17043.cif
_audit_creation_date              2013-03-05T16:08:06-0500
_audit_creation_method            fapswitch 2.2
_symmetry_space_group_name_H-M    P1
_symmetry_Int_Tables_number       1
_space_group_crystal_system       triclinic
_cell_length_a                    23.539128
_cell_length_b                    11.566831
_cell_length_c                    10.755057
_cell_angle_alpha                 90.003383
_cell_angle_beta                  89.999064
_cell_angle_gamma                 90.136663
_cell_volume                      2928.30454091

loop_
_atom_site_label
_atom_site_type_symbol
_atom_site_description
_atom_site_fract_x
_atom_site_fract_y
_atom_site_fract_z
_atom_type_partial_charge
O1    O     O_R   0.500000 0.334450 0.602530 -0.620311
O2    O     O_R   0.500000 0.665550 0.397470 -0.579094
O3    O     O_R   0.500000 0.665550 0.602530 -0.620766
O4    O     O_R   0.500000 0.334450 0.397470 -0.579258
C1    C     C_R   0.500137 0.281127 0.499985 0.971815
C2    C     C_R   0.499853 0.718872 0.499990 0.971421
O5    O     O_R   0.416150 0.500000 0.602560 -0.579549
O6    O     O_R   0.583850 0.500000 0.397440 -0.563423
O7    O     O_R   0.583850 0.500000 0.602560 -0.579712
O8    O     O_R   0.416150 0.500000 0.397440 -0.563387
C3    C     C_R   0.388806 0.499773 0.500050 1.066016
C4    C     C_R   0.611193 0.500232 0.500049 1.065972
Zn1   Zn    Zn3+2 0.500000 0.500000 0.636920 1.093403
Zn2   Zn    Zn3+2 0.500000 0.500000 0.363080 1.141356
C5    C     C_R   0.881148 0.602441 0.502446 0.668458
C6    C     C_R   0.118851 0.397514 0.502478 0.668322
C7    C     C_R   0.881189 0.395822 0.514591 0.686840
C8    C     C_R   0.118811 0.604146 0.514404 0.686762
N1    N     N_R   0.852983 0.498928 0.507928 -0.307804
N2    N     N_R   0.147017 0.501032 0.507845 -0.307855
C9    C     C_R   0.940462 0.393932 0.512164 -0.046245
C10   C     C_R   0.059538 0.606032 0.512009 -0.046226
C11   C     C_R   0.940382 0.605174 0.506873 -0.046499
C12   C     C_R   0.059617 0.394785 0.506940 -0.046508
C13   C     C_R   0.970170 0.499767 0.509775 -0.007049
C14   C     C_R   0.029830 0.500195 0.509752 -0.007069
C15   C     C_R   0.970540 0.289318 0.511909 -0.103062
C16   C     C_R   0.029460 0.710647 0.511666 -0.103062
C17   C     C_R   0.970351 0.710222 0.507664 -0.101131
C18   C     C_R   0.029648 0.289738 0.507862 -0.101109
O9    O     O_2   0.851734 0.701979 0.491633 -0.477039
O10   O     O_2   0.148265 0.297965 0.491753 -0.477053
O11   O     O_2   0.851773 0.295899 0.524164 -0.482162
O12   O     O_2   0.148228 0.704080 0.523854 -0.482196
H1    H     H_    0.948542 0.206971 0.513329 0.205100
H2    H     H_    0.051458 0.792995 0.512985 0.205094
H3    H     H_    0.948270 0.792261 0.506092 0.205515
H4    H     H_    0.051729 0.207698 0.506360 0.205508
C19   C     C_R   0.236477 0.542105 0.399346 0.352657
C20   C     C_R   0.763531 0.457766 0.399434 0.352778
C21   C     C_R   0.237873 0.459490 0.609142 0.331983
C22   C     C_R   0.762120 0.540570 0.609154 0.332251
C23   C     C_R   0.295606 0.558725 0.406484 0.208674
C24   C     C_R   0.704398 0.441189 0.406551 0.208476
C25   C     C_R   0.296525 0.440441 0.596749 0.277921
C26   C     C_R   0.703470 0.559623 0.596724 0.278047
C27   C     C_R   0.326275 0.499322 0.500660 -0.430249
C28   C     C_R   0.673725 0.500679 0.500666 -0.430261
C29   C     C_R   0.207695 0.501352 0.505618 -0.061832
C30   C     C_R   0.792304 0.498606 0.505683 -0.061898
C31   C     C_1   0.500165 0.161015 0.499929 -0.097487
C32   C     C_1   0.499814 0.838985 0.499943 -0.097684
C33   C     C_1   0.500070 0.059137 0.499921 0.050817
C34   C     C_1   0.499902 0.940863 0.499928 0.050955
N3    N     N_1   0.500000 0.500000 0.180630 -0.044251
N4    N     N_1   0.500000 0.500000 0.819370 -0.048736
C35   C     C_1   0.500000 0.500000 0.069698 0.170589
C36   C     C_1   0.500000 0.500000 0.930302 0.158335
S1    S     S_3+6 0.198303 0.566067 0.258219 0.128174
O13   O     O_2   0.150592 0.480301 0.245793 -0.279213
O14   O     O_2   0.173856 0.686010 0.259005 -0.223999
O15   O     O_3   0.241331 0.550941 0.134501 -0.423855
H5    H     H_    0.221485 0.590760 0.065491 0.411787
S2    S     S_3+6 0.801728 0.433629 0.258364 0.127924
O16   O     O_2   0.849427 0.519416 0.245874 -0.280390
O17   O     O_2   0.826186 0.313703 0.259309 -0.223178
O18   O     O_3   0.758728 0.448548 0.134585 -0.424008
H6    H     H_    0.779152 0.410755 0.065099 0.411803
S3    S     S_3+6 0.202061 0.437319 0.753564 0.119417
O19   O     O_2   0.175503 0.319038 0.755190 -0.204413
O20   O     O_2   0.242945 0.447933 0.860263 -0.188733
O21   O     O_3   0.150765 0.536702 0.772433 -0.562472
H7    H     H_    0.130714 0.513653 0.849550 0.397430
S4    S     S_3+6 0.797923 0.562868 0.753563 0.119081
O22   O     O_2   0.824492 0.681140 0.755080 -0.204442
O23   O     O_2   0.757029 0.552374 0.860258 -0.189428
O24   O     O_3   0.849209 0.463486 0.772548 -0.562548
H8    H     H_    0.869218 0.486531 0.849718 0.397208
S5    S     S_3+6 0.329555 0.663966 0.309787 0.132789
O25   O     O_2   0.357090 0.604607 0.201152 -0.189701
O26   O     O_2   0.288099 0.751909 0.261930 -0.175538
O27   O     O_3   0.379649 0.734909 0.390958 -0.561238
H9    H     H_    0.359316 0.768393 0.463061 0.345473
S6    S     S_3+6 0.670443 0.335898 0.309919 0.133369
O28   O     O_2   0.642920 0.395198 0.201243 -0.189329
O29   O     O_2   0.711892 0.247904 0.262126 -0.174503
O30   O     O_3   0.620339 0.265032 0.391127 -0.561440
H10   H     H_    0.640663 0.231612 0.463270 0.345481
S7    S     S_3+6 0.330590 0.332648 0.689322 0.125958
O31   O     O_2   0.359489 0.388871 0.798403 -0.234929
O32   O     O_2   0.288468 0.244927 0.735798 -0.170783
O33   O     O_3   0.379060 0.262579 0.603205 -0.583002
H11   H     H_    0.394395 0.201966 0.658880 0.379285
S8    S     S_3+6 0.669398 0.667462 0.689236 0.126055
O34   O     O_2   0.640484 0.611276 0.798315 -0.235349
O35   O     O_2   0.711509 0.755206 0.735711 -0.170248
O36   O     O_3   0.620944 0.737509 0.603074 -0.582795
H12   H     H_    0.605236 0.797446 0.659090 0.379203

loop_
_geom_bond_atom_site_label_1
_geom_bond_atom_site_label_2
_geom_bond_distance
_ccdc_geom_bond_type
O30   H10   0.990576 S    
C3    C27   1.471944 S    
S6    O30   1.679632 S    
C4    C28   1.471949 S    
O3    C2    1.263616 A    
O36   H12   0.990690 S    
O24   H8    0.990512 S    
C5    N1    1.368505 A    
O15   H5    0.991126 S    
S4    O23   1.502518 D    
O1    C1    1.263604 A    
C11   C17   1.403580 A    
C16   C17   1.392030 A    
S6    O29   1.502243 D    
C23   S5    1.788149 S    
C18   H4    1.083168 S    
C22   C26   1.404941 A    
S3    O20   1.502530 D    
O7    Zn1   2.008047 S    
S4    O24   1.681419 S    
S7    O32   1.502569 D    
C25   S7    1.787107 S    
O3    Zn1   1.950304 S    
O6    C4    1.277559 A    
Zn1   N4    1.962259 S    
C5    C11   1.395420 A    
Zn2   N3    1.962260 S    
C9    C15   1.403428 A    
S1    O13   1.502666 D    
C6    C12   1.395421 A    
C10   C16   1.403427 A    
C15   C18   1.392035 A    
O2    C2    1.263366 A    
C7    O11   1.349856 S    
C21   C29   1.407290 A    
C32   C34   1.178408 T    
C25   C27   1.421289 A    
C26   C28   1.421289 A    
C22   S4    1.785486 S    
S1    O14   1.503255 D    
S4    O22   1.502937 D    
O18   H6    0.990800 S    
S2    O18   1.681489 S    
S6    O28   1.502860 D    
O8    Zn2   2.008049 S    
S5    O26   1.502241 D    
O4    C1    1.263378 A    
C19   C23   1.406698 A    
S8    O36   1.679470 S    
C15   H1    1.083166 S    
C13   C14   1.404341 A    
C33   C34   1.368042 S    
C7    C9    1.395702 A    
C31   C33   1.178409 T    
S2    O17   1.503205 D    
S3    O21   1.681423 S    
O5    C3    1.276643 A    
N2    C29   1.428508 S    
C26   S8    1.787098 S    
O5    Zn1   2.008061 S    
C6    N2    1.368506 A    
C19   S1    1.785886 S    
S8    O34   1.503281 D    
S7    O33   1.679515 S    
S8    O35   1.502550 D    
C8    O12   1.349864 S    
C22   C30   1.407271 A    
C19   C29   1.409286 A    
N3    C35   1.193083 T    
O1    Zn1   1.950262 S    
C21   S3    1.785495 S    
C9    C13   1.408614 A    
S1    O15   1.681590 S    
O6    Zn2   2.008058 S    
C8    C10   1.395700 A    
C12   C14   1.408269 A    
O21   H7    0.990536 S    
C24   S6    1.788127 S    
S5    O27   1.679652 S    
C5    O9    1.349935 S    
C6    O10   1.349939 S    
C20   S2    1.785892 S    
S2    O16   1.502679 D    
N1    C30   1.428515 S    
C35   C36   1.499212 S    
C20   C30   1.409296 A    
O33   H11   0.990773 S    
C7    N1    1.368246 A    
N4    C36   1.193078 T    
C8    N2    1.368253 A    
C11   C13   1.408267 A    
O4    Zn2   1.950305 S    
S3    O19   1.502944 D    
O2    Zn2   1.950261 S    
O7    C4    1.276629 A    
C12   C18   1.403581 A    
O8    C3    1.277545 A    
S5    O25   1.502870 D    
C20   C24   1.406714 A    
C16   H2    1.083169 S    
O27   H9    0.990583 S    
C10   C14   1.408614 A    
C17   H3    1.083166 S    
C21   C25   1.404940 A    
C1    C31   1.389320 S    
C2    C32   1.389324 S    
S7    O31   1.503276 D    
C23   C27   1.421847 A    
C24   C28   1.421840 A    
