data_mof_unit_37413.cif
_audit_creation_date              2013-03-05T15:46:53-0500
_audit_creation_method            fapswitch 2.2
_symmetry_space_group_name_H-M    P1
_symmetry_Int_Tables_number       1
_space_group_crystal_system       triclinic
_cell_length_a                    14.897919
_cell_length_b                    14.792752
_cell_length_c                    15.033406
_cell_angle_alpha                 108.873788
_cell_angle_beta                  109.774776
_cell_angle_gamma                 109.302067
_cell_volume                      2564.76178751

loop_
_atom_site_label
_atom_site_type_symbol
_atom_site_description
_atom_site_fract_x
_atom_site_fract_y
_atom_site_fract_z
_atom_type_partial_charge
C1    C     C_R   0.194868 0.994522 0.904299 -0.116591
C2    C     C_R   0.752557 0.936508 0.031105 -0.127859
H1    H     H_    0.166257 0.017907 0.843805 0.080669
H2    H     H_    0.761249 0.882404 0.062937 0.105948
N1    N     N_R   0.293810 0.002730 0.945950 -0.039195
N2    N     N_R   0.706190 0.997270 0.054050 -0.038560
C3    C     C_R   0.805052 0.206695 0.296783 -0.164891
C4    C     C_R   0.223554 0.776345 0.686812 -0.189255
H3    H     H_    0.830138 0.175966 0.351422 0.103425
H4    H     H_    0.198031 0.798143 0.624871 0.101105
N3    N     N_R   0.706160 0.152130 0.208910 -0.050330
N4    N     N_R   0.293840 0.847870 0.791090 -0.046881
C5    C     C_R   0.408771 0.906225 0.209231 -0.126121
C6    C     C_R   0.591794 0.046897 0.776745 -0.128960
H5    H     H_    0.324425 0.847993 0.178250 0.082030
H6    H     H_    0.674635 0.094820 0.796355 0.083394
N5    N     N_R   0.443140 0.945920 0.152090 -0.038644
N6    N     N_R   0.556860 0.054080 0.847910 -0.038524
C7    C     C_R   0.588603 0.310125 0.075473 -0.137131
C8    C     C_R   0.412980 0.699545 0.006501 -0.130079
H7    H     H_    0.671137 0.368443 0.139516 0.130084
H8    H     H_    0.330900 0.646621 0.985238 0.080869
N7    N     N_R   0.556830 0.208940 0.002760 -0.039851
N8    N     N_R   0.443170 0.791060 0.997240 -0.044512
C9    C     C_R   0.591947 0.997784 0.299760 -0.125147
C10   C     C_R   0.408875 0.951777 0.685424 -0.124230
H9    H     H_    0.676553 0.023032 0.350827 0.081273
H10   H     H_    0.325389 0.910316 0.621674 0.084386
N9    N     N_R   0.556790 0.002750 0.208910 -0.035380
N10   N     N_R   0.443210 0.997250 0.791090 -0.037332
C11   C     C_R   0.406662 0.221284 0.977339 -0.125085
C12   C     C_R   0.594005 0.793143 0.096174 -0.148754
H11   H     H_    0.321522 0.199087 0.942615 0.104167
H12   H     H_    0.677759 0.832505 0.157913 0.109401
N11   N     N_R   0.443180 0.152110 0.945950 -0.043867
N12   N     N_R   0.556820 0.847890 0.054050 -0.038173
C13   C     C_R   0.807830 0.292425 0.198781 0.211624
C14   C     C_R   0.220242 0.685128 0.779997 0.214737
N13   N     N_R   0.706170 0.208950 0.152090 -0.064160
N14   N     N_R   0.293830 0.791050 0.847910 -0.066433
C15   C     C_R   0.197351 0.904939 0.997868 -0.128432
C16   C     C_R   0.761062 0.034870 0.945827 -0.155807
H13   H     H_    0.172393 0.845677 0.023946 0.086156
H14   H     H_    0.788056 0.078503 0.906982 0.084292
N15   N     N_R   0.293800 0.945910 0.002760 -0.039818
N16   N     N_R   0.706200 0.054090 0.997240 -0.046054
C17   C     C_R   0.131916 0.931871 0.934122 0.046732
C18   C     C_R   0.784235 0.955389 0.959389 0.048307
C19   C     C_R   0.871709 0.294465 0.292461 -0.033999
C20   C     C_R   0.184405 0.671983 0.675910 0.028902
C21   C     C_R   0.500772 0.935909 0.301518 0.039640
C22   C     C_R   0.500925 0.974579 0.674554 0.043048
C23   C     C_R   0.496785 0.321964 0.061189 0.057320
C24   C     C_R   0.506203 0.698693 0.069200 0.063266
Ni1   Ni    Ni4+2 0.369690 0.999990 0.869700 0.208395
Ni2   Ni    Ni4+2 0.630310 0.000010 0.130300 0.204402
Ni3   Ni    Ni4+2 0.369670 0.869670 0.000000 0.199137
Ni4   Ni    Ni4+2 0.630330 0.130330 0.000000 0.208512
H15   H     H_    0.041134 0.148732 0.044818 0.131438
H16   H     H_    0.021537 0.927670 0.324680 0.115929
C25   C     C_R   0.106049 0.221760 0.962230 -0.160524
C26   C     C_R   0.886441 0.877786 0.354298 -0.193645
H17   H     H_    0.027243 0.175437 0.888521 0.117039
H18   H     H_    0.931567 0.948987 0.434303 0.113031
C27   C     C_R   0.199311 0.295676 0.968135 0.234600
C28   C     C_R   0.778091 0.798097 0.313880 0.234075
C29   C     C_R   0.301941 0.353572 0.065476 0.027076
C30   C     C_R   0.720854 0.706539 0.208275 0.047744
C31   C     C_R   0.307990 0.334186 0.152418 -0.156494
C32   C     C_R   0.774399 0.695362 0.147622 -0.201593
H19   H     H_    0.385478 0.377441 0.227208 0.126546
H20   H     H_    0.732309 0.624755 0.067663 0.133599
C33   C     C_R   0.214463 0.260748 0.144793 -0.104040
C34   C     C_R   0.882267 0.774783 0.189595 -0.126777
H21   H     H_    0.220181 0.247213 0.212627 0.118152
H22   H     H_    0.922918 0.765355 0.142439 0.112068
C35   C     C_R   0.113553 0.205336 0.050239 -0.133021
C36   C     C_R   0.937966 0.866068 0.292468 -0.126961
C37   C     C_R   0.410158 0.532794 0.080511 -0.222600
C38   C     C_R   0.601168 0.523118 0.164930 -0.244360
H23   H     H_    0.335879 0.537931 0.054705 0.132066
H24   H     H_    0.676990 0.522356 0.200796 0.129557
C39   C     C_R   0.509768 0.618477 0.107566 0.038688
C40   C     C_R   0.499829 0.427730 0.110365 0.053705
C41   C     C_R   0.608184 0.617776 0.162152 0.063282
C42   C     C_R   0.404173 0.436865 0.081918 0.028480
C43   C     C_R   0.028840 0.480145 0.380009 -0.195634
C44   C     C_R   0.107652 0.469135 0.569450 -0.177673
H25   H     H_    0.001909 0.490264 0.310413 0.158158
H26   H     H_    0.141418 0.462607 0.641147 0.122464
C45   C     C_R   0.099486 0.575254 0.477328 -0.173904
C46   C     C_R   0.033656 0.373007 0.471198 -0.170628
H27   H     H_    0.123668 0.651452 0.475184 0.108673
H28   H     H_    0.008307 0.295527 0.471130 0.108065
C47   C     C_R   0.129102 0.570663 0.573691 0.156506
C48   C     C_R   0.983985 0.379534 0.377673 0.152924
C49   C     C_R   0.602064 0.968722 0.575123 -0.165559
C50   C     C_R   0.403681 0.848626 0.380077 -0.166181
H29   H     H_    0.680247 0.015415 0.649248 0.102366
H30   H     H_    0.325695 0.802770 0.305795 0.106180
C51   C     C_R   0.602230 0.957463 0.480841 -0.172545
C52   C     C_R   0.403437 0.861522 0.475076 -0.170195
H31   H     H_    0.680495 0.999468 0.487159 0.101013
H32   H     H_    0.325313 0.823833 0.470892 0.107189
C53   C     C_R   0.502439 0.907243 0.385233 0.136242
C54   C     C_R   0.502137 0.932011 0.573975 0.147104
C55   C     C_R   0.968385 0.841483 0.947052 -0.176588
C56   C     C_R   0.872207 0.939199 0.846080 -0.186047
H33   H     H_    0.004599 0.804539 0.988536 0.106058
H34   H     H_    0.836700 0.978149 0.806870 0.107487
C57   C     C_R   0.880423 0.847884 0.953927 -0.173399
C58   C     C_R   0.960682 0.933191 0.839466 -0.169006
H35   H     H_    0.852075 0.815389 0.999890 0.111398
H36   H     H_    0.991293 0.968624 0.796234 0.107193
C59   C     C_R   0.841293 0.908811 0.914786 0.143853
C60   C     C_R   0.016732 0.896056 0.900941 0.141057
C61   C     C_3   0.187628 0.303138 0.867091 -0.419505
C62   C     C_3   0.114882 0.352591 0.835931 -0.909930
H37   H     H_    0.030675 0.300782 0.817738 0.256354
H38   H     H_    0.149983 0.436565 0.902638 0.254384
H39   H     H_    0.109020 0.356970 0.761975 0.249307
H40   H     H_    0.268217 0.352432 0.876668 0.202620
H41   H     H_    0.150596 0.219175 0.799099 0.183042
C63   C     C_3   0.725246 0.814266 0.383207 -0.413045
C64   C     C_3   0.729519 0.747411 0.441842 -0.849498
H42   H     H_    0.681272 0.658132 0.383149 0.260317
H43   H     H_    0.815817 0.769932 0.492549 0.251472
H44   H     H_    0.694266 0.765109 0.495405 0.254129
H45   H     H_    0.769123 0.902267 0.445410 0.179159
H46   H     H_    0.638938 0.792044 0.333102 0.200193
C65   C     C_3   0.850916 0.324260 0.128692 -0.368199
C66   C     C_3   0.847179 0.424565 0.122542 -0.972463
H47   H     H_    0.853487 0.482293 0.196363 0.256542
H48   H     H_    0.916116 0.469397 0.112661 0.259662
H49   H     H_    0.769975 0.398201 0.050680 0.264227
H50   H     H_    0.935674 0.337359 0.156700 0.180980
H51   H     H_    0.802051 0.255018 0.044526 0.197331
C67   C     C_3   0.159310 0.614619 0.815897 -0.419403
C68   C     C_3   0.036205 0.574310 0.758322 -0.881799
H52   H     H_    0.021712 0.645226 0.769494 0.260894
H53   H     H_    0.996482 0.517144 0.670470 0.265298
H54   H     H_    0.997209 0.529919 0.793657 0.249774
H55   H     H_    0.175230 0.545216 0.806223 0.184079
H56   H     H_    0.189923 0.665473 0.903451 0.189279

loop_
_geom_bond_atom_site_label_1
_geom_bond_atom_site_label_2
_geom_bond_distance
_ccdc_geom_bond_type
N7    Ni4   1.842361 S    
C28   C30   1.418205 A    
C43   C45   1.369333 A    
N5    N9    1.385254 A    
C6    N6    1.329098 A    
C2    H2    1.077354 S    
C38   C40   1.395737 A    
H15   C35   1.082092 S    
C58   H36   1.080761 S    
C3    N3    1.332012 A    
N15   Ni3   1.842672 S    
N8    N12   1.385254 A    
C50   C53   1.399473 A    
C34   H22   1.082207 S    
C23   C40   1.476004 S    
C1    N1    1.336996 A    
C12   N12   1.324691 A    
C56   C59   1.402290 A    
C7    H7    1.069309 S    
C40   C42   1.408647 A    
C67   H55   1.104153 S    
C52   H32   1.080850 S    
C68   H54   1.110501 S    
C20   C47   1.457220 S    
C46   C48   1.401718 A    
C25   H17   1.082780 S    
C16   N16   1.336107 A    
C31   H19   1.083609 S    
C62   H37   1.110215 S    
C26   H18   1.083103 S    
C5    C21   1.384757 A    
N6    Ni4   1.876162 S    
C6    C22   1.381776 A    
C8    N8    1.347632 A    
C25   C35   1.395679 A    
C66   H47   1.110375 S    
C27   C29   1.422044 A    
C32   C34   1.395347 A    
C64   H44   1.110590 S    
C11   H11   1.074670 S    
C31   C33   1.394773 A    
N6    N10   1.385254 A    
C6    H6    1.073689 S    
C4    N4    1.325598 A    
C56   C58   1.384040 A    
C7    C23   1.389908 A    
C44   C47   1.403148 A    
C22   C54   1.446757 S    
C51   H31   1.078225 S    
C14   N14   1.330938 A    
N16   Ni4   1.842671 S    
C9    N9    1.323407 A    
C30   C41   1.479448 S    
C15   H13   1.079791 S    
C2    N2    1.332365 A    
C16   H14   1.072625 S    
C12   C24   1.376179 A    
C24   C39   1.485689 S    
C49   H29   1.080483 S    
N1    Ni1   1.862960 S    
C51   C53   1.400406 A    
C17   C60   1.457045 S    
C26   C28   1.406912 A    
N11   Ni1   1.851924 S    
C44   C46   1.386380 A    
C3    C19   1.386363 A    
C8    C24   1.396760 A    
C65   H50   1.111315 S    
C37   H23   1.079361 S    
C1    C17   1.384996 A    
C2    C18   1.383855 A    
C50   C52   1.379760 A    
N13   Ni4   1.876122 S    
N1    N15   1.378518 A    
C13   C65   1.524087 S    
C1    H1    1.080333 S    
C62   H39   1.110207 S    
C12   H12   1.069503 S    
N4    N14   1.378639 A    
C7    N7    1.335038 A    
C61   H40   1.109161 S    
C9    C21   1.378954 A    
C38   C41   1.384715 A    
N12   Ni2   1.851924 S    
C10   C22   1.379349 A    
C45   H27   1.079016 S    
C13   C19   1.391618 A    
C21   C53   1.447543 S    
H16   C36   1.082358 S    
C43   C48   1.398449 A    
C46   H28   1.081239 S    
C15   C17   1.378069 A    
C63   H46   1.110760 S    
C57   H35   1.079353 S    
C16   C18   1.385251 A    
C15   N15   1.327142 A    
C11   C23   1.388534 A    
N3    N13   1.378639 A    
C18   C59   1.456341 S    
C49   C54   1.397693 A    
C38   H24   1.080292 S    
C39   C41   1.422903 A    
C8    H8    1.072901 S    
C10   N10   1.330004 A    
N7    N11   1.385253 A    
C43   H25   1.065374 S    
C64   H42   1.108503 S    
C28   C63   1.510517 S    
C33   H21   1.082540 S    
C65   C66   1.533989 S    
C4    C20   1.388058 A    
C58   C60   1.400948 A    
N8    Ni3   1.842360 S    
C3    H3    1.080353 S    
C29   C42   1.485445 S    
C33   C35   1.392147 A    
N14   Ni3   1.876124 S    
N2    N16   1.378518 A    
C55   C57   1.379965 A    
C26   C36   1.396345 A    
C4    H4    1.073030 S    
N2    Ni2   1.862961 S    
C32   H20   1.083411 S    
C68   H52   1.111572 S    
C14   C20   1.393070 A    
N9    Ni2   1.863360 S    
C9    H9    1.079878 S    
N10   Ni1   1.863363 S    
C10   H10   1.072587 S    
C5    N5    1.330444 A    
C5    H5    1.080184 S    
C44   H26   1.075509 S    
C61   H41   1.111710 S    
C13   N13   1.339708 A    
C67   H56   1.110298 S    
C61   C62   1.526912 S    
C37   C39   1.410236 A    
C68   H53   1.107861 S    
C55   H33   1.080017 S    
C66   H49   1.110053 S    
C56   H34   1.081437 S    
C63   H45   1.110234 S    
C52   C54   1.401445 A    
C11   N11   1.339812 A    
C65   H51   1.106975 S    
C19   C48   1.462225 S    
C50   H30   1.080750 S    
C62   H38   1.109945 S    
C55   C60   1.402312 A    
N4    Ni1   1.852589 S    
C67   C68   1.528832 S    
C45   C47   1.396008 A    
C25   C27   1.408293 A    
C66   H48   1.110548 S    
C34   C36   1.394108 A    
C64   H43   1.111044 S    
C30   C32   1.406041 A    
C27   C61   1.514011 S    
C57   C59   1.398824 A    
C14   C67   1.507638 S    
C29   C31   1.406630 A    
C37   C42   1.399704 A    
C49   C51   1.373531 A    
N3    Ni2   1.852589 S    
N5    Ni3   1.876160 S    
C63   C64   1.525378 S    
