data_mof_unit_52646.cif
_audit_creation_date              2012-12-10T17:49:37-0500
_audit_creation_method            fapswitch 2.2
_symmetry_space_group_name_H-M    P1
_symmetry_Int_Tables_number       1
_space_group_crystal_system       triclinic
_cell_length_a                    14.802237
_cell_length_b                    14.852907
_cell_length_c                    15.888725
_cell_angle_alpha                 75.529624
_cell_angle_beta                  103.034214
_cell_angle_gamma                 115.549729
_cell_volume                      3023.80340347

loop_
_atom_site_label
_atom_site_type_symbol
_atom_type_description
_atom_site_fract_x
_atom_site_fract_y
_atom_site_fract_z
_atom_type_partial_charge
C1    C     C_R   0.880219 0.312478 0.513309 0.801156
C2    C     C_3   0.039981 0.419764 0.075473 -0.090618
C3    C     C_3   0.999778 0.501141 0.082741 0.134670
C4    C     C_3   0.067889 0.610923 0.035940 0.140456
C5    C     C_3   0.071832 0.604787 0.940006 -0.451934
C6    C     C_1   0.999557 0.500854 0.175448 -0.018715
C7    C     C_1   0.999360 0.499659 0.824318 0.025565
C8    C     C_1   0.000068 0.499706 0.749023 -0.149463
C9    C     C_R   0.812076 0.205246 0.514895 -0.049217
C10   C     C_R   0.188559 0.795698 0.473354 -0.097411
C11   C     C_R   0.782248 0.028616 0.530728 -0.185429
C12   C     C_R   0.000055 0.499829 0.659507 0.821283
C13   C     C_R   0.849111 0.129168 0.532517 -0.185787
C14   C     C_R   0.707932 0.179767 0.494844 -0.225872
C15   C     C_R   0.639424 0.079798 0.489574 0.097750
C16   C     C_R   0.677802 0.003257 0.510220 0.159660
C17   C     C_R   0.533663 0.053623 0.466675 0.038640
C18   C     C_R   0.467120 0.950138 0.479035 0.055421
C19   C     C_R   0.507817 0.876210 0.494233 -0.179248
C20   C     C_R   0.611491 0.902489 0.509393 -0.217533
C21   C     C_R   0.492770 0.127064 0.428546 -0.245836
C22   C     C_R   0.388608 0.099867 0.405531 0.143917
C23   C     C_R   0.119914 0.687595 0.486551 0.803952
C24   C     C_R   0.322207 0.998008 0.426254 0.133847
C25   C     C_R   0.361256 0.923610 0.469450 -0.002765
C26   C     C_R   0.217104 0.969125 0.405293 -0.169438
C27   C     C_R   0.151504 0.868398 0.425392 -0.202975
C28   C     C_R   0.292824 0.826016 0.503238 -0.074779
C29   C     C_R   0.700937 0.643472 0.335158 -0.157321
C30   C     C_R   0.791033 0.629629 0.369036 0.090833
C31   C     C_R   0.717211 0.514699 0.493324 0.108700
C32   C     C_R   0.630608 0.539515 0.469356 -0.055440
C33   C     C_R   0.618401 0.592856 0.383204 0.072145
C34   C     C_R   0.999968 0.500267 0.340500 0.832453
C35   C     C_R   0.551188 0.505912 0.522935 0.083385
C36   C     C_R   0.454085 0.505254 0.482316 0.027664
C37   C     C_R   0.440547 0.537226 0.391128 -0.227108
C38   C     C_R   0.522012 0.588132 0.344442 -0.162871
C39   C     C_R   0.565927 0.478898 0.615689 0.111081
C40   C     C_R   0.482387 0.426505 0.661477 -0.226438
C41   C     C_R   0.385961 0.418672 0.620713 0.117446
C42   C     C_R   0.373013 0.469334 0.533763 -0.059595
C43   C     C_R   0.304390 0.369223 0.669120 -0.291908
C44   C     C_R   0.212782 0.377566 0.634214 0.041855
C45   C     C_3   0.038590 0.421209 0.976355 -0.516620
C46   C     C_R   0.281982 0.487132 0.506315 0.327387
C47   C     C_3   0.886727 0.474175 0.932072 0.313993
C48   C     C_3   0.887776 0.467938 0.033505 -0.063552
C49   C     C_1   0.999714 0.500576 0.250950 -0.146155
C50   C     C_3   0.997610 0.499504 0.916261 0.208313
Cu1   Cu    Cu3+1 0.081750 0.475690 0.522550 0.970772
Cu2   Cu    Cu3+1 0.918250 0.524310 0.477450 0.970210
H1    H     H_    0.116123 0.441227 0.962228 0.184969
H2    H     H_    0.639740 0.843462 0.521682 0.150586
H3    H     H_    0.071438 0.847772 0.404061 0.177469
H4    H     H_    0.812153 0.970607 0.545427 0.139464
H5    H     H_    0.929470 0.147236 0.547754 0.159433
H6    H     H_    0.681285 0.238893 0.485839 0.160526
H7    H     H_    0.994278 0.344878 0.958078 0.184229
H8    H     H_    0.460137 0.797580 0.491080 0.153194
H9    H     H_    0.540620 0.205789 0.410294 0.138987
H10   H     H_    0.184946 0.023577 0.371034 0.172186
H11   H     H_    0.507332 0.618041 0.275644 0.170159
H12   H     H_    0.150656 0.341728 0.672616 0.134588
H13   H     H_    0.494499 0.399590 0.731401 0.143266
H14   H     H_    0.367293 0.522896 0.353677 0.162032
H15   H     H_    0.312557 0.327524 0.734894 0.145911
H16   H     H_    0.847329 0.387005 0.061505 0.149004
H17   H     H_    0.149574 0.617789 0.931581 0.167569
H18   H     H_    0.056362 0.666776 0.891897 0.178523
N1    N     N_R   0.795410 0.560790 0.443550 -0.235593
N2    N     N_R   0.204590 0.439170 0.556520 -0.171961
O1    O     O_R   0.977910 0.338120 0.529720 -0.590992
O2    O     O_R   0.839850 0.379180 0.491640 -0.589319
O3    O     O_R   0.069060 0.479460 0.639610 -0.585031
O4    O     O_R   0.931000 0.520530 0.601530 -0.564223
O5    O     O_R   0.160150 0.620820 0.508360 -0.542002
O6    O     O_R   0.022090 0.661880 0.470280 -0.587985
O7    O     O_R   0.069000 0.479470 0.398470 -0.571713
O8    O     O_R   0.930940 0.520540 0.360390 -0.571708
C51   C     C_1   0.977252 0.316086 0.116509 0.203337
N3    N     N_1   0.928270 0.235109 0.148574 -0.273673
C52   C     C_1   0.142981 0.438395 0.122779 0.259296
N4    N     N_1   0.223352 0.452046 0.160001 -0.282781
N5    N     N_3   0.025436 0.684891 0.033148 -0.610265
H19   H     H_    0.026113 0.692867 0.096943 0.242746
H20   H     H_    0.070334 0.756297 0.001387 0.218729
C53   C     C_1   0.326194 0.764434 0.579461 0.259673
N6    N     N_1   0.352540 0.715354 0.640275 -0.271827
N7    N     N_3   0.349928 0.176115 0.362718 -0.591533
H21   H     H_    0.325640 0.167382 0.297047 0.220123
H22   H     H_    0.407068 0.248807 0.362847 0.227262
N8    N     N_3   0.276658 0.569348 0.438085 -0.534510
H23   H     H_    0.346875 0.630422 0.435648 0.199444
H24   H     H_    0.246633 0.544722 0.377951 0.219399
C54   C     C_1   0.693682 0.709035 0.251319 0.225371
N9    N     N_1   0.687970 0.761282 0.184551 -0.257952
C55   C     C_1   0.876924 0.683954 0.321298 0.330745
N10   N     N_1   0.944929 0.727866 0.282080 -0.309462
C56   C     C_1   0.715428 0.427951 0.559917 0.353120
N11   N     N_1   0.713200 0.357986 0.613231 -0.304667
N12   N     N_3   0.852052 0.551721 0.875516 -0.568983
H25   H     H_    0.776495 0.532635 0.880602 0.205731
H26   H     H_    0.894100 0.623207 0.892533 0.229385
N13   N     N_3   0.664626 0.516477 0.665005 -0.588418
H27   H     H_    0.673977 0.456756 0.712144 0.243296
H28   H     H_    0.667185 0.569565 0.699018 0.226290
N14   N     N_3   0.817371 0.375919 0.905604 -0.571793
H29   H     H_    0.833368 0.316329 0.946866 0.205871
H30   H     H_    0.743554 0.361613 0.912661 0.208640
N15   N     N_3   0.829757 0.517545 0.053810 -0.573453
H31   H     H_    0.847276 0.591554 0.020636 0.261188
H32   H     H_    0.752884 0.477018 0.034604 0.208667
C57   C     C_1   0.172579 0.649713 0.082767 0.219388
N16   N     N_1   0.254068 0.680798 0.119101 -0.268479

loop_
_geom_bond_atom_site_label_1
_geom_bond_atom_site_label_2
_ccdc_geom_bond_type
C10   C27   A    
N8    H23   S    
C41   C42   A    
C36   C42   A    
C35   C36   A    
C9    C14   A    
C3    C6    S    
C30   N1    A    
C7    C8    T    
N5    H19   S    
C44   H12   S    
C25   C28   A    
N13   H28   S    
C26   C27   A    
C37   C38   A    
C52   N4    T    
C1    O2    A    
C4    C57   S    
C36   C37   A    
C24   C26   A    
Cu2   O2    S    
C27   H3    S    
C13   H5    S    
C15   C16   A    
C29   C33   A    
C3    C48   S    
N14   H29   S    
C39   N13   S    
C18   C19   A    
C42   C46   A    
C9    C13   A    
C5    H17   S    
C34   O8    A    
C19   C20   A    
C28   C53   S    
C21   H9    S    
C8    C12   S    
C31   N1    A    
C45   H1    S    
N8    H24   S    
C47   N12   S    
C21   C22   A    
C54   N9    T    
C41   C43   A    
C2    C52   S    
C18   C25   A    
Cu2   O6    S    
C51   N3    T    
C47   C50   S    
N5    H20   S    
C2    C45   S    
C14   H6    S    
Cu1   Cu2   S    
C32   C35   A    
C1    C9    S    
C24   C25   A    
C20   H2    S    
C39   C40   A    
C4    N5    S    
C48   H16   S    
C35   C39   A    
C43   C44   A    
Cu1   O5    S    
C29   C30   A    
C34   O7    A    
C11   C16   A    
N7    H22   S    
C47   C48   S    
C16   C20   A    
C37   H14   S    
C17   C18   A    
C22   N7    S    
N15   H32   S    
C31   C56   S    
C23   O5    A    
N12   H26   S    
C40   C41   A    
C47   N14   S    
C40   H13   S    
C12   O4    A    
C10   C23   S    
C22   C24   A    
C5    C50   S    
Cu1   N2    S    
C3    C4    S    
C38   H11   S    
C10   C28   A    
C15   C17   A    
C45   H7    S    
C34   C49   S    
N15   H31   S    
C46   N2    A    
C31   C32   A    
Cu1   O1    S    
C7    C50   S    
Cu1   O3    S    
C4    C5    S    
Cu2   O4    S    
C5    H18   S    
C29   C54   S    
C57   N16   T    
C19   H8    S    
N13   H27   S    
C30   C55   S    
C33   C38   A    
C1    O1    A    
C32   C33   A    
C2    C3    S    
C26   H10   S    
Cu2   N1    S    
C11   C13   A    
N7    H21   S    
C46   N8    S    
C45   C50   S    
C56   N11   T    
N14   H30   S    
C44   N2    A    
C23   O6    A    
N12   H25   S    
Cu1   O7    S    
C11   H4    S    
C48   N15   S    
C53   N6    T    
C43   H15   S    
C55   N10   T    
C12   O3    A    
C14   C15   A    
C2    C51   S    
Cu2   O8    S    
C6    C49   T    
C17   C21   A    
