data_mof_unit_48869.cif
_audit_creation_date              2012-12-10T18:04:33-0500
_audit_creation_method            fapswitch 2.2
_symmetry_space_group_name_H-M    P1
_symmetry_Int_Tables_number       1
_space_group_crystal_system       triclinic
_cell_length_a                    19.475206
_cell_length_b                    17.597803
_cell_length_c                    12.581994
_cell_angle_alpha                 89.510856
_cell_angle_beta                  98.701872
_cell_angle_gamma                 90.911011
_cell_volume                      4261.85376677

loop_
_atom_site_label
_atom_site_type_symbol
_atom_type_description
_atom_site_fract_x
_atom_site_fract_y
_atom_site_fract_z
_atom_type_partial_charge
C1    C     C_R   0.411108 0.102648 0.443712 0.872806
C2    C     C_R   0.413533 0.894273 0.446345 0.877855
C3    C     C_R   0.911109 0.602649 0.443713 0.872812
C4    C     C_R   0.913535 0.394271 0.446347 0.877868
C5    C     C_R   0.761971 0.197515 0.552558 -0.044691
C6    C     C_R   0.731779 0.763362 0.541899 -0.043029
C7    C     C_R   0.261973 0.697508 0.552547 -0.044703
C8    C     C_R   0.231780 0.263363 0.541899 -0.043028
C9    C     C_R   0.786664 0.209986 0.663743 -0.049068
C10   C     C_R   0.767151 0.765391 0.649881 -0.070469
C11   C     C_R   0.286681 0.709956 0.663732 -0.049038
C12   C     C_R   0.267152 0.265392 0.649880 -0.070484
C13   C     C_R   0.351808 0.747289 0.691148 0.401040
C14   C     C_R   0.336766 0.242049 0.669752 0.391365
C15   C     C_R   0.851788 0.247322 0.691167 0.401005
C16   C     C_R   0.836765 0.742046 0.669755 0.391370
C17   C     C_R   0.383636 0.781101 0.610308 -0.244915
C18   C     C_R   0.367598 0.215271 0.585287 -0.230764
C19   C     C_R   0.883628 0.281116 0.610327 -0.244880
C20   C     C_R   0.867598 0.715271 0.585290 -0.230779
C21   C     C_R   0.695132 0.169185 0.521895 -0.180572
C22   C     C_R   0.673342 0.807418 0.515547 -0.188669
C23   C     C_R   0.195130 0.669188 0.521892 -0.180559
C24   C     C_R   0.173343 0.307419 0.515547 -0.188665
C25   C     C_R   0.678775 0.153246 0.706586 -0.323207
C26   C     C_R   0.671250 0.835904 0.701990 -0.304099
C27   C     C_R   0.178794 0.653216 0.706586 -0.323341
C28   C     C_R   0.171251 0.335904 0.701990 -0.304090
C29   C     C_R   0.373752 0.823896 0.419916 -0.096364
C30   C     C_R   0.356327 0.156382 0.407520 -0.085956
C31   C     C_R   0.873762 0.323888 0.419926 -0.096379
C32   C     C_R   0.856328 0.656383 0.407521 -0.085963
C33   C     C_R   0.643090 0.995671 0.132163 -0.272481
C34   C     C_R   0.143089 0.495669 0.132163 -0.272497
C35   C     C_R   0.378580 0.001675 0.762699 0.066702
C36   C     C_R   0.878580 0.501674 0.762699 0.066718
C37   C     C_R   0.352637 0.002817 0.859309 -0.198117
C38   C     C_R   0.852637 0.502816 0.859309 -0.198052
C39   C     C_R   0.590251 0.899027 0.557332 0.884160
C40   C     C_R   0.592151 0.099893 0.557635 0.884892
C41   C     C_R   0.090252 0.399027 0.557332 0.884160
C42   C     C_R   0.092152 0.599892 0.557635 0.884882
C43   C     C_R   0.398726 0.002108 0.955109 -0.146226
C44   C     C_R   0.898726 0.502108 0.955109 -0.146210
C45   C     C_R   0.471315 0.000314 0.954069 0.034889
C46   C     C_R   0.971315 0.500316 0.954069 0.034886
C47   C     C_R   0.494931 0.999327 0.853500 0.263346
C48   C     C_R   0.994931 0.499327 0.853500 0.263350
C49   C     C_R   0.521184 0.999583 0.048096 -0.002847
C50   C     C_R   0.021184 0.499585 0.048096 -0.002848
C51   C     C_R   0.593245 0.996906 0.039889 0.188294
C52   C     C_R   0.093245 0.496906 0.039890 0.188291
C53   C     C_R   0.614790 0.995586 0.939787 -0.296426
C54   C     C_R   0.114790 0.495586 0.939788 -0.296457
C55   C     C_R   0.566178 0.997671 0.847877 -0.211515
C56   C     C_R   0.066178 0.497671 0.847877 -0.211524
C57   C     C_R   0.502613 0.001283 0.150858 -0.038050
C58   C     C_R   0.002613 0.501286 0.150858 -0.038060
C59   C     C_R   0.621037 0.997025 0.231468 0.064864
C60   C     C_R   0.121037 0.497022 0.231468 0.064877
C61   C     C_R   0.744864 0.185908 0.741725 0.574977
C62   C     C_R   0.732672 0.795887 0.731394 0.562064
C63   C     C_R   0.244893 0.685862 0.741723 0.575075
C64   C     C_R   0.232673 0.295888 0.731393 0.562078
C65   C     C_R   0.654686 0.144270 0.596965 -0.140386
C66   C     C_R   0.644190 0.844889 0.593503 -0.144858
C67   C     C_R   0.154691 0.644264 0.596966 -0.140330
C68   C     C_R   0.144191 0.344890 0.593504 -0.144867
C69   C     C_R   0.353440 0.804834 0.311389 -0.271574
C70   C     C_R   0.321316 0.150025 0.302314 -0.277460
C71   C     C_R   0.853462 0.304811 0.311401 -0.271576
C72   C     C_R   0.821318 0.650028 0.302313 -0.277459
C73   C     C_R   0.313725 0.739718 0.284088 -0.204729
C74   C     C_R   0.253706 0.174966 0.277603 -0.219411
C75   C     C_R   0.813753 0.239690 0.284108 -0.204714
C76   C     C_R   0.753708 0.674969 0.277601 -0.219410
C77   C     C_R   0.288354 0.696790 0.363752 0.529053
C78   C     C_R   0.220238 0.205558 0.357607 0.534544
C79   C     C_R   0.788374 0.196772 0.363775 0.529065
C80   C     C_R   0.720239 0.705560 0.357606 0.534535
C81   C     C_R   0.301070 0.721964 0.472521 -0.015541
C82   C     C_R   0.259303 0.224002 0.460481 -0.021320
C83   C     C_R   0.801077 0.221959 0.472538 -0.015545
C84   C     C_R   0.759303 0.724002 0.460481 -0.021321
C85   C     C_R   0.353482 0.776448 0.501355 -0.037565
C86   C     C_R   0.328370 0.199531 0.483975 -0.035568
C87   C     C_R   0.853486 0.276448 0.501371 -0.037565
C88   C     C_R   0.828370 0.699531 0.483976 -0.035563
H1    H     H_    0.645966 0.135373 0.764549 0.178035
H2    H     H_    0.647750 0.863932 0.763545 0.182772
H3    H     H_    0.145987 0.635332 0.764546 0.177989
H4    H     H_    0.147750 0.363931 0.763544 0.182776
H5    H     H_    0.669456 0.993238 0.932388 0.155527
H6    H     H_    0.169455 0.493235 0.932389 0.155536
H7    H     H_    0.698144 0.993533 0.127452 0.151955
H8    H     H_    0.198143 0.493528 0.127452 0.151951
H9    H     H_    0.449726 0.003347 0.165799 0.122011
H10   H     H_    0.949726 0.503352 0.165800 0.122016
H11   H     H_    0.343282 0.002300 0.687563 0.135752
H12   H     H_    0.843282 0.502299 0.687562 0.135756
H13   H     H_    0.375923 0.002907 0.027904 0.127072
H14   H     H_    0.875923 0.502908 0.027904 0.127075
H15   H     H_    0.297155 0.004286 0.860007 0.144399
H16   H     H_    0.797155 0.504285 0.860007 0.144411
H17   H     H_    0.585971 0.998089 0.773429 0.208634
H18   H     H_    0.085971 0.498088 0.773430 0.208636
H19   H     H_    0.672659 0.168470 0.437986 0.217394
H20   H     H_    0.653765 0.819183 0.432493 0.228919
H21   H     H_    0.172648 0.668488 0.437986 0.217372
H22   H     H_    0.153766 0.319184 0.432494 0.228919
H23   H     H_    0.369530 0.839325 0.247551 0.192160
H24   H     H_    0.343095 0.118250 0.242306 0.177710
H25   H     H_    0.869558 0.339294 0.247560 0.192172
H26   H     H_    0.843098 0.618255 0.242305 0.177714
H27   H     H_    0.302352 0.722532 0.200752 0.177484
H28   H     H_    0.224835 0.163741 0.198630 0.166128
H29   H     H_    0.802388 0.222494 0.200776 0.177466
H30   H     H_    0.724838 0.663746 0.198627 0.166132
H31   H     H_    0.433073 0.809659 0.633922 0.206061
H32   H     H_    0.422830 0.204546 0.600734 0.192368
H33   H     H_    0.933065 0.309673 0.633947 0.206065
H34   H     H_    0.922830 0.704546 0.600738 0.192366
H35   H     H_    0.658098 0.995350 0.304517 0.151929
H36   H     H_    0.158097 0.495344 0.304517 0.151921
N1    N     N_R   0.552340 0.000000 0.237260 -0.111344
N2    N     N_R   0.052340 0.500000 0.237260 -0.111344
N3    N     N_R   0.448170 0.000000 0.762060 -0.131553
N4    N     N_R   0.948170 0.500000 0.762060 -0.131557
O1    O     O_R   0.448200 0.076800 0.373930 -0.612512
O2    O     O_R   0.448200 0.923200 0.373930 -0.611952
O3    O     O_R   0.948200 0.576800 0.373930 -0.612514
O4    O     O_R   0.948200 0.423200 0.373930 -0.611954
O5    O     O_R   0.414750 0.076790 0.542400 -0.614584
O6    O     O_R   0.414750 0.923210 0.542400 -0.619386
O7    O     O_R   0.914750 0.576790 0.542400 -0.614580
O8    O     O_R   0.914750 0.423210 0.542400 -0.619389
O9    O     O_R   0.585240 0.923200 0.457600 -0.620472
O10   O     O_R   0.585240 0.076800 0.457600 -0.607095
O11   O     O_R   0.085240 0.423200 0.457600 -0.620473
O12   O     O_R   0.085240 0.576800 0.457600 -0.607090
O13   O     O_R   0.551780 0.923190 0.626070 -0.641736
O14   O     O_R   0.551780 0.076810 0.626070 -0.630964
O15   O     O_R   0.051780 0.423190 0.626070 -0.641741
O16   O     O_R   0.051780 0.576810 0.626070 -0.630961
Zn1   Zn    Zn3+2 0.522330 0.000000 0.387520 0.956485
Zn2   Zn    Zn3+2 0.022330 0.500000 0.387520 0.956485
Zn3   Zn    Zn3+2 0.477660 0.000000 0.612480 0.941855
Zn4   Zn    Zn3+2 0.977660 0.500000 0.612480 0.941853
Cl1   Cl    Cl    0.395781 0.757626 0.823721 -0.573254
Cl2   Cl    Cl    0.391109 0.251101 0.794803 -0.564999
Cl3   Cl    Cl    0.895740 0.257683 0.823748 -0.573376
Cl4   Cl    Cl    0.891107 0.751093 0.794808 -0.565034
O17   O     O_3   0.765579 0.202163 0.849749 -0.553861
C89   C     C_3   0.759781 0.137366 0.915019 -0.238506
H37   H     H_    0.796053 0.144695 0.991298 0.206402
H38   H     H_    0.774198 0.083928 0.877384 0.144972
H39   H     H_    0.706572 0.132574 0.936201 0.159144
O18   O     O_3   0.760682 0.792617 0.838855 -0.559017
C90   C     C_3   0.730905 0.729488 0.885592 -0.232394
H40   H     H_    0.742094 0.675498 0.846348 0.153870
H41   H     H_    0.673882 0.736092 0.882571 0.152385
H42   H     H_    0.754340 0.725588 0.971465 0.199127
O19   O     O_3   0.265641 0.702084 0.849753 -0.553860
C91   C     C_3   0.259692 0.637338 0.915044 -0.238680
H43   H     H_    0.296002 0.644571 0.991297 0.206394
H44   H     H_    0.273941 0.583844 0.877407 0.144909
H45   H     H_    0.206493 0.632741 0.936269 0.159296
O20   O     O_3   0.260681 0.292615 0.838854 -0.559008
C92   C     C_3   0.230918 0.229472 0.885579 -0.232408
H46   H     H_    0.242126 0.175490 0.846331 0.153875
H47   H     H_    0.173892 0.236055 0.882548 0.152364
H48   H     H_    0.254348 0.225572 0.971454 0.199132
O21   O     O_3   0.755262 0.128343 0.334376 -0.635391
C93   C     C_3   0.801629 0.069026 0.368383 -0.333975
H49   H     H_    0.809509 0.062764 0.457405 0.182233
H50   H     H_    0.852506 0.077567 0.339297 0.167696
H51   H     H_    0.779102 0.014835 0.333801 0.181144
O22   O     O_3   0.648918 0.712403 0.334537 -0.628337
C94   C     C_3   0.617686 0.647634 0.374926 -0.309507
H52   H     H_    0.631284 0.642994 0.463880 0.165439
H53   H     H_    0.632160 0.594849 0.336026 0.166825
H54   H     H_    0.560451 0.653015 0.356101 0.202087
O23   O     O_3   0.255242 0.628363 0.334347 -0.635385
C95   C     C_3   0.301616 0.569047 0.368320 -0.333940
H55   H     H_    0.309511 0.562773 0.457341 0.182237
H56   H     H_    0.352486 0.577597 0.339215 0.167701
H57   H     H_    0.279088 0.514858 0.333731 0.181131
O24   O     O_3   0.148917 0.212403 0.334539 -0.628336
C96   C     C_3   0.117684 0.147637 0.374931 -0.309547
H58   H     H_    0.131282 0.142999 0.463885 0.165441
H59   H     H_    0.132158 0.094850 0.336035 0.166823
H60   H     H_    0.060449 0.153019 0.356106 0.202085

loop_
_geom_bond_atom_site_label_1
_geom_bond_atom_site_label_2
_ccdc_geom_bond_type
C83   C87   A    
C39   O9    A    
O11   Zn2   S    
C40   O14   A    
C11   C13   A    
C92   H46   S    
C14   C18   A    
C53   C55   A    
O19   C91   S    
C75   H29   S    
C72   C76   A    
O8    Zn4   S    
C15   Cl3   S    
O22   C94   S    
N2    Zn2   S    
C91   H44   S    
C4    O4    A    
C10   C62   A    
O21   C93   S    
C15   C19   A    
O6    Zn3   S    
C2    O6    A    
C55   H17   S    
C2    C29   S    
C9    C61   A    
O9    Zn1   S    
C91   H43   S    
C28   C68   A    
C34   H8    S    
C41   O15   A    
C11   C63   A    
C57   N1    A    
C12   C64   A    
C1    O5    A    
O10   Zn1   S    
C6    C22   A    
C72   H26   S    
C49   C57   A    
C95   H55   S    
C71   H25   S    
O3    Zn2   S    
C96   H59   S    
C23   C67   A    
C60   H36   S    
C79   O21   S    
C93   H49   S    
C22   C66   A    
C38   H16   S    
C77   O23   S    
C39   O13   A    
C44   C46   A    
C49   C51   A    
C58   H10   S    
C70   C74   A    
C50   C52   A    
C90   H41   S    
C27   H3    S    
O5    Zn3   S    
C45   C49   A    
C8    C12   A    
C30   C86   A    
C63   O19   S    
C89   H38   S    
O16   Zn4   S    
C4    O8    A    
C94   H54   S    
C21   C65   A    
C31   C71   A    
C26   C62   A    
C1    O1    A    
C74   H28   S    
C33   C59   A    
O2    Zn1   S    
C34   C60   A    
C92   H47   S    
C36   N4    A    
C35   H11   S    
C33   H7    S    
C30   C70   A    
C52   C54   A    
C38   C44   A    
C41   C68   S    
C29   C69   A    
C45   C47   A    
C59   H35   S    
O15   Zn4   S    
C23   H21   S    
C54   C56   A    
C71   C75   A    
C6    C84   A    
C53   H5    S    
C80   C84   A    
C26   C66   A    
C84   C88   A    
C31   C87   A    
C89   H39   S    
C32   C72   A    
O12   Zn2   S    
C37   H15   S    
O13   Zn3   S    
N4    Zn4   S    
C25   C61   A    
C25   H1    S    
C17   C85   A    
C82   C86   A    
C24   C68   A    
C42   O12   A    
C76   H30   S    
C40   O10   A    
O24   C96   S    
C51   C53   A    
C80   O22   S    
C37   C43   A    
C96   H60   S    
C7    C11   A    
O23   C95   S    
C43   H13   S    
C5    C9    A    
C54   H6    S    
C48   N4    A    
C78   C82   A    
C90   H40   S    
C2    O2    A    
C77   C81   A    
C26   H2    S    
C16   C20   A    
C57   H9    S    
C14   Cl2   S    
C62   O18   S    
C90   H42   S    
C24   H22   S    
C3    C32   S    
C16   Cl4   S    
C18   C86   A    
C69   C73   A    
C43   C45   A    
C93   H51   S    
C56   H18   S    
C89   H37   S    
C21   H19   S    
C70   H24   S    
C28   C64   A    
O20   C92   S    
C7    C81   A    
C12   C14   A    
C58   N2    A    
C78   O24   S    
C40   C65   S    
C42   O16   A    
C42   C67   S    
C39   C66   S    
C3    O3    A    
C59   N1    A    
C18   H32   S    
C35   N3    A    
C47   C55   A    
C48   C56   A    
C19   H33   S    
C44   H14   S    
C35   C37   A    
C20   H34   S    
O14   Zn3   S    
C91   H45   S    
C76   C80   A    
C61   O17   S    
C6    C10   A    
C36   H12   S    
C5    C83   A    
C47   N3    A    
C33   C51   A    
C46   C50   A    
C34   C52   A    
C73   H27   S    
C95   H57   S    
C13   C17   A    
O4    Zn2   S    
C36   C38   A    
C9    C15   A    
C19   C87   A    
C29   C85   A    
C64   O20   S    
N1    Zn1   S    
C79   C83   A    
C69   H23   S    
O18   C90   S    
C7    C23   A    
C20   C88   A    
C60   N2    A    
C1    C30   S    
C8    C24   A    
C95   H56   S    
C3    O7    A    
O1    Zn1   S    
C22   H20   S    
C96   H58   S    
C93   H50   S    
C41   O11   A    
C4    C31   S    
C27   C67   A    
C17   H31   S    
C13   Cl1   S    
C94   H52   S    
C28   H4    S    
C46   C48   A    
C8    C82   A    
C5    C21   A    
O7    Zn4   S    
C74   C78   A    
C25   C65   A    
C73   C77   A    
C27   C63   A    
C10   C16   A    
C92   H48   S    
O17   C89   S    
C75   C79   A    
C81   C85   A    
C50   C58   A    
N3    Zn3   S    
C94   H53   S    
C32   C88   A    
