data_mof_unit_46671.cif
_audit_creation_date              2012-12-10T20:48:20-0500
_audit_creation_method            fapswitch 2.2
_symmetry_space_group_name_H-M    P1
_symmetry_Int_Tables_number       1
_space_group_crystal_system       triclinic
_cell_length_a                    10.875731
_cell_length_b                    8.956175
_cell_length_c                    8.150506
_cell_angle_alpha                 90.531234
_cell_angle_beta                  90.783793
_cell_angle_gamma                 88.893017
_cell_volume                      793.644976726

loop_
_atom_site_label
_atom_site_type_symbol
_atom_type_description
_atom_site_fract_x
_atom_site_fract_y
_atom_site_fract_z
_atom_type_partial_charge
C1    C     C_R   0.501245 0.218102 0.499530 0.937030
C2    C     C_1   0.503994 0.934708 0.500805 -0.222065
C3    C     C_3   0.064634 0.685219 0.420718 0.355903
C4    C     C_3   0.914995 0.670710 0.414657 0.330547
C5    C     C_3   0.119907 0.528781 0.494691 -0.083633
C6    C     C_3   0.877393 0.519541 0.502713 -0.079637
C7    C     C_3   0.139269 0.590649 0.824920 -0.822606
C8    C     C_3   0.112749 0.370840 0.209895 -0.807068
C9    C     C_3   0.874928 0.645117 0.800003 -0.835268
C10   C     C_3   0.860347 0.295946 0.275880 -0.814171
C11   C     C_3   0.153975 0.949018 0.487849 -0.818823
C12   C     C_R   0.257355 0.516129 0.498730 0.924424
C13   C     C_3   0.231911 0.748929 0.209274 -0.704713
C14   C     C_3   0.866699 0.950258 0.441231 -0.800093
C15   C     C_3   0.771060 0.750005 0.171979 -0.709610
C16   C     C_R   0.742203 0.504727 0.501391 0.896187
C17   C     C_R   0.502254 0.781772 0.500597 0.888746
C18   C     C_1   0.503393 0.065089 0.499353 -0.210850
C19   C     C_3   0.071300 0.508195 0.679588 -0.058396
C20   C     C_3   0.072690 0.387908 0.392580 -0.048290
C21   C     C_3   0.928468 0.521479 0.683821 -0.057077
C22   C     C_3   0.932811 0.371857 0.419465 -0.073526
H1    H     H_    0.091905 0.388573 0.708461 0.134323
H2    H     H_    0.211764 0.345630 0.196457 0.255888
H3    H     H_    0.778793 0.680889 0.778699 0.255715
H4    H     H_    0.874823 0.596147 0.921825 0.225662
H5    H     H_    0.926343 0.749468 0.806749 0.237291
H6    H     H_    0.906592 0.190962 0.236891 0.215204
H7    H     H_    0.769351 0.258200 0.316877 0.240141
H8    H     H_    0.847563 0.367073 0.166797 0.258840
H9    H     H_    0.057629 0.814640 0.643469 0.254122
H10   H     H_    0.122097 0.038707 0.573121 0.214427
H11   H     H_    0.128109 0.983972 0.362035 0.255735
H12   H     H_    0.117082 0.287712 0.450209 0.131855
H13   H     H_    0.254931 0.942375 0.502515 0.245905
H14   H     H_    0.048817 0.790401 0.188255 0.223144
H15   H     H_    0.236145 0.853966 0.137912 0.202227
H16   H     H_    0.269004 0.658312 0.129839 0.260779
H17   H     H_    0.289443 0.763524 0.318922 0.275703
H18   H     H_    0.764734 0.781942 0.534941 0.216560
H19   H     H_    0.775452 0.999451 0.407378 0.225462
H20   H     H_    0.925636 0.954523 0.332459 0.256497
H21   H     H_    0.904620 0.019385 0.542497 0.245765
H22   H     H_    0.916599 0.589037 0.168444 0.217965
H23   H     H_    0.896970 0.416200 0.741186 0.151218
H24   H     H_    0.718076 0.681575 0.082950 0.239899
H25   H     H_    0.810278 0.845848 0.106662 0.215146
H26   H     H_    0.704194 0.790242 0.263291 0.269819
H27   H     H_    0.925975 0.283784 0.514441 0.121098
H28   H     H_    0.205161 0.512144 0.886333 0.244052
H29   H     H_    0.192971 0.687428 0.785831 0.255012
H30   H     H_    0.080525 0.628685 0.926103 0.235450
H31   H     H_    0.073865 0.271608 0.148950 0.215218
H32   H     H_    0.087123 0.467579 0.135499 0.251174
N1    N     N_1   0.500000 0.500030 0.073640 -0.061435
N2    N     N_1   0.500000 0.500030 0.926360 -0.055152
N3    N     N_2   0.100983 0.807512 0.533525 -0.295235
N4    N     N_2   0.106139 0.717948 0.252068 -0.333744
N5    N     N_2   0.853333 0.798648 0.497646 -0.295034
N6    N     N_2   0.869467 0.659337 0.244805 -0.311483
O1    O     O_R   0.500000 0.285340 0.636850 -0.608815
O2    O     O_R   0.500000 0.285340 0.363150 -0.620772
O3    O     O_R   0.314790 0.499970 0.636880 -0.624914
O4    O     O_R   0.314790 0.499970 0.363120 -0.626398
O5    O     O_R   0.685210 0.499970 0.636880 -0.642601
O6    O     O_R   0.685210 0.499970 0.363120 -0.593580
O7    O     O_R   0.500000 0.714650 0.636900 -0.615528
O8    O     O_R   0.500000 0.714650 0.363100 -0.640703
Zn1   Zn    Zn3+2 0.500000 0.499990 0.682780 0.951897
Zn2   Zn    Zn3+2 0.500000 0.499990 0.317220 0.939192

loop_
_geom_bond_atom_site_label_1
_geom_bond_atom_site_label_2
_ccdc_geom_bond_type
C8    H31   S    
C11   H10   S    
C19   H1    S    
N1    N2    T    
C5    C19   S    
O4    Zn2   S    
C9    H4    S    
C2    C18   T    
C15   N6    S    
C10   H8    S    
C21   H23   S    
C9    H3    S    
C9    H5    S    
C15   H25   S    
C14   H20   S    
C20   H12   S    
C1    O2    A    
H9    N3    S    
C11   H13   S    
C13   H16   S    
C7    H29   S    
H18   N5    S    
O6    Zn2   S    
C10   C22   S    
C2    C17   S    
C14   N5    S    
O7    Zn1   S    
C10   H7    S    
C4    N6    S    
C1    C18   S    
C8    C20   S    
C15   H26   S    
H22   N6    S    
C14   H19   S    
O5    Zn1   S    
C3    N3    S    
C4    N5    S    
C17   O7    A    
C19   C21   S    
C20   C22   S    
C7    H30   S    
C12   O3    A    
C16   O5    A    
C7    C19   S    
O1    Zn1   S    
C22   H27   S    
C13   H15   S    
C12   O4    A    
C13   H17   S    
N1    Zn2   S    
C16   O6    A    
H14   N4    S    
C10   H6    S    
C3    C4    S    
C9    C21   S    
C3    N4    S    
C11   H11   S    
O2    Zn2   S    
C5    C12   S    
C4    C6    S    
N2    Zn1   S    
C8    H32   S    
C5    C20   S    
O8    Zn2   S    
C17   O8    A    
C13   N4    S    
C15   H24   S    
C8    H2    S    
C11   N3    S    
C6    C21   S    
C6    C16   S    
O3    Zn1   S    
C7    H28   S    
C1    O1    A    
C14   H21   S    
C3    C5    S    
C6    C22   S    
