data_mof_unit_33985.cif
_audit_creation_date              2013-03-05T15:42:16-0500
_audit_creation_method            fapswitch 2.2
_symmetry_space_group_name_H-M    P1
_symmetry_Int_Tables_number       1
_space_group_crystal_system       triclinic
_cell_length_a                    11.486239
_cell_length_b                    11.701238
_cell_length_c                    19.492302
_cell_angle_alpha                 91.224809
_cell_angle_beta                  89.953127
_cell_angle_gamma                 59.901133
_cell_volume                      2265.85449915

loop_
_atom_site_label
_atom_site_type_symbol
_atom_site_description
_atom_site_fract_x
_atom_site_fract_y
_atom_site_fract_z
_atom_type_partial_charge
O1    O     O_R   0.267740 0.231960 0.575440 -0.514656
O2    O     O_R   0.527280 0.186640 0.570530 -0.480966
C1    C     C_R   0.640760 0.117432 0.599022 0.565042
O3    O     O_R   0.728090 0.003450 0.576380 -0.505839
O4    O     O_R   0.682970 0.789190 0.570490 -0.502294
C2    C     C_R   0.612747 0.746230 0.598558 0.551239
O5    O     O_R   0.499290 0.771880 0.575530 -0.498111
O6    O     O_R   0.285330 0.030870 0.569730 -0.492134
C3    C     C_R   0.240934 0.145693 0.597906 0.539775
O7    O     O_R   0.270980 0.227080 0.423890 -0.513391
O8    O     O_R   0.530280 0.182120 0.430050 -0.406392
C4    C     C_R   0.623637 0.083693 0.393911 0.561488
O9    O     O_R   0.731330 0.998570 0.424830 -0.538338
O10   O     O_R   0.685970 0.784660 0.430010 -0.528898
C5    C     C_R   0.619243 0.729181 0.405521 0.534745
O11   O     O_R   0.502530 0.767000 0.423990 -0.537754
O12   O     O_R   0.288330 0.026350 0.429250 -0.509981
C6    C     C_R   0.244711 0.139270 0.400894 0.520826
Cr1   Cr    Cr6+3 0.404720 0.198220 0.499960 1.079480
Cr2   Cr    Cr6+3 0.698290 0.897110 0.500380 1.004876
Cr3   Cr    Cr6+3 0.396970 0.904720 0.499610 1.028896
O13   O     O_3   0.499990 0.000020 0.499980 -0.278467
C7    C     C_1   0.670635 0.645756 0.860201 0.001548
C8    C     C_1   0.655268 0.683879 0.728340 -0.030964
C9    C     C_1   0.663845 0.666239 0.799731 -0.032392
C10   C     C_1   0.641744 0.704408 0.667867 0.005361
C11   C     C_1   0.127231 0.198149 0.859426 0.003623
C12   C     C_1   0.170775 0.171404 0.727545 -0.031394
C13   C     C_1   0.150308 0.182178 0.798874 -0.032229
C14   C     C_1   0.194354 0.162501 0.667093 0.005562
C15   C     C_1   0.678455 0.190466 0.861049 0.004065
C16   C     C_1   0.658323 0.167529 0.729055 -0.031999
C17   C     C_1   0.665451 0.180447 0.800488 -0.031665
C18   C     C_1   0.652897 0.150242 0.668478 0.004619
H1    H     H_    0.855372 0.592295 0.340601 0.140248
C19   C     C_R   0.684871 0.565223 0.206280 0.010510
C20   C     C_R   0.554703 0.607353 0.239232 0.009921
C21   C     C_R   0.548929 0.627818 0.310746 -0.034925
C22   C     C_R   0.777205 0.587410 0.313497 -0.163253
C23   C     C_R   0.795613 0.541030 0.246052 -0.170703
C24   C     C_R   0.428454 0.633783 0.206910 0.249590
C25   C     C_R   0.306924 0.705833 0.244544 -0.123489
C26   C     C_R   0.309249 0.706729 0.315538 0.257168
C27   C     C_R   0.433306 0.644905 0.346166 0.024146
C28   C     C_R   0.653136 0.640365 0.344562 0.023436
H2    H     H_    0.894020 0.499991 0.222379 0.134417
H3    H     H_    0.211420 0.739240 0.220075 0.098747
H4    H     H_    0.435583 0.623043 0.400051 0.214259
H5    H     H_    0.268059 0.954420 0.305652 0.130541
C29   C     C_R   0.161705 0.194885 0.188710 0.010347
C30   C     C_R   0.163304 0.292399 0.232167 0.006608
C31   C     C_R   0.145826 0.285520 0.302549 0.003617
C32   C     C_R   0.220867 0.053310 0.286709 -0.166689
C33   C     C_R   0.195097 0.072704 0.216650 -0.147954
C34   C     C_R   0.176798 0.398375 0.208706 -0.151750
C35   C     C_R   0.151251 0.503621 0.253134 -0.061465
C36   C     C_R   0.105369 0.509420 0.320306 0.313614
C37   C     C_R   0.097926 0.400633 0.343461 -0.080894
C38   C     C_R   0.188895 0.161338 0.331210 0.003058
H6    H     H_    0.208203 0.400284 0.156614 0.151027
H7    H     H_    0.203145 0.992484 0.184361 0.122262
H8    H     H_    0.155873 0.586166 0.233288 0.137322
H9    H     H_    0.057007 0.403027 0.393804 0.107088
C39   C     C_R   0.651640 0.180640 0.185774 -0.035723
C40   C     C_R   0.695406 0.048897 0.201137 0.022972
C41   C     C_R   0.702430 0.013086 0.270635 -0.038946
C42   C     C_R   0.584944 0.247344 0.303783 0.202371
C43   C     C_R   0.592928 0.278187 0.236647 -0.137102
C44   C     C_R   0.742755 0.950708 0.148444 -0.076473
C45   C     C_R   0.818832 0.818942 0.164259 -0.118486
C46   C     C_R   0.840384 0.784211 0.232304 -0.107151
C47   C     C_R   0.776800 0.877700 0.285065 -0.102447
C48   C     C_R   0.641225 0.113995 0.322589 -0.014572
H10   H     H_    0.727706 0.975850 0.094779 0.126785
H11   H     H_    0.564547 0.377896 0.225863 0.182280
H12   H     H_    0.865042 0.744348 0.123836 0.135371
H13   H     H_    0.906656 0.683882 0.244001 0.136623
H14   H     H_    0.794346 0.841873 0.336384 0.183870
O14   O     O_R   0.821500 0.119340 0.952830 -0.509798
O15   O     O_R   0.037130 0.162530 0.957360 -0.492743
C49   C     C_R   0.081806 0.231117 0.928825 0.545186
O16   O     O_R   0.056440 0.344740 0.951340 -0.506690
O17   O     O_R   0.797900 0.560360 0.957470 -0.490641
C50   C     C_R   0.683902 0.604027 0.929519 0.554072
O18   O     O_R   0.596130 0.579390 0.952730 -0.513427
O19   O     O_R   0.639060 0.321160 0.958670 -0.500239
C51   C     C_R   0.708039 0.206512 0.930385 0.540893
O20   O     O_R   0.821240 0.124200 0.104370 -0.520077
O21   O     O_R   0.036890 0.167040 0.097840 -0.498541
C52   C     C_R   0.088510 0.234643 0.123459 0.528780
O22   O     O_R   0.056180 0.349610 0.102880 -0.541942
O23   O     O_R   0.797660 0.564870 0.097950 -0.517960
C53   C     C_R   0.708238 0.544771 0.132035 0.578886
O24   O     O_R   0.595880 0.584250 0.104270 -0.470738
O25   O     O_R   0.638830 0.325670 0.099150 -0.479436
C54   C     C_R   0.703412 0.210530 0.124536 0.533007
Cr4   Cr    Cr6+3 0.926180 0.151990 0.028120 1.008377
Cr5   Cr    Cr6+3 0.921330 0.451820 0.027470 0.999811
Cr6   Cr    Cr6+3 0.626260 0.446870 0.028710 1.031119
O26   O     O_3   0.824590 0.350230 0.028100 -0.276325
O27   O     O_3   0.055318 0.627916 0.357561 -0.557733
C55   C     C_3   0.059404 0.612452 0.429411 -0.055066
H15   H     H_    0.157529 0.528961 0.446058 0.164342
H16   H     H_    0.973806 0.601429 0.447283 0.088079
H17   H     H_    0.047279 0.703624 0.454736 0.155314
N1    N     N_R   0.530414 0.353044 0.353505 0.066828
O28   O     O_R   0.401003 0.418858 0.364276 -0.338119
O29   O     O_R   0.610054 0.364463 0.397080 -0.360877
O30   O     O_3   0.426389 0.557392 0.151517 -0.537256
C56   C     C_3   0.324088 0.632674 0.104179 -0.073634
H18   H     H_    0.305446 0.735341 0.099756 0.103779
H19   H     H_    0.229790 0.633554 0.117876 0.074706
H20   H     H_    0.356427 0.584085 0.052719 0.148815
O31   O     O_3   0.196448 0.740022 0.355265 -0.522671
C57   C     C_3   0.096215 0.873460 0.347882 -0.092695
H21   H     H_    0.076996 0.905062 0.293747 0.103622
H22   H     H_    0.121276 0.938224 0.379205 0.130224
H23   H     H_    0.000129 0.887378 0.368888 0.181309

loop_
_geom_bond_atom_site_label_1
_geom_bond_atom_site_label_2
_geom_bond_distance
_ccdc_geom_bond_type
C34   C35   1.394368 A    
O20   C54   1.271830 A    
O11   Cr3   2.043406 S    
O15   Cr4   1.924511 S    
C11   C13   1.199443 T    
C24   C25   1.410316 A    
O25   C54   1.279455 A    
O14   C51   1.271610 A    
C49   O16   1.277287 A    
C32   C38   1.404330 A    
O23   Cr5   1.920807 S    
O4    Cr2   1.946663 S    
C32   C33   1.396626 A    
C43   H11   1.068081 S    
C23   H2    1.080005 S    
O8    Cr1   1.919826 S    
C53   O24   1.259262 A    
C39   C43   1.385433 A    
Cr3   O13   1.991721 S    
C12   C13   1.402320 S    
C8    C10   1.202623 T    
C26   O31   1.381801 S    
O4    C2    1.272929 A    
O25   Cr6   1.948213 S    
N1    O28   1.300429 A    
C5    O11   1.232882 A    
C35   C36   1.398527 A    
C55   H17   1.108856 S    
C56   H18   1.114866 S    
C21   C28   1.435998 A    
C47   H14   1.072627 S    
C19   C53   1.464177 S    
C29   C52   1.475044 S    
C41   C47   1.407342 A    
O17   C50   1.270625 A    
O6    C3    1.283612 A    
C57   H22   1.108705 S    
O17   Cr5   1.938053 S    
C15   C17   1.200628 T    
C45   C46   1.381427 A    
C42   C48   1.414255 A    
O20   Cr4   2.044153 S    
C22   C28   1.370531 A    
C24   O30   1.394807 S    
C4    C48   1.480447 S    
O16   Cr5   2.036392 S    
C44   C45   1.380317 A    
O12   C6    1.292304 A    
C36   C37   1.401803 A    
O1    Cr1   2.035784 S    
C15   C51   1.425211 S    
C7    C50   1.428711 S    
C30   C31   1.396220 A    
O27   C55   1.413789 S    
O10   Cr2   1.934625 S    
C11   C49   1.423257 S    
Cr1   O13   2.007656 S    
O1    C3    1.279036 A    
C50   O18   1.265131 A    
C39   C54   1.458104 S    
C22   C23   1.386200 A    
O19   C51   1.277883 A    
C1    C18   1.425324 S    
O5    Cr3   2.063071 S    
C41   C48   1.424475 A    
O12   Cr3   1.941297 S    
C42   C43   1.379994 A    
O21   Cr4   1.926704 S    
C16   C18   1.200661 T    
H1    C22   1.067462 S    
C26   C27   1.377024 A    
C21   C27   1.416585 A    
C20   C21   1.405176 A    
O18   Cr6   2.068449 S    
C31   C38   1.407987 A    
Cr6   O26   1.970808 S    
C19   C23   1.396060 A    
O7    Cr1   2.043846 S    
C57   H23   1.108320 S    
C29   C30   1.414051 A    
C44   H10   1.083103 S    
C29   C33   1.404037 A    
C8    C9    1.407434 S    
C55   H16   1.110520 S    
O19   Cr6   1.935495 S    
C56   H20   1.109316 S    
C31   C37   1.401081 A    
C3    C14   1.423246 S    
Cr2   O13   1.971693 S    
Cr5   O26   1.993336 S    
C45   H12   1.081507 S    
C35   H8    1.073665 S    
C25   C26   1.384025 A    
C5    C28   1.477907 S    
C1    O3    1.269677 A    
C46   H13   1.060691 S    
Cr4   O26   2.006887 S    
C37   H9    1.081442 S    
C19   C20   1.461735 A    
O9    Cr2   2.061041 S    
O2    Cr1   1.926694 S    
O14   Cr4   2.045752 S    
O15   C49   1.283925 A    
O6    Cr3   1.924521 S    
O8    C4    1.303045 A    
C42   N1    1.425535 S    
O31   C57   1.411040 S    
C2    O5    1.266605 A    
C33   H7    1.083236 S    
C36   O27   1.391825 S    
C16   C17   1.404257 S    
C12   C14   1.199443 T    
O2    C1    1.274733 A    
C46   C47   1.391807 A    
O30   C56   1.416505 S    
C39   C40   1.400531 A    
C52   O22   1.277017 A    
C2    C10   1.428667 S    
N1    O29   1.301960 A    
O24   Cr6   2.051936 S    
O7    C6    1.280305 A    
C40   C44   1.411632 A    
O23   C53   1.341487 A    
C30   C34   1.409871 A    
C25   H3    1.078140 S    
C7    C9    1.202637 T    
O22   Cr5   2.052082 S    
C20   C24   1.468152 A    
C55   H15   1.113466 S    
C56   H19   1.110320 S    
H5    C32   1.076380 S    
O3    Cr2   2.051651 S    
C6    C38   1.474141 S    
C4    O9    1.294828 A    
C40   C41   1.416967 A    
O10   C5    1.312669 A    
C57   H21   1.110912 S    
O21   C52   1.296418 A    
C34   H6    1.081718 S    
C27   H4    1.083584 S    
