data_mof_unit_65819.cif
_audit_creation_date              2012-12-10T18:41:37-0500
_audit_creation_method            fapswitch 2.2
_symmetry_space_group_name_H-M    P1
_symmetry_Int_Tables_number       1
_space_group_crystal_system       triclinic
_cell_length_a                    21.332271
_cell_length_b                    21.332042
_cell_length_c                    47.127357
_cell_angle_alpha                 90.022633
_cell_angle_beta                  89.996254
_cell_angle_gamma                 90.012264
_cell_volume                      21445.8153245

loop_
_atom_site_label
_atom_site_type_symbol
_atom_type_description
_atom_site_fract_x
_atom_site_fract_y
_atom_site_fract_z
_atom_type_partial_charge
C1    C     C_R   0.121623 0.999695 0.500023 0.874286
C2    C     C_R   0.000226 0.121628 0.500037 0.879703
C3    C     C_R   0.878377 0.000292 0.500026 0.878119
C4    C     C_R   0.999734 0.878377 0.500019 0.876501
C5    C     C_R   0.621622 0.499719 0.000024 0.878859
C6    C     C_R   0.500271 0.621623 0.000029 0.878869
C7    C     C_R   0.378377 0.500279 0.000026 0.878851
C8    C     C_R   0.499729 0.378378 0.000020 0.878865
C9    C     C_3   0.009395 0.230161 0.473864 0.480036
C10   C     C_3   0.769709 0.011794 0.474033 0.484310
C11   C     C_3   0.989109 0.769666 0.473941 0.481979
C12   C     C_3   0.230298 0.988055 0.474028 0.482949
C13   C     C_3   0.511271 0.730279 0.973997 0.482941
C14   C     C_3   0.269706 0.511349 0.973995 0.482933
C15   C     C_3   0.488716 0.269673 0.973977 0.482942
C16   C     C_3   0.730301 0.488613 0.973990 0.482926
C17   C     C_3   0.953550 0.270826 0.482799 -0.218263
C18   C     C_3   0.728944 0.955250 0.481963 -0.239715
C19   C     C_3   0.045385 0.728939 0.482266 -0.237863
C20   C     C_3   0.271062 0.044636 0.481923 -0.238862
C21   C     C_3   0.454878 0.771024 0.982156 -0.237665
C22   C     C_3   0.228940 0.454942 0.982120 -0.237638
C23   C     C_3   0.545113 0.228941 0.982129 -0.237623
C24   C     C_3   0.771065 0.545032 0.982120 -0.237616
C25   C     C_3   0.944632 0.229472 0.509603 -0.208991
C26   C     C_3   0.770524 0.943917 0.508538 -0.213783
C27   C     C_3   0.055839 0.770560 0.508913 -0.213458
C28   C     C_3   0.229478 0.056090 0.508491 -0.214412
C29   C     C_3   0.444041 0.729457 0.008776 -0.213639
C30   C     C_3   0.270522 0.444049 0.008731 -0.213687
C31   C     C_3   0.555962 0.270560 0.008744 -0.213618
C32   C     C_3   0.729474 0.555961 0.008732 -0.213695
C33   C     C_3   0.000404 0.189095 0.499979 -0.060544
C34   C     C_3   0.810921 0.000537 0.499934 -0.109904
C35   C     C_3   0.999511 0.810921 0.499915 -0.109342
C36   C     C_3   0.189081 0.999433 0.499923 -0.108598
C37   C     C_3   0.500496 0.689078 0.999943 -0.110379
C38   C     C_3   0.310922 0.500519 0.999933 -0.110371
C39   C     C_3   0.499503 0.310922 0.999918 -0.110401
C40   C     C_3   0.689078 0.499479 0.999929 -0.110368
C41   C     C_R   0.450368 0.971053 0.398792 -0.094620
C42   C     C_R   0.031566 0.452431 0.398657 -0.084995
C43   C     C_R   0.549621 0.028851 0.398788 -0.094903
C44   C     C_R   0.968617 0.548490 0.398823 -0.095876
C45   C     C_R   0.950405 0.471002 0.898789 -0.094631
C46   C     C_R   0.528951 0.950422 0.898776 -0.094611
C47   C     C_R   0.049597 0.528904 0.898787 -0.094617
C48   C     C_R   0.471066 0.049601 0.898799 -0.094629
C49   C     C_R   0.999998 0.499999 0.555479 0.866274
C50   C     C_R   0.500000 0.000011 0.555479 0.865928
C51   C     C_R   0.499998 1.000000 0.055479 0.865932
C52   C     C_R   0.999989 0.500014 0.055474 0.865986
C53   C     C_R   0.999986 0.378393 0.499852 0.902056
C54   C     C_R   0.621595 0.000006 0.499913 0.901658
C55   C     C_R   0.000008 0.621595 0.499911 0.900998
C56   C     C_R   0.378405 0.999991 0.499907 0.901380
C57   C     C_R   0.499993 0.878404 0.999917 0.901500
C58   C     C_R   0.121596 0.500005 0.999915 0.901440
C59   C     C_R   0.500006 0.121596 0.999912 0.901478
C60   C     C_R   0.878404 0.499995 0.999914 0.901418
C61   C     C_R   0.000009 0.500067 0.444725 0.884449
C62   C     C_R   0.500000 0.999989 0.444738 0.885068
C63   C     C_R   0.500002 0.999999 0.944737 0.885314
C64   C     C_R   0.000000 0.499989 0.944737 0.885318
C65   C     C_R   0.474378 0.049793 0.309733 0.523174
C66   C     C_R   0.950727 0.473463 0.309693 0.523307
C67   C     C_R   0.525553 0.950064 0.309710 0.523330
C68   C     C_R   0.048661 0.528039 0.309675 0.523893
C69   C     C_R   0.974337 0.549771 0.809731 0.523266
C70   C     C_R   0.450155 0.974415 0.809716 0.523265
C71   C     C_R   0.025620 0.450097 0.809708 0.523270
C72   C     C_R   0.549867 0.025664 0.809722 0.523272
C73   C     C_R   0.526011 0.948958 0.279999 -0.019891
C74   C     C_R   0.049766 0.528455 0.279968 -0.020034
C75   C     C_R   0.473915 0.050908 0.280023 -0.019776
C76   C     C_R   0.949604 0.472951 0.279985 -0.019848
C77   C     C_R   0.026078 0.448991 0.779998 -0.019859
C78   C     C_R   0.550971 0.026139 0.780012 -0.019861
C79   C     C_R   0.973872 0.550885 0.780022 -0.019858
C80   C     C_R   0.449036 0.973971 0.780006 -0.019858
C81   C     C_R   0.999984 0.499972 0.646024 0.307921
C82   C     C_R   0.499992 0.000075 0.646024 0.307990
C83   C     C_R   0.499980 0.999969 0.146025 0.307955
C84   C     C_R   0.999819 0.500209 0.146002 0.307426
C85   C     C_R   0.499963 0.999936 0.265097 -0.017846
C86   C     C_R   0.999692 0.500659 0.265064 -0.017929
C87   C     C_R   0.999974 0.499941 0.765095 -0.017861
C88   C     C_R   0.500000 0.000063 0.765095 -0.017862
C89   C     C_R   0.551762 0.898356 0.264917 -0.146729
C90   C     C_R   0.099510 0.555825 0.264892 -0.146795
C91   C     C_R   0.448163 0.101516 0.264964 -0.146884
C92   C     C_R   0.899872 0.445498 0.264925 -0.146692
C93   C     C_R   0.051882 0.398416 0.764915 -0.146893
C94   C     C_R   0.601565 0.051934 0.764945 -0.146887
C95   C     C_R   0.948066 0.601466 0.764963 -0.146891
C96   C     C_R   0.398434 0.948194 0.764932 -0.146889
C97   C     C_R   0.051768 0.398377 0.735333 -0.149722
C98   C     C_R   0.601604 0.051833 0.735363 -0.149710
C99   C     C_R   0.948179 0.601518 0.735381 -0.149715
C100  C     C_R   0.398381 0.948323 0.735350 -0.149714
C101  C     C_R   0.551652 0.898318 0.235335 -0.149634
C102  C     C_R   0.099604 0.555568 0.235312 -0.149662
C103  C     C_R   0.448277 0.101567 0.235382 -0.149678
C104  C     C_R   0.899828 0.445542 0.235344 -0.149648
C105  C     C_R   0.025943 0.448964 0.720268 -0.017420
C106  C     C_R   0.550997 0.026033 0.720282 -0.017429
C107  C     C_R   0.974006 0.550937 0.720292 -0.017421
C108  C     C_R   0.448982 0.974135 0.720276 -0.017434
C109  C     C_R   0.525882 0.948933 0.220269 -0.017432
C110  C     C_R   0.049886 0.528059 0.220246 -0.017307
C111  C     C_R   0.474051 0.050960 0.220293 -0.017406
C112  C     C_R   0.949585 0.472919 0.220261 -0.017359
C113  C     C_R   0.999974 0.499947 0.735194 -0.017646
C114  C     C_R   0.499992 0.000078 0.735194 -0.017641
C115  C     C_R   0.499964 0.999942 0.235195 -0.017628
C116  C     C_R   0.999718 0.500551 0.235166 -0.017665
C117  C     C_R   0.025219 0.449923 0.690549 0.507161
C118  C     C_R   0.550041 0.025315 0.690563 0.507163
C119  C     C_R   0.974734 0.549994 0.690573 0.507156
C120  C     C_R   0.449930 0.974868 0.690557 0.507160
C121  C     C_R   0.525163 0.949893 0.190550 0.507199
C122  C     C_R   0.049014 0.527145 0.190531 0.507090
C123  C     C_R   0.474779 0.050016 0.190574 0.507195
C124  C     C_R   0.950534 0.473576 0.190544 0.507151
C125  C     C_R   0.943263 0.496426 0.631184 -0.096322
C126  C     C_R   0.503545 0.943344 0.631183 -0.096332
C127  C     C_R   0.056709 0.503529 0.631186 -0.096304
C128  C     C_R   0.496445 0.056787 0.631188 -0.096264
C129  C     C_R   0.443259 0.996458 0.131184 -0.096308
C130  C     C_R   0.004668 0.443542 0.131182 -0.095996
C131  C     C_R   0.556708 0.003491 0.131187 -0.096268
C132  C     C_R   0.995019 0.556801 0.131143 -0.096092
C133  C     C_R   0.943194 0.496511 0.601643 -0.210136
C134  C     C_R   0.503475 0.943250 0.601642 -0.210176
C135  C     C_R   0.056787 0.503464 0.601646 -0.210104
C136  C     C_R   0.496522 0.056842 0.601647 -0.210177
C137  C     C_R   0.443191 0.996544 0.101644 -0.210213
C138  C     C_R   0.004626 0.443394 0.101643 -0.210520
C139  C     C_R   0.556788 0.003428 0.101647 -0.210211
C140  C     C_R   0.995180 0.556808 0.101608 -0.210395
C141  C     C_R   0.999993 0.499993 0.586629 -0.048074
C142  C     C_R   0.500000 0.000035 0.586630 -0.047935
C143  C     C_R   0.499992 0.999992 0.086630 -0.047963
C144  C     C_R   0.999937 0.500067 0.086616 -0.047716
C145  C     C_R   0.450482 0.971174 0.369002 -0.008246
C146  C     C_R   0.031234 0.452657 0.368870 -0.009344
C147  C     C_R   0.549492 0.028699 0.368998 -0.008526
C148  C     C_R   0.968650 0.548511 0.369034 -0.009036
C149  C     C_R   0.950522 0.471125 0.868999 -0.008288
C150  C     C_R   0.528819 0.950553 0.868986 -0.008286
C151  C     C_R   0.049471 0.528752 0.868997 -0.008292
C152  C     C_R   0.471210 0.049488 0.869009 -0.008300
C153  C     C_R   0.499997 0.999962 0.413664 -0.136569
C154  C     C_R   0.000038 0.500312 0.413630 -0.139313
C155  C     C_R   0.000002 0.499962 0.913662 -0.136685
C156  C     C_R   0.500006 0.000007 0.913662 -0.136695
C157  C     C_R   0.499982 0.999931 0.354236 0.206276
C158  C     C_R   0.999827 0.500618 0.354193 0.206011
C159  C     C_R   0.999993 0.499934 0.854235 0.206304
C160  C     C_R   0.500017 0.000025 0.854234 0.206300
C161  C     C_3   0.046157 0.230228 0.516560 -0.023368
C162  C     C_3   0.769841 0.044715 0.517381 -0.032932
C163  C     C_3   0.954764 0.769848 0.517057 -0.032272
C164  C     C_3   0.230157 0.955336 0.517395 -0.032936
C165  C     C_3   0.544999 0.730185 0.017211 -0.032704
C166  C     C_3   0.269851 0.544990 0.017230 -0.032713
C167  C     C_3   0.455010 0.269849 0.017196 -0.032711
C168  C     C_3   0.730144 0.455031 0.017222 -0.032717
C169  C     C_3   0.990962 0.271258 0.526559 -0.154368
C170  C     C_3   0.728857 0.988656 0.526392 -0.153961
C171  C     C_3   0.010513 0.728897 0.526458 -0.153555
C172  C     C_3   0.271136 0.011439 0.526373 -0.153118
C173  C     C_3   0.489115 0.771156 0.026448 -0.153593
C174  C     C_3   0.228861 0.489089 0.026433 -0.153648
C175  C     C_3   0.510898 0.228898 0.026427 -0.153596
C176  C     C_3   0.771130 0.510946 0.026430 -0.153660
C177  C     C_3   0.000206 0.311053 0.499727 -0.068492
C178  C     C_3   0.688910 0.000279 0.499797 -0.065393
C179  C     C_3   0.999768 0.688909 0.499789 -0.064658
C180  C     C_3   0.311092 0.999699 0.499786 -0.063897
C181  C     C_3   0.500241 0.811089 0.999807 -0.064521
C182  C     C_3   0.188911 0.500273 0.999800 -0.064458
C183  C     C_3   0.499758 0.188911 0.999790 -0.064528
C184  C     C_3   0.811089 0.499726 0.999797 -0.064447
C185  C     C_3   0.056441 0.271194 0.490054 -0.268503
C186  C     C_3   0.728746 0.057277 0.491123 -0.184488
C187  C     C_3   0.943066 0.728709 0.490717 -0.186815
C188  C     C_3   0.271261 0.942655 0.491145 -0.186642
C189  C     C_3   0.557072 0.771268 0.990903 -0.186386
C190  C     C_3   0.228751 0.557120 0.990930 -0.186361
C191  C     C_3   0.442923 0.228715 0.990892 -0.186366
C192  C     C_3   0.771252 0.442866 0.990922 -0.186365
H1    H     H_    0.072000 0.358647 0.724333 0.195649
H2    H     H_    0.641351 0.072055 0.724374 0.195657
H3    H     H_    0.927947 0.641252 0.724400 0.195658
H4    H     H_    0.358629 0.928111 0.724357 0.195659
H5    H     H_    0.571843 0.858567 0.224335 0.195671
H6    H     H_    0.138693 0.577012 0.224315 0.195678
H7    H     H_    0.428087 0.141323 0.224401 0.195646
H8    H     H_    0.860759 0.424018 0.224360 0.195719
H9    H     H_    0.899289 0.493448 0.642586 0.148631
H10   H     H_    0.506516 0.899380 0.642584 0.148575
H11   H     H_    0.100679 0.506499 0.642590 0.148640
H12   H     H_    0.493470 0.100766 0.642593 0.148605
H13   H     H_    0.399282 0.993508 0.142586 0.148612
H14   H     H_    0.008626 0.399675 0.142598 0.148994
H15   H     H_    0.600680 0.006433 0.142592 0.148644
H16   H     H_    0.991023 0.600725 0.142528 0.148958
H17   H     H_    0.898763 0.493681 0.590605 0.169154
H18   H     H_    0.506310 0.898810 0.590603 0.169094
H19   H     H_    0.101222 0.506301 0.590608 0.169171
H20   H     H_    0.493689 0.101266 0.590611 0.169117
H21   H     H_    0.398758 0.993741 0.090605 0.169097
H22   H     H_    0.008483 0.399016 0.090616 0.169017
H23   H     H_    0.601225 0.006238 0.090610 0.169103
H24   H     H_    0.991363 0.601138 0.090554 0.169050
H25   H     H_    0.983761 0.290136 0.548275 0.151960
H26   H     H_    0.710119 0.979492 0.547977 0.152294
H27   H     H_    0.018961 0.710191 0.548105 0.152060
H28   H     H_    0.289864 0.020707 0.547953 0.152201
H29   H     H_    0.480356 0.789908 0.048070 0.152155
H30   H     H_    0.210125 0.480289 0.048050 0.151999
H31   H     H_    0.519667 0.210191 0.048048 0.152153
H32   H     H_    0.789859 0.519777 0.048048 0.152005
H33   H     H_    0.101779 0.289200 0.481838 0.177820
H34   H     H_    0.710736 0.103331 0.483780 0.171709
H35   H     H_    0.897258 0.710668 0.483064 0.171358
H36   H     H_    0.289278 0.896570 0.483828 0.170792
H37   H     H_    0.602990 0.789291 0.983379 0.170885
H38   H     H_    0.210744 0.603054 0.983435 0.170878
H39   H     H_    0.397000 0.210678 0.983378 0.170899
H40   H     H_    0.789263 0.396922 0.983424 0.170878
H41   H     H_    0.916215 0.288995 0.468605 0.164248
H42   H     H_    0.710695 0.919171 0.467123 0.163748
H43   H     H_    0.081956 0.710693 0.467680 0.163798
H44   H     H_    0.289312 0.080649 0.467063 0.162808
H45   H     H_    0.418522 0.789244 0.967462 0.163516
H46   H     H_    0.210690 0.418617 0.967404 0.163484
H47   H     H_    0.581461 0.210690 0.967430 0.163516
H48   H     H_    0.789319 0.581337 0.967406 0.163486
H49   H     H_    0.899354 0.210835 0.517575 0.170939
H50   H     H_    0.789147 0.897940 0.515630 0.172897
H51   H     H_    0.101571 0.789224 0.516328 0.172502
H52   H     H_    0.210879 0.102112 0.515542 0.173364
H53   H     H_    0.398201 0.710815 0.016056 0.172706
H54   H     H_    0.289147 0.398192 0.015983 0.172671
H55   H     H_    0.601806 0.289218 0.016016 0.172693
H56   H     H_    0.710846 0.601828 0.015987 0.172672
H57   H     H_    0.572028 0.858644 0.275903 0.196315
H58   H     H_    0.138519 0.577446 0.275881 0.196323
H59   H     H_    0.427896 0.141223 0.275969 0.196225
H60   H     H_    0.860849 0.423947 0.275927 0.196421
H61   H     H_    0.072190 0.358726 0.775901 0.196262
H62   H     H_    0.641271 0.072222 0.775942 0.196264
H63   H     H_    0.927758 0.641151 0.775968 0.196265
H64   H     H_    0.358732 0.927895 0.775925 0.196265
N1    N     N_R   0.499968 0.999928 0.323820 -0.352891
N2    N     N_R   0.999712 0.500749 0.323780 -0.352602
N3    N     N_R   0.999982 0.499933 0.823818 -0.352853
N4    N     N_R   0.500015 0.000032 0.823817 -0.352854
N5    N     N_R   0.999978 0.499963 0.676395 -0.357723
N6    N     N_R   0.499985 0.000092 0.676394 -0.357741
N7    N     N_R   0.499974 0.999959 0.176396 -0.357733
N8    N     N_R   0.999794 0.500299 0.176371 -0.357656
O1    O     O_R   0.092990 0.999980 0.476390 -0.606500
O2    O     O_R   0.000020 0.092990 0.476390 -0.565832
O3    O     O_R   0.907010 0.000020 0.476390 -0.601311
O4    O     O_R   0.999980 0.907010 0.476390 -0.605222
O5    O     O_R   0.592990 0.499980 0.976390 -0.603996
O6    O     O_R   0.500020 0.592990 0.976390 -0.603912
O7    O     O_R   0.407010 0.500020 0.976390 -0.603983
O8    O     O_R   0.499980 0.407010 0.976390 -0.603985
O9    O     O_R   0.092950 0.999960 0.523720 -0.617361
O10   O     O_R   0.000040 0.092950 0.523720 -0.628540
O11   O     O_R   0.907050 0.000040 0.523720 -0.618268
O12   O     O_R   0.999960 0.907050 0.523720 -0.617279
O13   O     O_R   0.592950 0.499960 0.023720 -0.617034
O14   O     O_R   0.500040 0.592950 0.023720 -0.617035
O15   O     O_R   0.407050 0.500040 0.023720 -0.617036
O16   O     O_R   0.499960 0.407050 0.023720 -0.617005
O17   O     O_R   0.947430 0.499940 0.541950 -0.624104
O18   O     O_R   0.500060 0.947430 0.541950 -0.624371
O19   O     O_R   0.052570 0.500060 0.541950 -0.624253
O20   O     O_R   0.499940 0.052570 0.541950 -0.624333
O21   O     O_R   0.447430 0.999940 0.041950 -0.624359
O22   O     O_R   0.000060 0.447430 0.041950 -0.624291
O23   O     O_R   0.552570 0.000060 0.041950 -0.624351
O24   O     O_R   0.999940 0.552570 0.041950 -0.624367
O25   O     O_R   0.947440 0.406930 0.500020 -0.621525
O26   O     O_R   0.593070 0.947440 0.500020 -0.619282
O27   O     O_R   0.052560 0.593070 0.500020 -0.619681
O28   O     O_R   0.406930 0.052560 0.500020 -0.619409
O29   O     O_R   0.447440 0.906930 0.000020 -0.619495
O30   O     O_R   0.093070 0.447440 0.000020 -0.619590
O31   O     O_R   0.552560 0.093070 0.000020 -0.619487
O32   O     O_R   0.906930 0.552560 0.000020 -0.619605
O33   O     O_R   0.052470 0.406940 0.500010 -0.618452
O34   O     O_R   0.593060 0.052470 0.500010 -0.623212
O35   O     O_R   0.947530 0.593060 0.500010 -0.622810
O36   O     O_R   0.406940 0.947530 0.500010 -0.623199
O37   O     O_R   0.552470 0.906940 0.000010 -0.623124
O38   O     O_R   0.093060 0.552470 0.000010 -0.623029
O39   O     O_R   0.447530 0.093060 0.000010 -0.623126
O40   O     O_R   0.906940 0.447530 0.000010 -0.623031
O41   O     O_R   0.947430 0.499970 0.458100 -0.612917
O42   O     O_R   0.500030 0.947430 0.458100 -0.611727
O43   O     O_R   0.052570 0.500030 0.458100 -0.609649
O44   O     O_R   0.499970 0.052570 0.458100 -0.611844
O45   O     O_R   0.447430 0.999970 0.958100 -0.611796
O46   O     O_R   0.000030 0.447430 0.958100 -0.611813
O47   O     O_R   0.552570 0.000030 0.958100 -0.611799
O48   O     O_R   0.999970 0.552570 0.958100 -0.611785
O49   O     O_2   0.449534 0.097985 0.324491 -0.546033
O50   O     O_2   0.903431 0.446961 0.324449 -0.545921
O51   O     O_2   0.550400 0.901869 0.324446 -0.545657
O52   O     O_2   0.095969 0.554583 0.324414 -0.545459
O53   O     O_2   0.949440 0.597935 0.824490 -0.545841
O54   O     O_2   0.401975 0.949524 0.824460 -0.545835
O55   O     O_2   0.050521 0.401929 0.824444 -0.545838
O56   O     O_2   0.598055 0.050540 0.824473 -0.545835
O57   O     O_2   0.049060 0.401091 0.675876 -0.551678
O58   O     O_2   0.598892 0.049140 0.675904 -0.551630
O59   O     O_2   0.950896 0.598834 0.675923 -0.551670
O60   O     O_2   0.401075 0.951050 0.675892 -0.551611
O61   O     O_2   0.548957 0.901039 0.175877 -0.551640
O62   O     O_2   0.097138 0.552393 0.175866 -0.551802
O63   O     O_2   0.450989 0.098878 0.175923 -0.551650
O64   O     O_2   0.902450 0.448203 0.175891 -0.551776
Zn1   Zn    Zn3+2 0.000000 0.000000 0.468450 1.060677
Zn2   Zn    Zn3+2 0.500000 0.500000 0.968450 1.039040
Zn3   Zn    Zn3+2 1.000000 0.000000 0.531660 1.010521
Zn4   Zn    Zn3+2 0.500000 0.500000 0.031660 1.012491
Zn5   Zn    Zn3+2 0.929820 0.499950 0.500030 0.984964
Zn6   Zn    Zn3+2 0.500050 0.929820 0.500030 0.985629
Zn7   Zn    Zn3+2 0.070180 0.500050 0.500030 0.987730
Zn8   Zn    Zn3+2 0.499950 0.070180 0.500030 0.985699
Zn9   Zn    Zn3+2 0.429820 0.999950 0.000030 0.985478
Zn10  Zn    Zn3+2 0.000050 0.429820 0.000030 0.985534
Zn11  Zn    Zn3+2 0.570180 0.000050 0.000030 0.985492
Zn12  Zn    Zn3+2 0.999950 0.570180 0.000030 0.985507
C193  C     C_1   0.399796 0.942234 0.353275 0.226663
N9    N     N_1   0.359348 0.919141 0.340680 -0.165391
C194  C     C_1   0.062684 0.403627 0.353053 0.224006
N10   N     N_1   0.087777 0.364504 0.340386 -0.168329
C195  C     C_1   0.600170 0.057624 0.353268 0.227403
N11   N     N_1   0.640611 0.080705 0.340669 -0.164007
C196  C     C_1   0.937188 0.597758 0.353382 0.227316
N12   N     N_1   0.912083 0.637056 0.340846 -0.165321
C197  C     C_1   0.899868 0.442133 0.853270 0.226819
N13   N     N_1   0.859446 0.418999 0.840673 -0.165467
C198  C     C_1   0.557795 0.899911 0.853244 0.226824
N14   N     N_1   0.580917 0.859499 0.840638 -0.165476
C199  C     C_1   0.100120 0.557731 0.853268 0.226797
N15   N     N_1   0.140538 0.580854 0.840669 -0.165473
C200  C     C_1   0.442237 0.100138 0.853292 0.226824
N16   N     N_1   0.419118 0.140558 0.840704 -0.165458
C201  C     C_1   0.096353 0.207021 0.535059 0.186453
N17   N     N_1   0.135898 0.188692 0.549663 -0.198360
C202  C     C_1   0.793091 0.093384 0.536709 0.190443
N18   N     N_1   0.811477 0.131742 0.551949 -0.196808
C203  C     C_1   0.905481 0.793122 0.536050 0.187597
N19   N     N_1   0.866642 0.811527 0.551028 -0.196717
C204  C     C_1   0.206884 0.906738 0.536740 0.188552
N20   N     N_1   0.188473 0.868433 0.551988 -0.195960
C205  C     C_1   0.594021 0.706944 0.036339 0.187863
N21   N     N_1   0.632656 0.688563 0.051421 -0.196610
C206  C     C_1   0.293129 0.593974 0.036388 0.187923
N22   N     N_1   0.311539 0.632579 0.051493 -0.196389
C207  C     C_1   0.405994 0.293123 0.036331 0.187892
N23   N     N_1   0.367364 0.311531 0.051418 -0.196619
C208  C     C_1   0.706862 0.406073 0.036377 0.187962
N24   N     N_1   0.688449 0.367488 0.051479 -0.196359
O65   O     O_3   0.018926 0.206888 0.446464 -0.726826
H65   H     H_    0.020794 0.244318 0.434045 0.340427
O66   O     O_3   0.791825 0.024735 0.446716 -0.723107
H66   H     H_    0.808379 0.984435 0.439398 0.344332
O67   O     O_3   0.977079 0.791716 0.446532 -0.729925
H67   H     H_    0.017574 0.808451 0.439526 0.344415
O68   O     O_3   0.208186 0.974983 0.446720 -0.729779
H68   H     H_    0.191616 0.015244 0.439381 0.343870
O69   O     O_3   0.523696 0.708160 0.946627 -0.729526
H69   H     H_    0.483275 0.691526 0.939483 0.344318
O70   O     O_3   0.291812 0.523827 0.946632 -0.729570
H70   H     H_    0.308429 0.483421 0.939466 0.344305
O71   O     O_3   0.476279 0.291744 0.946608 -0.729551
H71   H     H_    0.516689 0.308396 0.939465 0.344308
O72   O     O_3   0.708202 0.476097 0.946627 -0.729581
H72   H     H_    0.691588 0.516494 0.939463 0.344310
C209  C     C_1   0.398459 0.942895 0.414093 0.204105
N25   N     N_1   0.357059 0.920502 0.426306 -0.160247
C210  C     C_1   0.062877 0.402207 0.413835 0.195298
N26   N     N_1   0.087863 0.362204 0.425956 -0.208801
C211  C     C_1   0.601539 0.057025 0.414085 0.204723
N27   N     N_1   0.642946 0.079429 0.426294 -0.158643
C212  C     C_1   0.938134 0.599009 0.414173 0.210124
N28   N     N_1   0.913906 0.639314 0.426424 -0.163433
C213  C     C_1   0.898521 0.442789 0.914086 0.204718
N29   N     N_1   0.857139 0.420353 0.926295 -0.160877
C214  C     C_1   0.557156 0.898536 0.914060 0.204756
N30   N     N_1   0.579586 0.857153 0.926259 -0.160934
C215  C     C_1   0.101486 0.557130 0.914083 0.204723
N31   N     N_1   0.142872 0.579577 0.926291 -0.160871
C216  C     C_1   0.442850 0.101475 0.914107 0.204808
N32   N     N_1   0.420409 0.142849 0.926324 -0.160928

loop_
_geom_bond_atom_site_label_1
_geom_bond_atom_site_label_2
_ccdc_geom_bond_type
C60   C184  S    
O25   Zn5   S    
C201  N17   T    
C134  H18   S    
C110  C116  A    
C6    O6    A    
C108  C120  A    
C169  H25   S    
C146  C194  S    
C174  H30   S    
C171  C179  S    
C79   C87   A    
C55   O27   A    
C56   O36   A    
C90   H58   S    
C52   C144  S    
C149  C197  S    
C32   H56   S    
C112  C124  A    
C94   H62   S    
C58   O30   A    
O2    Zn1   S    
C95   C99   A    
C24   C184  S    
C124  N8    A    
C99   H3    S    
O23   Zn11  S    
C68   O52   S    
O45   Zn9   S    
C97   H1    S    
C107  C113  A    
C20   H44   S    
C61   O43   A    
C168  C192  S    
C63   O45   A    
C41   C153  A    
C24   H48   S    
C97   C105  A    
C106  C118  A    
C12   O68   S    
C145  C193  S    
O42   Zn6   S    
C100  H4    S    
C166  C174  S    
C182  C190  S    
O3    Zn1   S    
C20   C28   S    
C3    C34   S    
C27   C35   S    
C21   C29   S    
C35   C163  S    
C54   C178  S    
C190  H38   S    
C23   C31   S    
C33   C161  S    
C24   C32   S    
C83   C131  A    
C2    O10   A    
C145  C157  A    
C124  O64   S    
C200  N16   T    
O40   Zn10  S    
C125  H9    S    
C12   C20   S    
C13   C21   S    
C70   O54   S    
C150  C160  A    
C16   C40   S    
C170  C178  S    
O69   H69   S    
C132  C140  A    
O70   H70   S    
C130  C138  A    
C48   C216  S    
C19   C179  S    
C132  H16   S    
C175  C183  S    
C17   C177  S    
C176  C184  S    
C15   C191  S    
C159  N3    S    
C30   H54   S    
C89   C101  A    
C133  C141  A    
C91   C103  A    
C164  C188  S    
C53   C177  S    
O33   Zn7   S    
O66   H66   S    
C18   H42   S    
C61   O41   A    
C163  C203  S    
C51   C143  S    
C167  C191  S    
C211  N27   T    
C98   C106  A    
C44   C154  A    
C74   C90   A    
C11   C35   S    
C17   C25   S    
C80   C88   A    
C205  N21   T    
C122  O62   S    
C109  C121  A    
C120  O60   S    
C10   C18   S    
C84   C130  A    
C209  N25   T    
C93   H61   S    
C87   C113  A    
C92   C104  A    
C178  C186  S    
C129  C137  A    
C26   C170  S    
C191  H39   S    
C202  N18   T    
C175  H31   S    
C84   N8    S    
C28   H52   S    
O44   Zn8   S    
C30   C174  S    
C54   O26   A    
C14   O70   S    
C21   H45   S    
O34   Zn8   S    
C197  N13   T    
C71   C77   A    
C133  H17   S    
C83   N7    S    
C198  N14   T    
C15   O71   S    
C131  H15   S    
C174  C182  S    
C215  N31   T    
C11   O67   S    
O13   Zn4   S    
C30   C38   S    
O17   Zn5   S    
C105  C113  A    
C42   C154  A    
C78   C94   A    
C83   C129  A    
O19   Zn7   S    
C52   O22   A    
C118  O58   S    
C65   O49   S    
C68   C74   A    
C214  N30   T    
C2    O2    A    
C117  O57   S    
C69   O53   S    
C90   C102  A    
C72   C78   A    
C71   O55   S    
C136  H20   S    
C139  C143  A    
C28   C172  S    
C157  N1    S    
C118  N6    A    
C136  C142  A    
C54   O34   A    
C172  H28   S    
C75   C91   A    
C161  C169  S    
O4    Zn1   S    
C104  H8    S    
O29   Zn9   S    
O1    Zn1   S    
C169  C177  S    
C43   C211  S    
C59   O39   A    
C92   H60   S    
C60   O40   A    
C100  C108  A    
C96   H64   S    
C104  C112  A    
C37   C165  S    
C84   C132  A    
C50   O20   A    
C167  C207  S    
C151  C159  A    
O22   Zn10  S    
C23   C183  S    
C130  H14   S    
C187  H35   S    
C9    O65   S    
C185  H33   S    
C41   C145  A    
C59   C183  S    
C82   C128  A    
O38   Zn12  S    
C55   O35   A    
C119  O59   S    
C148  C196  S    
C69   C79   A    
O47   Zn11  S    
C93   C97   A    
C112  C116  A    
C167  C175  S    
C56   C180  S    
C7    O15   A    
C168  C176  S    
C164  C172  S    
C22   C30   S    
C81   C125  A    
C55   C179  S    
C34   C162  S    
C27   H51   S    
C52   O24   A    
C3    O11   A    
C146  C158  A    
C25   H49   S    
O35   Zn5   S    
C46   C156  A    
C53   O25   A    
C62   C153  S    
C25   C169  S    
C14   C22   S    
O11   Zn3   S    
C22   C182  S    
C138  C144  A    
C213  N29   T    
O26   Zn6   S    
C96   C100  A    
C49   O17   A    
C10   C186  S    
O39   Zn9   S    
O20   Zn8   S    
C131  C139  A    
C14   C190  S    
C135  C141  A    
C77   C87   A    
C171  H27   S    
C50   C142  S    
C1    C36   S    
C25   C33   S    
C64   O48   A    
C135  H19   S    
C27   C171  S    
C162  C202  S    
C18   C26   S    
C66   N2    A    
O14   Zn4   S    
O15   Zn4   S    
C173  H29   S    
C61   C154  S    
C199  N15   T    
O68   H68   S    
C91   H59   S    
C81   N5    S    
C64   C155  S    
C11   C19   S    
C89   H57   S    
C50   O18   A    
O6    Zn2   S    
C51   O23   A    
C127  C135  A    
C63   C156  S    
C44   C212  S    
C128  C136  A    
C57   O37   A    
C179  C187  S    
C94   C98   A    
C101  C109  A    
C208  N24   T    
C177  C185  S    
C98   H2    S    
C103  C111  A    
C128  H12   S    
C108  C114  A    
C82   C126  A    
C161  C185  S    
C180  C188  S    
C181  C189  S    
C75   C85   A    
C216  N32   T    
C139  H23   S    
C49   C141  S    
C82   N6    S    
C165  C189  S    
C204  N20   T    
C184  C192  S    
C43   C147  A    
C46   C214  S    
C67   C73   A    
C163  C171  S    
C57   C181  S    
C69   N3    A    
C117  N5    A    
C172  C180  S    
C70   N4    A    
C48   C156  A    
C4    C35   S    
C173  C181  S    
C81   C127  A    
C9    C33   S    
C105  C117  A    
C161  C201  S    
C107  C119  A    
C66   O50   S    
C62   O44   A    
C168  C208  S    
C3    O3    A    
C111  C123  A    
C85   C115  A    
O28   Zn8   S    
C29   C173  S    
C196  N12   T    
O16   Zn4   S    
C188  H36   S    
C158  N2    S    
C70   C80   A    
C49   O19   A    
O12   Zn3   S    
C80   C96   A    
C189  H37   S    
C79   C95   A    
C134  C142  A    
C129  H13   S    
C56   O28   A    
C162  C170  S    
C176  H32   S    
C164  C204  S    
C58   O38   A    
C2    C33   S    
C67   O51   S    
C120  N6    A    
C48   C152  A    
O8    Zn2   S    
C102  C110  A    
C42   C146  A    
C76   C86   A    
O71   H71   S    
C78   C88   A    
C192  H40   S    
C16   O72   S    
C138  H22   S    
C10   O66   S    
C29   H53   S    
C51   O21   A    
C140  C144  A    
C19   H43   S    
C212  N28   T    
C147  C195  S    
C17   H41   S    
C4    O4    A    
C99   C107  A    
C5    O5    A    
C58   C182  S    
C13   O69   S    
C7    O7    A    
C73   C89   A    
C110  C122  A    
C121  O61   S    
C123  O63   S    
O41   Zn5   S    
C101  H5    S    
C88   C114  A    
C59   O31   A    
C28   C36   S    
C8    O8    A    
C5    C40   S    
C29   C37   S    
C36   C164  S    
C67   N1    A    
C43   C153  A    
C127  H11   S    
C22   H46   S    
C62   O42   A    
C45   C213  S    
C194  N10   T    
C152  C160  A    
O10   Zn3   S    
O32   Zn12  S    
C65   N1    A    
C206  N22   T    
C53   O33   A    
C64   O46   A    
C47   C215  S    
C13   C189  S    
C210  N26   T    
C20   C180  S    
C31   C175  S    
C193  N9    T    
C21   C181  S    
C32   C176  S    
O18   Zn6   S    
C106  C114  A    
C11   C187  S    
C163  C187  S    
C9    C185  S    
C102  H6    S    
C14   C38   S    
C165  C173  S    
C12   C188  S    
C160  N4    S    
C23   H47   S    
C86   C116  A    
C16   C192  S    
C44   C148  A    
C166  C206  S    
C26   C34   S    
C123  N7    A    
C45   C155  A    
C8    C39   S    
C12   C36   S    
C152  C200  S    
C19   C27   S    
C150  C198  S    
C13   C37   S    
C15   C23   S    
C137  C143  A    
C66   C76   A    
C16   C24   S    
O30   Zn10  S    
C31   H55   S    
O37   Zn11  S    
C126  C134  A    
C8    O16   A    
C72   O56   S    
O48   Zn12  S    
C38   C166  S    
O24   Zn12  S    
C4    O12   A    
C5    O13   A    
C162  C186  S    
C109  C115  A    
C166  C190  S    
O21   Zn9   S    
C165  C205  S    
C186  H34   S    
C15   C39   S    
C41   C209  S    
C6    C37   S    
C10   C34   S    
C103  H7    S    
C74   C86   A    
C149  C159  A    
C18   C178  S    
O67   H67   S    
C76   C92   A    
C9    C17   S    
C46   C150  A    
C72   N4    A    
C63   O47   A    
C71   N3    A    
C147  C157  A    
C95   H63   S    
O46   Zn10  S    
C77   C93   A    
C207  N23   T    
C73   C85   A    
C125  C133  A    
C137  H21   S    
C1    O9    A    
C47   C151  A    
C183  C191  S    
C60   O32   A    
C26   H50   S    
C203  N19   T    
C148  C158  A    
C65   C75   A    
O36   Zn6   S    
O31   Zn11  S    
O65   H65   S    
C121  N7    A    
C68   N2    A    
C122  N8    A    
C119  N5    A    
C47   C155  A    
O27   Zn7   S    
C151  C199  S    
C7    C38   S    
C31   C39   S    
C45   C149  A    
C32   C40   S    
C39   C167  S    
O43   Zn7   S    
C40   C168  S    
C57   O29   A    
C140  H24   S    
C126  H10   S    
O7    Zn2   S    
C1    O1    A    
O5    Zn2   S    
O9    Zn3   S    
C111  C115  A    
C195  N11   T    
O72   H72   S    
C42   C210  S    
C170  H26   S    
C6    O14   A    
