data_mof_unit_24088.cif
_audit_creation_date              2012-12-11T14:01:41-0500
_audit_creation_method            fapswitch 2.2
_symmetry_space_group_name_H-M    P1
_symmetry_Int_Tables_number       1
_space_group_crystal_system       triclinic
_cell_length_a                    19.069694
_cell_length_b                    10.886255
_cell_length_c                    18.78322
_cell_angle_alpha                 90.743646
_cell_angle_beta                  89.944764
_cell_angle_gamma                 89.879033
_cell_volume                      3899.01144723

loop_
_atom_site_label
_atom_site_type_symbol
_atom_type_description
_atom_site_fract_x
_atom_site_fract_y
_atom_site_fract_z
_atom_type_partial_charge
C1    C     C_R   0.288217 0.002922 0.861264 0.571534
C2    C     C_R   0.979106 0.669419 0.972976 -0.130964
C3    C     C_R   0.465135 0.159910 0.045338 -0.133421
C4    C     C_R   0.479106 0.169419 0.972976 -0.130964
C5    C     C_2   0.242746 0.563733 0.912956 -0.111197
C6    C     C_2   0.757972 0.559629 0.087587 -0.114087
C7    C     C_2   0.742746 0.063733 0.912956 -0.111197
C8    C     C_2   0.257972 0.059629 0.087587 -0.114087
C9    C     C_2   0.232316 0.541777 0.066721 -0.101753
C10   C     C_2   0.770961 0.536632 0.934200 -0.102551
C11   C     C_2   0.732316 0.041777 0.066721 -0.101753
C12   C     C_R   0.713400 0.005618 0.138373 0.566909
C13   C     C_2   0.270961 0.036632 0.934200 -0.102551
C14   C     C_2   0.277076 0.475347 0.026542 -0.168310
C15   C     C_2   0.724929 0.471696 0.972596 -0.170022
C16   C     C_2   0.777076 0.975347 0.026542 -0.168310
C17   C     C_2   0.224929 0.971696 0.972596 -0.170022
C18   C     C_2   0.292320 0.511058 0.952973 -0.157888
C19   C     C_2   0.708744 0.507811 0.046341 -0.160477
C20   C     C_2   0.792320 0.011058 0.952973 -0.157888
C21   C     C_2   0.208744 0.007811 0.046341 -0.160477
C22   C     C_2   0.437549 0.821793 0.563323 -0.101715
C23   C     C_R   0.788217 0.502922 0.861264 0.571534
C24   C     C_2   0.487218 0.835134 0.416106 -0.094459
C25   C     C_2   0.937549 0.321793 0.563323 -0.101715
C26   C     C_2   0.987218 0.335134 0.416106 -0.094459
C27   C     C_2   0.450083 0.739743 0.441884 -0.010155
C28   C     C_2   0.447883 0.722796 0.519777 -0.014915
C29   C     C_2   0.950083 0.239743 0.441884 -0.010155
C30   C     C_2   0.947883 0.222796 0.519777 -0.014914
C31   C     C_2   0.243408 0.552664 0.586868 0.001665
C32   C     C_2   0.756073 0.566875 0.416318 0.004100
C33   C     C_2   0.743408 0.052664 0.586868 0.001665
C34   C     C_R   0.213400 0.505618 0.138373 0.566909
C35   C     C_2   0.256073 0.066875 0.416318 0.004100
C36   C     C_2   0.236424 0.577226 0.426621 -0.108047
C37   C     C_2   0.757799 0.581015 0.576148 -0.110871
C38   C     C_2   0.736424 0.077226 0.426621 -0.108047
C39   C     C_2   0.257800 0.081015 0.576148 -0.110871
C40   C     C_R   0.472171 0.823473 0.852774 0.549543
C41   C     C_R   0.529215 0.821378 0.146295 0.532469
C42   C     C_R   0.972171 0.323473 0.852774 0.549543
C43   C     C_R   0.029215 0.321378 0.146295 0.532469
C44   C     C_2   0.186051 0.543119 0.472010 -0.145683
C45   C     C_R   0.471384 0.046697 0.078558 -0.095595
C46   C     C_2   0.813054 0.591012 0.532511 -0.174770
C47   C     C_2   0.686051 0.043119 0.472010 -0.145683
C48   C     C_2   0.313054 0.091012 0.532511 -0.174770
C49   C     C_2   0.189380 0.584201 0.545309 -0.145542
C50   C     C_2   0.805900 0.615806 0.458355 -0.145316
C51   C     C_2   0.689380 0.084201 0.545309 -0.145542
C52   C     C_2   0.305900 0.115806 0.458355 -0.145316
C53   C     C_R   0.260062 0.633484 0.849837 0.548810
C54   C     C_R   0.740065 0.632478 0.150279 0.543863
C55   C     C_R   0.760062 0.133484 0.849837 0.548810
C56   C     C_R   0.495075 0.064520 0.932703 -0.087073
C57   C     C_R   0.240065 0.132478 0.150279 0.543863
C58   C     C_R   0.272889 0.045130 0.647834 0.552797
C59   C     C_R   0.726540 0.045731 0.352738 0.546823
C60   C     C_R   0.772888 0.545130 0.647834 0.552797
C61   C     C_R   0.226540 0.545731 0.352738 0.546823
C62   C     C_R   0.434183 0.817397 0.641159 0.585251
C63   C     C_R   0.526277 0.824506 0.349898 0.549226
C64   C     C_R   0.934183 0.317397 0.641159 0.585251
C65   C     C_R   0.026277 0.324506 0.349898 0.549226
C66   C     C_R   0.259719 0.631923 0.647811 0.560139
C67   C     C_R   0.971384 0.546697 0.078558 -0.095595
C68   C     C_R   0.740226 0.634103 0.352352 0.568039
C69   C     C_R   0.759719 0.131922 0.647811 0.560139
C70   C     C_R   0.240226 0.134103 0.352352 0.568039
C71   C     C_R   0.505499 0.827169 0.072563 0.004712
C72   C     C_R   0.502863 0.836104 0.923846 -0.003113
C73   C     C_R   0.005499 0.327169 0.072563 0.004712
C74   C     C_R   0.002864 0.336104 0.923846 -0.003113
C75   C     C_R   0.490989 0.940337 0.039291 0.021166
C76   C     C_R   0.496588 0.947199 0.964317 0.019910
C77   C     C_R   0.990989 0.440337 0.039291 0.021166
C78   C     C_R   0.995075 0.564520 0.932703 -0.087073
C79   C     C_R   0.996588 0.447199 0.964317 0.019910
C80   C     C_R   0.517442 0.726131 0.958144 -0.152715
C81   C     C_R   0.517802 0.721353 0.030940 -0.147611
C82   C     C_R   0.017442 0.226131 0.958144 -0.152715
C83   C     C_R   0.017802 0.221353 0.030940 -0.147611
C84   C     C_3   0.289013 0.441937 0.569620 -0.390316
C85   C     C_3   0.714109 0.453461 0.433997 -0.392328
C86   C     C_3   0.789013 0.941937 0.569620 -0.390316
C87   C     C_3   0.214109 0.953461 0.433997 -0.392327
C88   C     C_3   0.421048 0.638680 0.393799 -0.358001
C89   C     C_R   0.965135 0.659910 0.045338 -0.133421
C90   C     C_3   0.466076 0.595739 0.546886 -0.354256
C91   C     C_3   0.921048 0.138680 0.393799 -0.358001
C92   C     C_3   0.966076 0.095739 0.546886 -0.354256
Cr1   Cr    Cr6+3 0.230530 0.836340 0.748870 1.010777
Cr2   Cr    Cr6+3 0.614360 0.677860 0.250770 1.008529
Cr3   Cr    Cr6+3 0.885640 0.177860 0.749230 0.999220
Cr4   Cr    Cr6+3 0.114360 0.177860 0.250770 1.008529
Cr5   Cr    Cr6+3 0.769470 0.836340 0.251130 1.007141
Cr6   Cr    Cr6+3 0.730530 0.336340 0.748870 1.010777
Cr7   Cr    Cr6+3 0.269470 0.336340 0.251130 1.007141
Cr8   Cr    Cr6+3 0.387420 0.989430 0.750820 1.004713
Cr9   Cr    Cr6+3 0.612580 0.989430 0.249180 1.012748
Cr10  Cr    Cr6+3 0.887420 0.489430 0.750820 1.004713
Cr11  Cr    Cr6+3 0.112580 0.489430 0.249180 1.012748
Cr12  Cr    Cr6+3 0.385640 0.677860 0.749230 0.999220
H1    H     H_    0.524653 0.640798 0.928616 0.141273
H2    H     H_    0.840244 0.688626 0.440295 0.147778
H3    H     H_    0.653090 0.157019 0.560498 0.147237
H4    H     H_    0.340243 0.188626 0.440295 0.147778
H5    H     H_    0.279566 0.634647 0.443853 0.089415
H6    H     H_    0.704037 0.584879 0.557348 0.105594
H7    H     H_    0.779566 0.134647 0.443853 0.089415
H8    H     H_    0.204037 0.084879 0.557348 0.105594
H9    H     H_    0.459467 0.042962 0.134792 0.128555
H10   H     H_    0.508076 0.077254 0.877293 0.137589
H11   H     H_    0.959467 0.542962 0.134792 0.128555
H12   H     H_    0.530187 0.633548 0.054415 0.141388
H13   H     H_    0.008076 0.577254 0.877293 0.137589
H14   H     H_    0.950652 0.740854 0.076096 0.115923
H15   H     H_    0.976944 0.758227 0.947786 0.109774
H16   H     H_    0.450652 0.240854 0.076096 0.115923
H17   H     H_    0.476944 0.258227 0.947786 0.109774
H18   H     H_    0.305178 0.397781 0.048679 0.149480
H19   H     H_    0.695697 0.396377 0.948522 0.153098
H20   H     H_    0.805178 0.897781 0.048679 0.149480
H21   H     H_    0.195697 0.896377 0.948522 0.153098
H22   H     H_    0.345804 0.501179 0.933751 0.151968
H23   H     H_    0.024653 0.140798 0.928616 0.141273
H24   H     H_    0.654791 0.500507 0.064364 0.146972
H25   H     H_    0.845804 0.001179 0.933751 0.151968
H26   H     H_    0.154791 0.000507 0.064364 0.146972
H27   H     H_    0.206506 0.622542 0.045527 0.115465
H28   H     H_    0.797858 0.615631 0.957156 0.117400
H29   H     H_    0.706506 0.122542 0.045527 0.115465
H30   H     H_    0.297858 0.115631 0.957156 0.117400
H31   H     H_    0.188731 0.568251 0.931378 0.109228
H32   H     H_    0.812327 0.561757 0.070267 0.112769
H33   H     H_    0.688731 0.068251 0.931378 0.109228
H34   H     H_    0.030187 0.133548 0.054415 0.141388
H35   H     H_    0.312327 0.061757 0.070267 0.112769
H36   H     H_    0.503447 0.910520 0.450682 0.075396
H37   H     H_    0.426836 0.910429 0.540213 0.069416
H38   H     H_    0.003447 0.410520 0.450682 0.075396
H39   H     H_    0.926836 0.410429 0.540213 0.069416
H40   H     H_    0.255373 0.360187 0.560243 0.147775
H41   H     H_    0.321091 0.458162 0.521409 0.123353
H42   H     H_    0.324834 0.420108 0.614258 0.139463
H43   H     H_    0.737692 0.400918 0.478250 0.140027
H44   H     H_    0.659472 0.479731 0.447995 0.134310
H45   H     H_    0.139673 0.493700 0.454100 0.149402
H46   H     H_    0.712883 0.390981 0.386810 0.134326
H47   H     H_    0.755373 0.860187 0.560243 0.147775
H48   H     H_    0.821091 0.958162 0.521409 0.123353
H49   H     H_    0.824834 0.920108 0.614258 0.139463
H50   H     H_    0.237692 0.900918 0.478250 0.140027
H51   H     H_    0.159472 0.979731 0.447995 0.134310
H52   H     H_    0.212883 0.890981 0.386810 0.134326
H53   H     H_    0.385920 0.577522 0.423733 0.109909
H54   H     H_    0.390994 0.678993 0.349164 0.132153
H55   H     H_    0.462942 0.577317 0.373090 0.162501
H56   H     H_    0.866541 0.591399 0.552236 0.150029
H57   H     H_    0.475766 0.528260 0.503268 0.107046
H58   H     H_    0.515619 0.599402 0.577829 0.159052
H59   H     H_    0.422892 0.559728 0.579978 0.158406
H60   H     H_    0.885920 0.077522 0.423733 0.109909
H61   H     H_    0.890994 0.178993 0.349164 0.132153
H62   H     H_    0.962942 0.077317 0.373090 0.162501
H63   H     H_    0.975766 0.028260 0.503268 0.107046
H64   H     H_    0.015619 0.099402 0.577829 0.159052
H65   H     H_    0.922892 0.059728 0.579978 0.158406
H66   H     H_    0.639673 0.993700 0.454100 0.149402
H67   H     H_    0.366541 0.091399 0.552236 0.150029
H68   H     H_    0.153090 0.657019 0.560498 0.147237
O1    O     O_R   0.215090 0.709860 0.828130 -0.528299
O2    O     O_R   0.543740 0.718170 0.330000 -0.513348
O3    O     O_R   0.956260 0.218170 0.670000 -0.518687
O4    O     O_R   0.043740 0.218170 0.330000 -0.513348
O5    O     O_R   0.320940 0.626760 0.674370 -0.525533
O6    O     O_R   0.679060 0.626760 0.325630 -0.495092
O7    O     O_R   0.820940 0.126760 0.674370 -0.525533
O8    O     O_R   0.179060 0.126760 0.325630 -0.495092
O9    O     O_3   0.334530 0.834540 0.749640 -0.282466
O10   O     O_3   0.665470 0.834540 0.250360 -0.254838
O11   O     O_3   0.834530 0.334540 0.749640 -0.282466
O12   O     O_R   0.784910 0.709860 0.171870 -0.531769
O13   O     O_3   0.165470 0.334540 0.250360 -0.254838
O14   O     O_R   0.236990 0.958390 0.823710 -0.489682
O15   O     O_R   0.763010 0.958390 0.176290 -0.493758
O16   O     O_R   0.736990 0.458390 0.823710 -0.489682
O17   O     O_R   0.263010 0.458390 0.176290 -0.493758
O18   O     O_R   0.332380 0.074750 0.830850 -0.512747
O19   O     O_R   0.667620 0.074750 0.169150 -0.511747
O20   O     O_R   0.832380 0.574750 0.830850 -0.512747
O21   O     O_R   0.167620 0.574750 0.169150 -0.511747
O22   O     O_R   0.445800 0.917770 0.825070 -0.518568
O23   O     O_R   0.715090 0.209860 0.828130 -0.528299
O24   O     O_R   0.554200 0.917770 0.174930 -0.516221
O25   O     O_R   0.945800 0.417770 0.825070 -0.518568
O26   O     O_R   0.054200 0.417770 0.174930 -0.516221
O27   O     O_R   0.456410 0.716580 0.829970 -0.514498
O28   O     O_R   0.543590 0.716580 0.170030 -0.525278
O29   O     O_R   0.956410 0.216580 0.829970 -0.514498
O30   O     O_R   0.043590 0.216580 0.170030 -0.525278
O31   O     O_R   0.321080 0.625290 0.822650 -0.495317
O32   O     O_R   0.678920 0.625290 0.177350 -0.497201
O33   O     O_R   0.821080 0.125290 0.822650 -0.495317
O34   O     O_R   0.284910 0.209860 0.171870 -0.531769
O35   O     O_R   0.178920 0.125290 0.177350 -0.497201
O36   O     O_R   0.214930 0.711450 0.668160 -0.520792
O37   O     O_R   0.785070 0.711450 0.331840 -0.528544
O38   O     O_R   0.714930 0.211450 0.668160 -0.520792
O39   O     O_R   0.285070 0.211450 0.331840 -0.528544
O40   O     O_R   0.236850 0.959870 0.675420 -0.493064
O41   O     O_R   0.763150 0.959870 0.324580 -0.491951
O42   O     O_R   0.736850 0.459870 0.675420 -0.493064
O43   O     O_R   0.263150 0.459870 0.324580 -0.491951
O44   O     O_R   0.332230 0.076350 0.670880 -0.524648
O45   O     O_R   0.445660 0.919250 0.676780 -0.500630
O46   O     O_R   0.667770 0.076350 0.329120 -0.509730
O47   O     O_R   0.832230 0.576350 0.670880 -0.524648
O48   O     O_R   0.167770 0.576350 0.329120 -0.509730
O49   O     O_R   0.554340 0.919250 0.323220 -0.505989
O50   O     O_R   0.945660 0.419250 0.676780 -0.500630
O51   O     O_R   0.054340 0.419250 0.323220 -0.505989
O52   O     O_R   0.456260 0.718170 0.670000 -0.518687

loop_
_geom_bond_atom_site_label_1
_geom_bond_atom_site_label_2
_ccdc_geom_bond_type
C44   C49   S    
C43   C73   S    
C31   C66   S    
C55   O23   A    
C75   C76   A    
Cr3   O33   S    
C14   H18   S    
C13   H30   S    
C63   O49   A    
C91   H62   S    
C88   H54   S    
Cr11  O13   S    
C61   O48   A    
C7    C55   S    
C20   H25   S    
C72   C76   A    
Cr3   O11   S    
C53   O1    A    
Cr5   O10   S    
Cr7   O39   S    
C84   H41   S    
C24   H36   S    
C15   C19   S    
C6    C19   D    
Cr6   O38   S    
C53   O31   A    
Cr5   O37   S    
C90   H58   S    
C8    H35   S    
C56   C76   A    
Cr10  O11   S    
C5    C53   S    
C86   H49   S    
C31   C49   D    
C41   O24   A    
C10   C15   D    
C11   H29   S    
C23   O16   A    
C73   C83   A    
C84   H40   S    
C19   H24   S    
C67   C89   A    
C22   H37   S    
Cr5   O15   S    
Cr2   O6    S    
C88   H55   S    
C70   O8    A    
Cr6   O11   S    
Cr3   O3    S    
C85   H46   S    
C67   H11   S    
Cr11  O51   S    
C43   O30   A    
C35   C87   S    
Cr9   O46   S    
C35   C70   S    
C67   C77   A    
C4    H17   S    
Cr10  O20   S    
C85   H44   S    
C62   O52   A    
Cr4   O4    S    
Cr2   O28   S    
C37   C46   D    
Cr9   O24   S    
C33   C69   S    
Cr11  O48   S    
C32   C68   S    
C27   C28   S    
C1    O18   A    
C77   C79   A    
Cr12  O9    S    
Cr6   O42   S    
C22   C28   D    
C4    C56   A    
C70   O39   A    
C25   H39   S    
Cr1   O9    S    
C63   O2    A    
C6    C54   S    
C41   O28   A    
C68   O37   A    
Cr4   O13   S    
C23   O20   A    
Cr1   O1    S    
C28   C90   S    
C69   O7    A    
C6    H32   S    
C9    H27   S    
C55   O33   A    
C66   O5    A    
C42   C74   S    
C90   H57   S    
C62   O45   A    
C78   H13   S    
C30   C92   S    
C60   O47   A    
C7    H33   S    
C9    C14   D    
C78   C79   A    
Cr4   O35   S    
C40   O22   A    
C5    C18   D    
Cr7   O34   S    
C1    O14   A    
C39   C58   S    
C57   O34   A    
C3    C45   A    
C17   C21   S    
C31   C84   S    
C25   C64   S    
C2    C89   A    
C33   C86   S    
Cr12  O31   S    
C29   C30   S    
C2    C78   A    
C86   H48   S    
C8    C57   S    
C22   C62   S    
C48   H67   S    
C66   O36   A    
C11   C16   D    
C92   H64   S    
Cr12  O5    S    
C92   H65   S    
C16   C20   S    
C24   C27   D    
C46   H56   S    
Cr1   O40   S    
C8    C21   D    
C37   H6    S    
C87   H50   S    
C64   O50   A    
C60   O42   A    
C88   H53   S    
Cr4   O8    S    
C64   O3    A    
Cr8   O9    S    
C32   C50   D    
C38   C47   D    
C15   H19   S    
Cr10  O47   S    
Cr2   O2    S    
C34   O21   A    
Cr3   O7    S    
C39   H8    S    
Cr8   O45   S    
C7    C20   D    
C24   C63   S    
Cr8   O22   S    
C74   C79   A    
C65   O4    A    
C9    C34   S    
Cr12  O27   S    
C54   O12   A    
C91   H60   S    
Cr10  O25   S    
C1    C13   S    
C36   C61   S    
C34   O17   A    
C21   H26   S    
C65   O51   A    
C47   H66   S    
Cr10  O50   S    
Cr5   O12   S    
Cr7   O17   S    
C74   C82   A    
Cr9   O49   S    
C25   C30   D    
C5    H31   S    
C12   O19   A    
C57   O35   A    
C35   C52   D    
Cr8   O44   S    
C56   H10   S    
C40   C72   S    
C26   C65   S    
C14   C18   S    
C91   H61   S    
C42   O25   A    
Cr8   O18   S    
C85   H43   S    
C80   C81   A    
Cr9   O19   S    
C59   O46   A    
C49   H68   S    
C47   C51   S    
C2    H15   S    
C59   O41   A    
Cr4   O30   S    
C40   O27   A    
C84   H42   S    
C10   C23   S    
Cr3   O29   S    
Cr2   O10   S    
C46   C50   S    
C44   H45   S    
C13   C17   D    
C90   H59   S    
C45   C75   A    
C58   O40   A    
C16   H20   S    
C72   C80   A    
C86   H47   S    
Cr1   O14   S    
C71   C75   A    
C12   O15   A    
C92   H63   S    
C17   H21   S    
C33   C51   D    
Cr7   O43   S    
C41   C71   S    
C54   O32   A    
C32   C85   S    
C80   H1    S    
C81   H12   S    
C68   O6    A    
Cr7   O13   S    
Cr12  O52   S    
Cr6   O23   S    
C43   O26   A    
C87   H51   S    
C27   C88   S    
C10   H28   S    
C82   H23   S    
C37   C60   S    
C36   C44   D    
C3    H16   S    
C38   C59   S    
C45   H9    S    
C48   C52   S    
Cr2   O32   S    
C89   H14   S    
C52   H4    S    
C26   C29   D    
C51   H3    S    
C82   C83   A    
C36   H5    S    
C50   H2    S    
C73   C77   A    
C87   H52   S    
C42   O29   A    
Cr5   O41   S    
C69   O38   A    
C61   O43   A    
C38   H7    S    
C26   H38   S    
Cr1   O36   S    
Cr6   O16   S    
Cr11  O26   S    
C83   H34   S    
C18   H22   S    
Cr9   O10   S    
C3    C4    A    
C11   C12   S    
Cr11  O21   S    
C39   C48   D    
C71   C81   A    
C29   C91   S    
C58   O44   A    
