data_mof_unit_48730.cif
_audit_creation_date              2012-12-11T14:46:06-0500
_audit_creation_method            fapswitch 2.2
_symmetry_space_group_name_H-M    P1
_symmetry_Int_Tables_number       1
_space_group_crystal_system       triclinic
_cell_length_a                    10.935323
_cell_length_b                    10.97978
_cell_length_c                    18.719125
_cell_angle_alpha                 89.722538
_cell_angle_beta                  90.099885
_cell_angle_gamma                 119.865158
_cell_volume                      1949.05774985

loop_
_atom_site_label
_atom_site_type_symbol
_atom_type_description
_atom_site_fract_x
_atom_site_fract_y
_atom_site_fract_z
_atom_type_partial_charge
C1    C     C_R   0.869420 0.635276 0.605533 0.531551
C2    C     C_R   0.947742 0.155244 0.712006 0.012979
C3    C     C_R   0.965139 0.171117 0.787371 0.010570
C4    C     C_R   0.203699 0.591506 0.610482 0.545825
C5    C     C_R   0.738816 0.179975 0.721258 0.000224
C6    C     C_R   0.774316 0.224413 0.792624 -0.016259
C7    C     C_R   0.601329 0.143927 0.697312 0.275443
C8    C     C_R   0.518514 0.181445 0.737707 -0.133534
C9    C     C_R   0.566973 0.250314 0.802380 -0.128266
C10   C     C_R   0.696274 0.275857 0.829416 0.251456
C11   C     C_R   0.839904 0.169479 0.677978 0.003508
C12   C     C_R   0.192367 0.593268 0.811008 -0.158100
C13   C     C_R   0.711963 0.564108 0.710806 -0.126773
C14   C     C_R   0.696743 0.568696 0.784167 -0.101413
C15   C     C_R   0.815528 0.649241 0.827129 0.082781
C16   C     C_R   0.860489 0.225560 0.603617 0.552232
C17   C     C_R   0.949842 0.719478 0.796813 -0.114425
C18   C     C_R   0.964217 0.720211 0.723969 -0.131941
C19   C     C_R   0.845381 0.644333 0.680481 0.034568
C20   C     C_R   0.399992 0.620537 0.294921 -0.139001
C21   C     C_R   0.418768 0.628402 0.222427 -0.179021
C22   C     C_R   0.363763 0.694592 0.179075 0.031871
C23   C     C_R   0.146907 0.562694 0.740064 -0.164680
C24   C     C_R   0.292104 0.757433 0.209379 0.213412
C25   C     C_R   0.270117 0.746172 0.282646 -0.046325
C26   C     C_R   0.322218 0.675487 0.325041 0.033467
C27   C     C_R   0.714213 0.086886 0.295720 0.214576
C28   C     C_R   0.864587 0.640129 0.398162 0.540700
C29   C     C_R   0.703021 0.067499 0.222802 -0.096588
C30   C     C_R   0.823968 0.129103 0.179401 -0.013530
C31   C     C_R   0.957791 0.201042 0.209503 -0.160698
C32   C     C_R   0.969911 0.221375 0.282746 -0.178848
C33   C     C_R   0.847954 0.169687 0.325701 0.029877
C34   C     C_R   0.245387 0.621313 0.684430 0.013019
C35   C     C_R   0.879074 0.801964 0.302631 -0.105807
C36   C     C_R   0.862716 0.823031 0.231114 -0.105178
C37   C     C_R   0.782036 0.708052 0.186998 0.031820
C38   C     C_R   0.711580 0.571697 0.215566 -0.131913
C39   C     C_R   0.727565 0.550401 0.287197 -0.140575
C40   C     C_R   0.270563 0.634523 0.396613 0.582825
C41   C     C_R   0.816089 0.665047 0.330291 0.023082
C42   C     C_R   0.814316 0.113199 0.897925 0.604903
C43   C     C_R   0.390714 0.699408 0.897892 0.560880
C44   C     C_R   0.797734 0.689914 0.898065 0.627324
C45   C     C_R   0.867644 0.191121 0.828610 -0.004117
C46   C     C_R   0.804140 0.100971 0.104030 0.546623
C47   C     C_R   0.398036 0.705183 0.104299 0.571660
C48   C     C_R   0.773990 0.733401 0.111498 0.548136
C49   C     C_R   0.862280 0.227774 0.396457 0.587427
C50   C     C_R   0.387549 0.706340 0.699161 -0.047837
C51   C     C_R   0.432979 0.736105 0.768910 0.062987
C52   C     C_R   0.335987 0.682106 0.825566 0.034901
C53   C     C_R   0.076446 0.160982 0.819627 -0.061707
C54   C     C_R   0.157495 0.119972 0.780058 -0.121837
C55   C     C_R   0.132585 0.093264 0.707294 -0.117892
C56   C     C_R   0.030642 0.113043 0.673183 -0.059809
Cl1   Cl    Cl    0.515980 0.027655 0.625701 -0.581385
Cl2   Cl    Cl    0.220835 0.841257 0.157474 -0.570475
Cl3   Cl    Cl    0.558476 0.010065 0.347037 -0.585862
Cl4   Cl    Cl    0.755857 0.368144 0.910794 -0.619405
Cr1   Cr    Cr6+3 0.791660 0.390250 0.499930 1.090078
Cr2   Cr    Cr6+3 0.098520 0.708290 0.500540 1.079834
Cr3   Cr    Cr6+3 0.109770 0.401430 0.499480 1.022347
Cr4   Cr    Cr6+3 0.874790 0.925890 0.000070 1.057594
Cr5   Cr    Cr6+3 0.574120 0.948670 0.999300 1.109050
Cr6   Cr    Cr6+3 0.551420 0.625320 0.000920 1.056452
H1    H     H_    0.463900 0.745948 0.656038 0.192238
H2    H     H_    0.207031 0.786943 0.305780 0.178863
H3    H     H_    0.598996 0.004015 0.199933 0.176947
H4    H     H_    0.051522 0.244133 0.176440 0.148361
H5    H     H_    0.074431 0.285504 0.304906 0.156810
H6    H     H_    0.947436 0.891887 0.335178 0.144238
H7    H     H_    0.917008 0.928548 0.209549 0.143453
H8    H     H_    0.647999 0.481370 0.182279 0.155472
H9    H     H_    0.678701 0.443707 0.307389 0.159471
H10   H     H_    0.116890 0.545755 0.854101 0.150471
H11   H     H_    0.036252 0.493271 0.728579 0.112573
H12   H     H_    0.415730 0.156386 0.718808 0.132199
H13   H     H_    0.237947 0.106371 0.806450 0.107438
H14   H     H_    0.191288 0.055963 0.676898 0.132006
H15   H     H_    0.101604 0.184589 0.875567 0.133033
H16   H     H_    0.011902 0.087336 0.617033 0.139705
H17   H     H_    0.501803 0.280105 0.832620 0.134177
H18   H     H_    0.620034 0.502521 0.677839 0.135809
H19   H     H_    0.591412 0.518421 0.806420 0.145797
H20   H     H_    0.043088 0.781676 0.828886 0.141759
H21   H     H_    0.069701 0.778443 0.701937 0.150375
H22   H     H_    0.439948 0.565343 0.326881 0.148748
H23   H     H_    0.476001 0.581101 0.200034 0.146985
I1    I     I_    0.651194 0.845362 0.782566 -0.362826
O1    O     O_R   0.766500 0.250040 0.579790 -0.446187
O2    O     O_R   0.413330 0.603360 0.920440 -0.511900
O3    O     O_R   0.676110 0.626250 0.926750 -0.466784
O4    O     O_R   0.798570 0.516780 0.574780 -0.506697
O5    O     O_R   0.895350 0.809870 0.080950 -0.450890
O6    O     O_R   0.872490 0.049760 0.073800 -0.528785
O7    O     O_R   0.691680 0.088070 0.079070 -0.486135
O8    O     O_R   0.451720 0.825250 0.074050 -0.468401
O9    O     O_R   0.413580 0.606370 0.080960 -0.540245
O10   O     O_R   0.676340 0.629040 0.075550 -0.495847
O11   O     O_3   0.666780 0.833290 0.000090 -0.297486
O12   O     O_R   0.218690 0.701900 0.425960 -0.472311
O13   O     O_R   0.984000 0.732950 0.581090 -0.528227
O14   O     O_R   0.218600 0.700890 0.574760 -0.451460
O15   O     O_R   0.249390 0.515350 0.579940 -0.504952
O16   O     O_R   0.982790 0.280900 0.573700 -0.535697
O17   O     O_R   0.766600 0.251130 0.419260 -0.437053
O18   O     O_R   0.798660 0.517790 0.425980 -0.502964
O19   O     O_R   0.984100 0.734040 0.420570 -0.518438
O20   O     O_R   0.249490 0.516440 0.419420 -0.524842
O21   O     O_R   0.982880 0.281910 0.424890 -0.524525
O22   O     O_3   0.999980 0.499990 0.499980 -0.300928
O23   O     O_R   0.895110 0.806860 0.920430 -0.509397
O24   O     O_R   0.872260 0.046970 0.925000 -0.508068
O25   O     O_R   0.691430 0.085060 0.918550 -0.443804
O26   O     O_R   0.451490 0.822460 0.925250 -0.474861

loop_
_geom_bond_atom_site_label_1
_geom_bond_atom_site_label_2
_ccdc_geom_bond_type
C55   C56   A    
C6    C45   A    
C27   C29   A    
C35   C36   A    
Cr5   O11   S    
C7    C8    A    
C39   C41   A    
C21   H23   S    
C53   C54   A    
C27   C33   A    
C12   C23   A    
C29   C30   A    
C47   O8    A    
C36   C37   A    
C48   O5    A    
Cr5   O8    S    
C5    C11   A    
C51   I1    S    
C5    C6    A    
C43   C52   S    
C33   C49   S    
C20   H22   S    
C28   C41   S    
C47   O9    A    
C53   H15   S    
C18   C19   A    
Cr6   O10   S    
Cr3   O22   S    
Cr1   O18   S    
C44   O3    A    
C42   O24   A    
C31   H4    S    
C1    O4    A    
C39   H9    S    
Cr3   O15   S    
C9    C10   A    
C1    O13   A    
Cr2   O14   S    
C16   O16   A    
C49   O21   A    
Cr2   O22   S    
C22   C47   S    
C21   C22   A    
C8    H12   S    
Cr5   O25   S    
Cr6   O11   S    
C25   H2    S    
C35   C41   A    
C2    C11   A    
C12   C52   A    
C50   C51   A    
C32   H5    S    
C29   H3    S    
Cr4   O11   S    
C48   O10   A    
C4    C34   S    
C1    C19   S    
Cr4   O24   S    
C13   C19   A    
C17   H20   S    
C38   C39   A    
C24   C25   A    
Cr4   O6    S    
C49   O17   A    
C5    C7    A    
Cr1   O4    S    
C8    C9    A    
Cr6   O2    S    
C25   C26   A    
C3    C45   A    
C51   C52   A    
C50   H1    S    
Cr3   O16   S    
C42   C45   S    
Cr6   O9    S    
C10   Cl4   S    
C6    C10   A    
C37   C38   A    
C43   O26   A    
C11   C16   S    
C31   C32   A    
C13   H18   S    
C23   C34   A    
C17   C18   A    
C14   H19   S    
C23   H11   S    
C37   C48   S    
C9    H17   S    
Cr6   O3    S    
C46   O7    A    
C35   H6    S    
C12   H10   S    
C15   C44   S    
Cr5   O26   S    
C22   C24   A    
Cr2   O13   S    
C38   H8    S    
C15   C17   A    
C54   C55   A    
Cr4   O23   S    
C30   C46   S    
C43   O2    A    
Cr4   O5    S    
C44   O23   A    
C34   C50   A    
C40   O20   A    
C56   H16   S    
C28   O19   A    
C4    O15   A    
C18   H21   S    
C32   C33   A    
Cr3   O20   S    
C2    C3    A    
Cr5   O7    S    
C27   Cl3   S    
C55   H14   S    
C3    C53   A    
C26   C40   S    
C30   C31   A    
Cr2   O19   S    
C20   C26   A    
C28   O18   A    
C4    O14   A    
Cr3   O21   S    
Cr1   O17   S    
C36   H7    S    
C54   H13   S    
C40   O12   A    
C42   O25   A    
C46   O6    A    
C20   C21   A    
C16   O1    A    
C24   Cl2   S    
C14   C15   A    
C2    C56   A    
C13   C14   A    
Cr1   O22   S    
C7    Cl1   S    
Cr1   O1    S    
Cr2   O12   S    
