data_mof_unit_14309.cif
_audit_creation_date              2012-12-11T15:49:02-0500
_audit_creation_method            fapswitch 2.2
_symmetry_space_group_name_H-M    P1
_symmetry_Int_Tables_number       1
_space_group_crystal_system       triclinic
_cell_length_a                    21.636867
_cell_length_b                    7.179364
_cell_length_c                    14.991011
_cell_angle_alpha                 89.998218
_cell_angle_beta                  106.438644
_cell_angle_gamma                 90.00106
_cell_volume                      2233.49880656

loop_
_atom_site_label
_atom_site_type_symbol
_atom_type_description
_atom_site_fract_x
_atom_site_fract_y
_atom_site_fract_z
_atom_type_partial_charge
O1    O     O_R   0.335860 0.638190 0.002110 -0.532744
O2    O     O_R   0.664140 0.361810 0.997890 -0.532644
O3    O     O_R   0.164140 0.138190 0.997890 -0.532729
O4    O     O_R   0.835860 0.861810 0.002110 -0.532675
O5    O     O_R   0.217530 0.305920 0.861960 -0.531423
O6    O     O_R   0.782470 0.694080 0.138040 -0.532775
O7    O     O_R   0.282470 0.805920 0.138040 -0.531462
O8    O     O_R   0.717530 0.194080 0.861960 -0.532705
C1    C     C_R   0.205366 0.476651 0.826257 0.729569
C2    C     C_R   0.794597 0.522782 0.173952 0.733717
C3    C     C_R   0.294639 0.976650 0.173744 0.729781
C4    C     C_R   0.705389 0.022787 0.826046 0.733572
O9    O     O_R   0.338690 0.308320 0.993240 -0.545183
O10   O     O_R   0.661310 0.691680 0.006760 -0.544474
O11   O     O_R   0.161310 0.808320 0.006760 -0.545215
O12   O     O_R   0.838690 0.191680 0.993240 -0.544435
O13   O     O_R   0.286170 0.140430 0.130100 -0.539152
O14   O     O_R   0.713830 0.859570 0.869900 -0.535805
O15   O     O_R   0.213830 0.640430 0.869900 -0.539165
O16   O     O_R   0.786170 0.359570 0.130100 -0.535732
C5    C     C_R   0.364937 0.477305 0.997591 0.681440
C6    C     C_R   0.635143 0.522781 0.002875 0.676205
C7    C     C_R   0.135061 0.977304 0.002403 0.681526
C8    C     C_R   0.864856 0.022785 0.997120 0.676382
O17   O     O_3   0.232630 0.472410 0.044750 -0.378700
O18   O     O_3   0.767370 0.527590 0.955250 -0.377998
O19   O     O_3   0.267370 0.972410 0.955250 -0.378655
O20   O     O_3   0.732630 0.027590 0.044750 -0.378031
V1    V     V_3+5 0.253220 0.196620 0.991700 1.478601
V2    V     V_3+5 0.746780 0.803380 0.008300 1.476792
V3    V     V_3+5 0.246780 0.696620 0.008300 1.478538
V4    V     V_3+5 0.753220 0.303380 0.991700 1.476940
C9    C     C_R   0.028557 0.826887 0.996314 -0.133609
C10   C     C_R   0.971289 0.173958 0.002722 -0.149377
C11   C     C_R   0.471396 0.326863 0.003448 -0.133854
C12   C     C_R   0.528747 0.673959 0.997456 -0.149453
H1    H     H_    0.049650 0.690741 0.995045 0.114326
H2    H     H_    0.950631 0.310163 0.006380 0.127593
H3    H     H_    0.450272 0.190711 0.004547 0.114293
H4    H     H_    0.549438 0.810181 0.993971 0.127471
C13   C     C_R   0.963264 0.838366 0.992630 -0.157922
C14   C     C_R   0.036402 0.162454 0.005108 -0.133590
C15   C     C_R   0.536687 0.338327 0.007117 -0.157531
C16   C     C_R   0.463633 0.662459 0.995065 -0.133533
H5    H     H_    0.936175 0.710114 0.987861 0.137932
H6    H     H_    0.063632 0.290462 0.010359 0.129909
H7    H     H_    0.563740 0.210055 0.011704 0.138046
H8    H     H_    0.436434 0.790482 0.989968 0.129999
C17   C     C_R   0.933731 0.011982 0.996693 -0.048563
C18   C     C_R   0.066012 0.988681 0.001748 -0.025345
C19   C     C_R   0.566265 0.511965 0.003283 -0.048770
C20   C     C_R   0.433985 0.488678 0.998233 -0.025444
C21   C     C_R   0.677800 0.007393 0.725012 -0.105756
C22   C     C_R   0.324933 0.982917 0.274135 -0.092711
C23   C     C_R   0.822197 0.507425 0.274980 -0.105635
C24   C     C_R   0.175074 0.482887 0.725867 -0.092677
C25   C     C_R   0.687143 0.875334 0.580964 -0.148560
C26   C     C_R   0.312392 0.980787 0.429048 -0.152107
C27   C     C_R   0.812774 0.376036 0.419124 -0.148658
C28   C     C_R   0.187600 0.480247 0.570948 -0.152095
C29   C     C_R   0.713912 0.915089 0.674625 -0.176096
C30   C     C_R   0.285606 0.971541 0.333365 -0.193234
C31   C     C_R   0.786025 0.415585 0.325434 -0.176268
C32   C     C_R   0.214394 0.471286 0.666634 -0.193199
C33   C     C_R   0.613498 0.060214 0.680764 -0.075778
C34   C     C_R   0.392521 0.998999 0.310771 -0.066280
C35   C     C_R   0.886536 0.559963 0.319175 -0.075646
C36   C     C_R   0.107488 0.498950 0.689238 -0.065974
C37   C     C_R   0.582706 0.991506 0.589660 0.036349
C38   C     C_R   0.420882 0.983513 0.408850 0.028079
C39   C     C_R   0.917287 0.491444 0.410336 0.036301
C40   C     C_R   0.079107 0.483304 0.591168 0.027983
C41   C     C_R   0.621816 0.910427 0.538373 0.129987
C42   C     C_R   0.379368 0.988028 0.467216 0.130710
C43   C     C_R   0.878126 0.410864 0.461685 0.129964
C44   C     C_R   0.120623 0.487483 0.532790 0.130738
C45   C     C_R   0.514404 0.993178 0.548739 0.077645
C46   C     C_R   0.488549 0.960789 0.451564 0.068479
C47   C     C_R   0.985590 0.492848 0.451263 0.077597
C48   C     C_R   0.011426 0.460742 0.548468 0.068346
C49   C     C_R   0.529721 0.884362 0.403011 -0.123089
C50   C     C_R   0.471139 0.001263 0.603574 -0.128359
C51   C     C_R   0.970206 0.384771 0.597067 -0.123242
C52   C     C_R   0.028861 0.500399 0.396426 -0.128202
C53   C     C_R   0.594874 0.857519 0.446050 -0.177125
C54   C     C_R   0.404984 0.995083 0.563565 -0.188337
C55   C     C_R   0.905036 0.358177 0.554046 -0.177324
C56   C     C_R   0.095011 0.494173 0.436438 -0.188245
H9    H     H_    0.624248 0.792409 0.406999 0.126257
H10   H     H_    0.373598 0.995559 0.608572 0.121913
H11   H     H_    0.875622 0.293439 0.593144 0.126247
H12   H     H_    0.126399 0.494320 0.391429 0.121900
H13   H     H_    0.233756 0.960942 0.305185 0.112393
H14   H     H_    0.763310 0.874655 0.708061 0.119281
H15   H     H_    0.266243 0.460661 0.694811 0.112381
H16   H     H_    0.736596 0.375386 0.292034 0.119259
H17   H     H_    0.716819 0.808555 0.542897 0.122062
H18   H     H_    0.280645 0.978869 0.473505 0.121268
H19   H     H_    0.783055 0.309638 0.457247 0.122091
H20   H     H_    0.219341 0.478099 0.526482 0.121246
H21   H     H_    0.511488 0.829059 0.333609 0.141878
H22   H     H_    0.487529 0.996513 0.678524 0.133219
H23   H     H_    0.988395 0.329591 0.666496 0.142026
H24   H     H_    0.012472 0.495301 0.321485 0.133249
C57   C     C_2   0.431027 0.053936 0.247180 0.717655
O21   O     O_2   0.467727 0.186924 0.266676 -0.548116
O22   O     O_R   0.426294 0.951336 0.166309 -0.669671
H25   H     H_    0.457705 0.995780 0.132063 0.276581
C58   C     C_2   0.582307 0.203501 0.724804 0.725461
O23   O     O_2   0.557329 0.339630 0.679765 -0.546245
O24   O     O_R   0.579786 0.180973 0.816193 -0.673868
H26   H     H_    0.555137 0.285549 0.835902 0.289243
C59   C     C_2   0.069010 0.553904 0.752851 0.717514
O25   O     O_2   0.032449 0.687241 0.733497 -0.548076
O26   O     O_R   0.073601 0.450878 0.833567 -0.669659
H27   H     H_    0.042179 0.495255 0.867808 0.276569
C60   C     C_2   0.917838 0.702693 0.274950 0.725324
O27   O     O_2   0.942938 0.838890 0.319820 -0.546246
O28   O     O_R   0.920334 0.679506 0.183581 -0.673920
H28   H     H_    0.945139 0.783578 0.163769 0.289264

loop_
_geom_bond_atom_site_label_1
_geom_bond_atom_site_label_2
_ccdc_geom_bond_type
O17   V3    S    
C51   C55   A    
C26   C30   A    
C55   H11   S    
O19   V1    S    
C27   H19   S    
C37   C45   A    
O24   H26   S    
C26   H18   S    
C40   C44   A    
O15   V3    S    
C39   C47   A    
C49   H21   S    
C45   C46   A    
O1    C5    A    
C57   O22   S    
C51   H23   S    
O9    V1    S    
C60   O28   S    
C47   C52   A    
O4    C8    A    
C38   C46   A    
O26   H27   S    
O1    V3    S    
O13   V1    S    
O2    V4    S    
C14   H6    S    
C25   C41   A    
O3    V1    S    
O3    C7    A    
C38   C42   A    
C21   C29   A    
C1    O15   A    
C56   H12   S    
C2    O16   A    
C10   C14   A    
C23   C31   A    
O2    C6    A    
O22   H25   S    
C24   C32   A    
C37   C41   A    
O14   V2    S    
C21   C33   A    
C44   C56   A    
C4    C21   S    
C36   C40   A    
C36   C59   S    
C16   C20   A    
O11   C7    A    
O12   C8    A    
O10   V2    S    
C48   C51   A    
C13   C17   A    
O7    C3    A    
O5    V1    S    
O7    V3    S    
O8    V4    S    
C12   H4    S    
C54   H10   S    
C53   H9    S    
C29   H14   S    
C7    C18   S    
C22   C30   A    
C9    C18   A    
C50   C54   A    
C31   H16   S    
C28   C44   A    
C9    H1    S    
C11   H3    S    
O5    C1    A    
O8    C4    A    
C25   H17   S    
C50   H22   S    
O9    C5    A    
C1    C24   S    
C42   C54   A    
C25   C29   A    
C2    C23   S    
C35   C60   S    
C33   C58   S    
C12   C19   A    
C14   C18   A    
C22   C34   A    
C3    C22   S    
O6    V2    S    
C52   H24   S    
C12   C16   A    
C34   C57   S    
C27   C43   A    
C11   C15   A    
C26   C42   A    
C59   O25   D    
O16   V4    S    
C43   C55   A    
C8    C17   S    
C3    O13   A    
C10   C17   A    
C10   H2    S    
C52   C56   A    
C32   H15   S    
C28   H20   S    
O6    C2    A    
C23   C35   A    
O28   H28   S    
O11   V3    S    
O18   V4    S    
O12   V4    S    
C57   O21   D    
C27   C31   A    
C28   C32   A    
C9    C13   A    
O10   C6    A    
C58   O24   S    
C41   C53   A    
C40   C48   A    
C24   C36   A    
C60   O27   D    
C39   C43   A    
C46   C49   A    
C15   C19   A    
C34   C38   A    
C45   C50   A    
C33   C37   A    
O20   V2    S    
C35   C39   A    
O4    V2    S    
C47   C48   A    
C30   H13   S    
C4    O14   A    
C11   C20   A    
C13   H5    S    
C58   O23   D    
C15   H7    S    
C5    C20   S    
C49   C53   A    
C16   H8    S    
C6    C19   S    
C59   O26   S    
