data_mof_unit_11809.cif
_audit_creation_date              2012-12-11T14:52:34-0500
_audit_creation_method            fapswitch 2.2
_symmetry_space_group_name_H-M    P1
_symmetry_Int_Tables_number       1
_space_group_crystal_system       triclinic
_cell_length_a                    8.249207
_cell_length_b                    15.200395
_cell_length_c                    27.050653
_cell_angle_alpha                 98.275012
_cell_angle_beta                  92.265275
_cell_angle_gamma                 80.565822
_cell_volume                      3310.75892058

loop_
_atom_site_label
_atom_site_type_symbol
_atom_type_description
_atom_site_fract_x
_atom_site_fract_y
_atom_site_fract_z
_atom_type_partial_charge
Ba1   Ba    Ba6+2 0.860900 0.457020 0.523210 1.687383
Ba2   Ba    Ba6+2 0.328940 0.542910 0.476780 1.691998
C1    C     C_3   0.741496 0.139754 0.656189 -0.361455
C2    C     C_3   0.723950 0.229025 0.635833 0.345092
C3    C     C_3   0.472534 0.678672 0.628903 0.313332
C4    C     C_3   0.421576 0.715304 0.682372 -0.362647
C5    C     C_3   0.019147 0.739258 0.340618 0.222327
C6    C     C_3   0.056605 0.757370 0.288585 -0.221971
C7    C     C_3   0.511532 0.772746 0.366739 0.360353
C8    C     C_3   0.497913 0.863910 0.348674 -0.347008
C9    C     C_R   0.048146 0.433581 0.178103 0.601925
C10   C     C_R   0.888339 0.580347 0.178608 0.579978
C11   C     C_2   0.746523 0.530745 0.270174 -0.082117
C12   C     C_3   0.232607 0.255466 0.651163 0.285103
C13   C     C_3   0.701460 0.524424 0.323087 0.036610
C14   C     C_1   0.990158 0.485098 0.342990 0.040256
C15   C     C_2   0.033352 0.482191 0.295467 -0.109402
C16   C     C_2   0.905963 0.508325 0.255895 0.185052
C17   C     C_R   0.021361 0.503481 0.101317 -0.078832
C18   C     C_R   0.085067 0.430627 0.126910 -0.025801
C19   C     C_R   0.175822 0.353609 0.100091 -0.115058
C20   C     C_R   0.921910 0.578676 0.127450 -0.034479
C21   C     C_2   0.846605 0.529724 0.358399 -0.300597
C22   C     C_2   0.351870 0.477767 0.640031 -0.280417
C23   C     C_3   0.254951 0.227194 0.702919 -0.337649
C24   C     C_R   0.211993 0.430853 0.974413 0.035467
C25   C     C_R   0.013124 0.569668 0.971528 0.022084
C26   C     C_R   0.131816 0.499965 0.947568 0.043443
C27   C     C_R   0.349111 0.372976 0.951898 -0.029834
C28   C     C_R   0.388640 0.373310 0.902230 -0.043139
C29   C     C_R   0.298691 0.435066 0.873471 -0.038503
C30   C     C_R   0.173103 0.500231 0.896545 -0.079318
C31   C     C_R   0.090328 0.566291 0.868872 -0.029961
C32   C     C_R   0.133199 0.565989 0.818493 0.594248
C33   C     C_R   0.335188 0.434310 0.822590 0.586279
C34   C     C_3   0.256091 0.263266 0.403996 0.675763
C35   C     C_2   0.454887 0.487817 0.728521 -0.073947
C36   C     C_3   0.497820 0.489448 0.674457 -0.053423
C37   C     C_1   0.204899 0.515516 0.655785 0.037900
C38   C     C_2   0.164008 0.514124 0.702856 -0.108043
C39   C     C_2   0.295380 0.499543 0.742809 0.192927
C40   C     C_R   0.159500 0.425427 0.023765 0.021556
C41   C     C_R   0.055774 0.500957 0.049504 0.041978
C42   C     C_R   0.984027 0.573599 0.023686 0.020740
C43   C     C_R   0.204789 0.347897 0.048859 -0.060507
C44   C     C_R   0.856634 0.650852 0.101854 -0.044791
C45   C     C_3   0.345235 0.176084 0.375528 -0.217040
C46   C     C_R   0.929300 0.633830 0.942370 -0.096156
C47   C     C_R   0.966967 0.631976 0.892314 -0.055235
C48   C     C_R   0.886397 0.648417 0.051276 -0.101650
C49   C     C_R   0.739069 0.769472 0.477107 -0.230088
C50   C     C_R   0.833478 0.826440 0.459703 0.033222
C51   C     C_R   0.776757 0.919134 0.465486 -0.155822
C52   C     C_R   0.641062 0.956618 0.496318 -0.017499
C53   C     C_R   0.579220 0.898573 0.525438 -0.030760
C54   C     C_R   0.614230 0.803947 0.511247 0.048405
C55   C     C_R   0.397693 0.083294 0.512447 0.323038
C56   C     C_3   0.974973 0.748745 0.596313 0.922172
C57   C     C_R   0.339546 0.176144 0.526422 0.003080
C58   C     C_R   0.583810 0.212175 0.492875 0.069629
C59   C     C_R   0.654539 0.120883 0.487294 -0.186999
C60   C     C_R   0.565348 0.055004 0.499347 -0.021255
C61   C     C_R   0.434363 0.239508 0.516570 -0.307457
C62   C     C_3   0.059076 0.831849 0.602407 -0.155059
C63   C     C_3   0.729595 0.322716 0.371303 0.672892
C64   C     C_3   0.802802 0.275219 0.321857 -0.226220
H1    H     H_    0.846161 0.236882 0.623184 0.113417
H2    H     H_    0.419975 0.191339 0.345519 0.093586
H3    H     H_    0.427518 0.137781 0.401179 0.049086
H4    H     H_    0.255045 0.133444 0.358286 0.105662
H5    H     H_    0.037479 0.871018 0.640150 0.034496
H6    H     H_    0.012011 0.875927 0.573869 0.086841
H7    H     H_    0.192469 0.810580 0.598235 0.149678
H8    H     H_    0.826973 0.354590 0.393054 -0.030579
H9    H     H_    0.787758 0.083875 0.626488 0.077456
H10   H     H_    0.906677 0.221719 0.328732 0.093735
H11   H     H_    0.848641 0.324034 0.301268 0.061238
H12   H     H_    0.708262 0.243868 0.298391 0.111352
H13   H     H_    0.636320 0.227073 0.603603 -0.017609
H14   H     H_    0.620514 0.129085 0.668709 0.116719
H15   H     H_    0.368557 0.651109 0.608664 0.010619
H16   H     H_    0.580723 0.624708 0.629127 0.030010
H17   H     H_    0.321192 0.773816 0.682594 0.141890
H18   H     H_    0.376137 0.663516 0.700432 0.067461
H19   H     H_    0.527813 0.737587 0.704334 0.123711
H20   H     H_    0.829926 0.139384 0.688248 0.141761
H21   H     H_    0.327251 0.158367 0.700776 0.130024
H22   H     H_    0.079724 0.669717 0.344588 0.081900
H23   H     H_    0.884064 0.743779 0.344053 -0.024231
H24   H     H_    0.190678 0.757651 0.285509 0.109333
H25   H     H_    0.023284 0.701952 0.260570 0.122929
H26   H     H_    0.636164 0.756073 0.382991 -0.074675
H27   H     H_    0.417122 0.777964 0.395725 0.095331
H28   H     H_    0.515744 0.916277 0.380777 0.078608
H29   H     H_    0.374179 0.882168 0.331589 0.128881
H30   H     H_    0.157708 0.323785 0.654765 0.067469
H31   H     H_    0.593765 0.861600 0.320486 0.147789
H32   H     H_    0.160701 0.460962 0.285005 0.149282
H33   H     H_    0.215660 0.294554 0.118454 0.118222
H34   H     H_    0.553960 0.482592 0.756083 0.113801
H35   H     H_    0.492361 0.325490 0.886616 0.128911
H36   H     H_    0.431082 0.328175 0.972716 0.071079
H37   H     H_    0.649025 0.545248 0.242981 0.111585
H38   H     H_    0.780884 0.710107 0.120928 0.143977
H39   H     H_    0.830950 0.685752 0.956968 0.073542
H40   H     H_    0.355891 0.257481 0.636566 -0.015515
H41   H     H_    0.898788 0.683017 0.871980 0.123701
H42   H     H_    0.035826 0.525584 0.712871 0.144682
H43   H     H_    0.833953 0.707680 0.035048 0.077298
H44   H     H_    0.834070 0.569890 0.395035 0.058231
H45   H     H_    0.368451 0.443659 0.602007 0.067989
H46   H     H_    0.841537 0.960434 0.446617 0.081037
H47   H     H_    0.776357 0.102451 0.472158 0.118922
H48   H     H_    0.386180 0.310641 0.523957 0.067752
H49   H     H_    0.321438 0.274890 0.727463 0.145722
H50   H     H_    0.773734 0.697367 0.467880 0.048578
H51   H     H_    0.133086 0.227736 0.719176 0.126869
H52   H     H_    0.350050 0.303316 0.421097 -0.024643
N1    N     N_R   0.950475 0.508018 0.203719 -0.426990
N2    N     N_R   0.253355 0.499631 0.795259 -0.423027
O1    O     O_2   0.905540 0.548000 0.618290 -0.474434
O2    O     O_3   0.674015 0.258986 0.395865 -0.649558
O3    O     O_3   0.151467 0.193619 0.620086 -0.604499
O4    O     O_2   0.284150 0.451970 0.381680 -0.436036
O5    O     O_3   0.052160 0.451990 0.441880 -0.507424
O6    O     O_3   0.501140 0.616030 0.412450 -0.502641
O7    O     O_3   0.152835 0.308356 0.370352 -0.645973
O8    O     O_3   0.615020 0.608480 0.525380 -0.499813
O9    O     O_3   0.085020 0.662210 0.437090 -0.461766
O10   O     O_2   0.169873 0.821443 0.470097 -0.423592
O11   O     O_3   0.080796 0.802170 0.376653 -0.621354
O12   O     O_3   0.137550 0.547930 0.558110 -0.462160
O13   O     O_3   0.574690 0.391440 0.474610 -0.509057
O14   O     O_2   0.341330 0.720570 0.525000 -0.420558
O15   O     O_3   0.514469 0.749656 0.607292 -0.572977
O16   O     O_2   0.357297 0.563506 0.326749 -0.478628
O17   O     O_3   0.486203 0.707277 0.326260 -0.594464
O18   O     O_2   0.099987 0.368677 0.199404 -0.593375
O19   O     O_2   0.439176 0.374599 0.802587 -0.595250
O20   O     O_2   0.803438 0.646660 0.200769 -0.569445
O21   O     O_2   0.065055 0.626051 0.795722 -0.600124
O22   O     O_3   0.688580 0.383890 0.587540 -0.492624
O23   O     O_2   0.842457 0.426627 0.673136 -0.499566
O24   O     O_3   0.048138 0.691865 0.630722 -0.667651
O25   O     O_3   0.665061 0.299560 0.673401 -0.595790
O26   O     O_2   0.848360 0.279400 0.474970 -0.431760
O27   O     O_3   0.104690 0.337720 0.562900 -0.502771
O28   O     O_2   0.994164 0.183246 0.534513 -0.483516
P1    P     P_3+3 0.070480 0.574800 0.610950 1.021026
P2    P     P_3+3 0.668430 0.292880 0.460530 0.993156
P3    P     P_3+3 0.145465 0.220763 0.559306 0.961834
P4    P     P_3+3 0.119230 0.425130 0.389040 0.997673
P5    P     P_3+3 0.040537 0.778634 0.435921 1.006022
P6    P     P_3+3 0.675314 0.402533 0.652538 0.968352
P7    P     P_3+3 0.525229 0.721780 0.542372 1.047669
P8    P     P_3+3 0.512872 0.601819 0.347137 0.977522
O29   O     O_3   0.809498 0.777522 0.607703 -0.784095
H53   H     H_    0.802411 0.797338 0.644293 0.295185
O30   O     O_3   0.991581 0.708129 0.546512 -0.708819
H54   H     H_    0.907251 0.668220 0.539988 0.291097
O31   O     O_3   0.595607 0.386574 0.361352 -0.743089
H55   H     H_    0.586927 0.434269 0.390609 0.304045
C65   C     C_2   0.963577 0.846521 0.277998 0.523792
H56   H     H_    0.987889 0.908619 0.300430 0.011301
O32   O     O_2   0.861009 0.849931 0.244140 -0.540380
C66   C     C_2   0.258052 0.255335 0.022776 0.485323
H57   H     H_    0.340788 0.206540 0.041639 -0.003117
O33   O     O_2   0.202354 0.230996 0.981401 -0.554984
O34   O     O_3   0.294805 0.019201 0.507982 -0.712654
H58   H     H_    0.182049 0.046956 0.517963 0.330230
C67   C     C_2   0.503994 0.937945 0.574269 0.637666
H59   H     H_    0.552605 0.993172 0.596632 -0.084048
O35   O     O_2   0.381757 0.914260 0.588354 -0.568293
O36   O     O_3   0.160607 0.241543 0.440444 -0.742731
H60   H     H_    0.137577 0.296650 0.465095 0.308142

loop_
_geom_bond_atom_site_label_1
_geom_bond_atom_site_label_2
_ccdc_geom_bond_type
C25   C46   A    
C53   C54   A    
C32   O21   D    
C34   O36   S    
O29   H53   S    
O34   H58   S    
C17   C18   A    
Ba1   O8    S    
C67   H59   S    
Ba1   O12   S    
C9    N1    Am   
Ba2   O9    S    
O31   H55   S    
Ba1   O26   S    
C55   C60   A    
C47   H41   S    
C51   C52   A    
C67   O35   D    
Ba2   O14   S    
C4    H19   S    
C11   C16   D    
C58   C61   A    
O2    P2    S    
C65   O32   D    
C9    O18   D    
Ba1   O5    S    
C49   C54   A    
C56   O30   S    
C23   H49   S    
O30   H54   S    
C28   C29   A    
C19   H33   S    
C55   C57   A    
C8    H28   S    
C31   C47   A    
C5    H23   S    
C10   C20   A    
C23   H21   S    
C22   C37   D    
O15   P7    S    
C34   C45   S    
Ba1   Ba2   S    
C62   H5    S    
C12   H30   S    
C21   H44   S    
C5    H22   S    
O36   H60   S    
C45   H3    S    
C15   H32   S    
Ba1   O22   S    
O8    P7    S    
C33   O19   D    
O26   P2    D    
C61   H48   S    
C7    O17   S    
C25   C42   A    
C65   H56   S    
C14   C15   D    
Ba2   O12   S    
C62   H7    S    
O28   P3    D    
Ba1   P1    S    
C12   O3    S    
C11   H37   S    
C34   H52   S    
C7    C8    S    
C5    O11   S    
C38   H42   S    
C13   C21   S    
O4    P4    D    
C39   N2    S    
C1    H20   S    
C66   O33   D    
O12   P1    S    
C33   N2    Am   
C22   H45   S    
C54   P7    S    
Ba1   O13   S    
C1    H14   S    
C7    H26   S    
C53   C67   S    
C17   C41   A    
C31   C32   A    
C55   O34   S    
C56   C62   S    
C64   H12   S    
O3    P3    S    
C9    C18   A    
Ba2   O13   S    
C4    H18   S    
C49   C50   A    
O11   P5    S    
C17   C20   A    
C2    H13   S    
C37   C38   D    
O23   P6    D    
C52   C60   S    
C50   P5    S    
C44   H38   S    
C6    C65   S    
C48   H43   S    
C63   H8    S    
O17   P8    S    
C58   C59   A    
C19   C43   A    
C40   C43   A    
C35   C36   S    
C8    H31   S    
O27   P3    S    
C41   C42   A    
C45   H4    S    
C27   C28   A    
O5    P4    S    
O7    P4    S    
C10   N1    Am   
C3    H15   S    
C22   C36   S    
C46   H39   S    
C26   C30   A    
C64   H10   S    
Ba2   P4    S    
C10   O20   D    
C15   C16   S    
Ba1   P2    S    
C14   P4    S    
C6    H25   S    
C58   P2    S    
C63   O2    S    
O22   P6    S    
C13   P8    S    
C24   C27   A    
O14   P7    D    
O25   P6    S    
Ba2   O6    S    
C51   H46   S    
C38   C39   S    
C20   C44   A    
C14   C21   D    
C57   P3    S    
C11   C13   S    
C59   H47   S    
C66   H57   S    
C29   C33   A    
Ba1   O27   S    
C34   O7    S    
C6    H24   S    
C40   C41   A    
C36   P6    S    
C1    C2    S    
C7    H27   S    
C45   H2    S    
C1    H9    S    
C50   C51   A    
C24   C40   A    
C43   C66   S    
C42   C48   A    
C3    O15   S    
C64   H11   S    
C44   C48   A    
C52   C53   A    
C46   C47   A    
C4    H17   S    
O24   P1    S    
C24   C26   A    
C29   C30   A    
O13   P2    S    
C56   O29   S    
C23   H51   S    
C2    H1    S    
Ba2   O4    S    
C37   P1    S    
C57   C61   A    
C49   H50   S    
C30   C31   A    
O9    P5    S    
C3    H16   S    
C3    C4    S    
C8    H29   S    
O16   P8    D    
C2    O25   S    
C28   H35   S    
O1    P1    D    
C27   H36   S    
O10   P5    D    
C62   H6    S    
C12   C23   S    
C35   C39   D    
C59   C60   A    
Ba1   O1    S    
C5    C6    S    
Ba2   O5    S    
C56   O24   S    
C12   H40   S    
C18   C19   A    
C32   N2    Am   
C63   C64   S    
C63   O31   S    
C25   C26   A    
C16   N1    S    
C35   H34   S    
O6    P8    S    
Ba2   O8    S    
