data_mof_unit_24589.cif
_audit_creation_date              2012-12-11T14:40:25-0500
_audit_creation_method            fapswitch 2.2
_symmetry_space_group_name_H-M    P1
_symmetry_Int_Tables_number       1
_space_group_crystal_system       triclinic
_cell_length_a                    19.462347
_cell_length_b                    11.120347
_cell_length_c                    19.328031
_cell_angle_alpha                 89.997359
_cell_angle_beta                  98.2014
_cell_angle_gamma                 90.000917
_cell_volume                      4140.34617962

loop_
_atom_site_label
_atom_site_type_symbol
_atom_type_description
_atom_site_fract_x
_atom_site_fract_y
_atom_site_fract_z
_atom_type_partial_charge
C1    C     C_R   0.730709 0.942260 0.355134 0.529948
C2    C     C_3   0.279764 0.332797 0.556469 0.032629
C3    C     C_3   0.371979 0.515389 0.568381 -0.240318
C4    C     C_3   0.404523 0.606905 0.523690 -0.324915
C5    C     C_3   0.448812 0.698047 0.569743 -0.444384
C6    C     C_3   0.127967 0.015324 0.431613 -0.240319
C7    C     C_3   0.095444 0.106846 0.476310 -0.324946
C8    C     C_3   0.051177 0.198023 0.430262 -0.444420
C9    C     C_3   0.871977 0.015392 0.568390 -0.240416
C10   C     C_3   0.904529 0.106907 0.523705 -0.324842
C11   C     C_3   0.948817 0.198042 0.569764 -0.444906
C12   C     C_3   0.220236 0.832792 0.443528 0.032685
C13   C     C_3   0.779763 0.832802 0.556470 0.033137
C14   C     C_3   0.685570 0.441512 0.474143 0.021596
C15   C     C_3   0.314395 0.441548 0.525840 0.021625
C16   C     C_3   0.185568 0.941503 0.474147 0.021598
C17   C     C_3   0.814393 0.941556 0.525843 0.021620
C18   C     C_3   0.756173 0.473280 0.515860 -0.096904
C19   C     C_3   0.243782 0.473213 0.484103 -0.096822
C20   C     C_3   0.256169 0.973276 0.515864 -0.096928
C21   C     C_R   0.269298 0.942288 0.644850 0.530796
C22   C     C_3   0.743779 0.973217 0.484106 -0.096800
C23   C     C_3   0.790415 0.363467 0.487055 -0.114007
C24   C     C_3   0.209580 0.363360 0.512920 -0.114113
C25   C     C_3   0.290414 0.863467 0.487057 -0.114066
C26   C     C_3   0.709579 0.863362 0.512921 -0.114053
C27   C     C_3   0.770726 0.283988 0.546555 -0.127988
C28   C     C_3   0.229317 0.283895 0.453439 -0.127971
C29   C     C_3   0.270728 0.783984 0.546557 -0.127911
C30   C     C_3   0.729317 0.783899 0.453441 -0.128047
C31   C     C_3   0.740147 0.393929 0.576140 0.037683
C32   C     C_R   0.230710 0.442255 0.355131 0.530762
C33   C     C_3   0.259858 0.393874 0.423841 0.037138
C34   C     C_3   0.240146 0.893923 0.576143 0.037104
C35   C     C_3   0.759857 0.893880 0.423845 0.037718
C36   C     C_3   0.492800 0.278821 0.979674 -0.098602
C37   C     C_3   0.443322 0.263322 0.034506 -0.122171
C38   C     C_3   0.057325 0.762404 0.965363 -0.122688
C39   C     C_3   0.007988 0.779435 0.020198 -0.098623
C40   C     C_3   0.543199 0.185949 0.017322 -0.104663
C41   C     C_3   0.405216 0.159514 0.991347 -0.145184
C42   C     C_3   0.094680 0.658043 0.008669 -0.145077
C43   C     C_R   0.769299 0.442292 0.644847 0.529975
C44   C     C_3   0.956900 0.687465 0.982692 -0.104599
C45   C     C_3   0.493709 0.170725 0.071791 0.052051
C46   C     C_3   0.455323 0.175317 0.937564 0.046612
C47   C     C_3   0.044706 0.675368 0.062442 0.046607
C48   C     C_3   0.006256 0.670702 0.928229 0.052018
C49   C     C_R   0.535587 0.180293 0.337744 0.529400
C50   C     C_R   0.464416 0.180296 0.662262 0.542688
C51   C     C_R   0.035585 0.680292 0.337739 0.542678
C52   C     C_R   0.964414 0.680297 0.662257 0.529427
C53   C     C_3   0.456335 0.066521 0.030450 -0.118978
C54   C     C_3   0.698968 0.255338 0.503870 -0.164210
C55   C     C_3   0.505552 0.082315 0.974938 -0.103882
C56   C     C_3   0.993787 0.583278 0.025204 -0.103943
C57   C     C_3   0.042872 0.565949 0.969712 -0.118549
C58   C     C_1   0.762389 0.424846 0.903715 0.002618
C59   C     C_1   0.237758 0.424486 0.096395 -0.007428
C60   C     C_1   0.262268 0.924539 0.903624 -0.007363
C61   C     C_1   0.737611 0.924856 0.096284 0.002594
C62   C     C_1   0.747365 0.408347 0.034654 -0.045283
C63   C     C_1   0.252823 0.407828 0.965491 -0.053284
C64   C     C_1   0.247202 0.907896 0.034527 -0.053236
C65   C     C_3   0.301082 0.255354 0.496149 -0.164413
C66   C     C_1   0.752632 0.908350 0.965344 -0.045297
C67   C     C_1   0.753876 0.415077 0.963602 -0.041838
C68   C     C_1   0.246334 0.414538 0.036539 -0.054927
C69   C     C_1   0.253699 0.914613 0.963483 -0.054884
C70   C     C_1   0.746122 0.915086 0.036396 -0.041828
C71   C     C_1   0.742729 0.395391 0.095313 -0.003602
C72   C     C_1   0.257398 0.395013 0.904811 -0.008955
C73   C     C_1   0.242615 0.895060 0.095202 -0.008935
C74   C     C_1   0.757269 0.895389 0.904685 -0.003661
C75   C     C_R   0.722243 0.306383 0.367585 0.561230
C76   C     C_3   0.198970 0.755330 0.503872 -0.164398
C77   C     C_R   0.277757 0.306388 0.632415 0.563355
C78   C     C_R   0.222242 0.806382 0.367585 0.563369
C79   C     C_R   0.777757 0.806389 0.632415 0.561219
C80   C     C_R   0.722341 0.952306 0.164191 0.544354
C81   C     C_R   0.277641 0.952260 0.835790 0.534814
C82   C     C_R   0.222365 0.452248 0.164217 0.534760
C83   C     C_R   0.777658 0.452301 0.835808 0.544402
C84   C     C_R   0.527143 0.178814 0.143112 0.542804
C85   C     C_R   0.436240 0.182772 0.862359 0.565826
C86   C     C_R   0.063761 0.682784 0.137646 0.565831
C87   C     C_3   0.801084 0.755361 0.496151 -0.164224
C88   C     C_R   0.972821 0.678811 0.856911 0.542862
C89   C     C_R   0.736175 0.360796 0.164765 0.558775
C90   C     C_R   0.263863 0.360673 0.835296 0.550389
C91   C     C_R   0.236140 0.860685 0.164709 0.550402
C92   C     C_R   0.763824 0.860793 0.835235 0.558764
C93   C     C_1   0.485942 0.172750 0.595138 -0.021135
C94   C     C_1   0.514056 0.172739 0.404864 -0.018714
C95   C     C_1   0.985950 0.672750 0.595139 -0.018722
C96   C     C_1   0.014065 0.672740 0.404866 -0.021131
C97   C     C_1   0.504036 0.169525 0.464582 -0.070212
C98   C     C_3   0.720237 0.332796 0.443527 0.033193
C99   C     C_1   0.495958 0.169531 0.535419 -0.070955
C100  C     C_1   0.004051 0.669526 0.464585 -0.070944
C101  C     C_1   0.995973 0.669530 0.535423 -0.070222
C102  C     C_3   0.668130 0.366375 0.535962 -0.116116
C103  C     C_3   0.331881 0.366418 0.464041 -0.116362
C104  C     C_3   0.168130 0.866364 0.535965 -0.116424
C105  C     C_3   0.831881 0.866428 0.464044 -0.116053
C106  C     C_3   0.627970 0.515327 0.431605 -0.240418
C107  C     C_3   0.595438 0.606848 0.476295 -0.324872
C108  C     C_3   0.551172 0.698017 0.430240 -0.444944
Cr1   Cr    Cr6+3 0.765830 0.160660 0.268180 1.014784
Cr2   Cr    Cr6+3 0.384070 0.324050 0.751550 1.000353
Cr3   Cr    Cr6+3 0.115930 0.824050 0.248450 1.000311
Cr4   Cr    Cr6+3 0.884070 0.824050 0.751550 1.005451
Cr5   Cr    Cr6+3 0.234170 0.160660 0.731820 1.003656
Cr6   Cr    Cr6+3 0.265830 0.660660 0.268180 1.003641
Cr7   Cr    Cr6+3 0.734170 0.660660 0.731820 1.014781
Cr8   Cr    Cr6+3 0.612110 0.009150 0.248770 1.013135
Cr9   Cr    Cr6+3 0.387890 0.009150 0.751230 1.012279
Cr10  Cr    Cr6+3 0.112110 0.509150 0.248770 1.012319
Cr11  Cr    Cr6+3 0.887890 0.509150 0.751230 1.013117
Cr12  Cr    Cr6+3 0.615930 0.324050 0.248450 1.005435
H1    H     H_    0.662687 0.178475 0.503144 0.111358
H2    H     H_    0.726475 0.060697 0.465708 0.111790
H3    H     H_    0.773372 0.560825 0.534229 0.111813
H4    H     H_    0.226481 0.560695 0.465705 0.111847
H5    H     H_    0.841746 0.366157 0.468355 0.132928
H6    H     H_    0.158245 0.366000 0.531610 0.132617
H7    H     H_    0.341745 0.866161 0.468356 0.132611
H8    H     H_    0.658243 0.865998 0.531611 0.132934
H9    H     H_    0.801881 0.222609 0.582318 0.130398
H10   H     H_    0.198201 0.222433 0.417697 0.130258
H11   H     H_    0.301883 0.722606 0.582320 0.130313
H12   H     H_    0.337367 0.178481 0.496949 0.110826
H13   H     H_    0.698202 0.722437 0.417699 0.130343
H14   H     H_    0.600439 0.196762 0.029202 0.120243
H15   H     H_    0.348100 0.149042 0.978386 0.116648
H16   H     H_    0.151716 0.646401 0.021635 0.116733
H17   H     H_    0.899743 0.699519 0.970817 0.120369
H18   H     H_    0.508369 0.366174 0.958798 0.142951
H19   H     H_    0.417954 0.336625 0.060555 0.129270
H20   H     H_    0.083207 0.834923 0.939188 0.129052
H21   H     H_    0.993085 0.867288 0.040970 0.142921
H22   H     H_    0.441542 0.980328 0.053262 0.128214
H23   H     H_    0.162692 0.678463 0.503148 0.110824
H24   H     H_    0.531196 0.008831 0.949314 0.135729
H25   H     H_    0.967612 0.510586 0.050942 0.135617
H26   H     H_    0.057026 0.479263 0.947015 0.128351
H27   H     H_    0.579146 0.734190 0.388618 0.170306
H28   H     H_    0.502396 0.655185 0.405105 0.152639
H29   H     H_    0.538563 0.775275 0.462261 0.147524
H30   H     H_    0.562450 0.559019 0.509718 0.156294
H31   H     H_    0.636315 0.653809 0.511938 0.180976
H32   H     H_    0.648479 0.558370 0.387237 0.160315
H33   H     H_    0.586367 0.452784 0.408794 0.177588
H34   H     H_    0.837372 0.678493 0.496952 0.111360
H35   H     H_    0.420895 0.734106 0.611434 0.170637
H36   H     H_    0.497626 0.655231 0.594794 0.153116
H37   H     H_    0.461350 0.775383 0.537737 0.147353
H38   H     H_    0.437499 0.559072 0.490259 0.156246
H39   H     H_    0.363651 0.653884 0.488049 0.181054
H40   H     H_    0.351453 0.558423 0.612738 0.160496
H41   H     H_    0.413582 0.452860 0.591211 0.177355
H42   H     H_    0.079147 0.234194 0.388637 0.170685
H43   H     H_    0.002397 0.155198 0.405132 0.153145
H44   H     H_    0.038575 0.275280 0.462288 0.147361
H45   H     H_    0.618819 0.367370 0.558632 0.113927
H46   H     H_    0.062459 0.059019 0.509737 0.156247
H47   H     H_    0.136326 0.153801 0.511950 0.181023
H48   H     H_    0.148473 0.058365 0.387244 0.160536
H49   H     H_    0.086361 0.952785 0.408805 0.177339
H50   H     H_    0.920895 0.234102 0.611453 0.170258
H51   H     H_    0.997627 0.155219 0.594821 0.152616
H52   H     H_    0.961362 0.275379 0.537763 0.147515
H53   H     H_    0.937508 0.059072 0.490277 0.156294
H54   H     H_    0.863662 0.153892 0.488061 0.181007
H55   H     H_    0.851448 0.058428 0.612745 0.160276
H56   H     H_    0.381197 0.367454 0.441381 0.113244
H57   H     H_    0.913577 0.952859 0.591222 0.177605
H58   H     H_    0.118819 0.867355 0.558636 0.113261
H59   H     H_    0.881197 0.867468 0.441386 0.113912
H60   H     H_    0.273365 0.060823 0.534231 0.111871
O1    O     O_R   0.783230 0.287800 0.346510 -0.518123
O2    O     O_R   0.454570 0.285140 0.836900 -0.513974
O3    O     O_R   0.045430 0.785140 0.163100 -0.513990
O4    O     O_R   0.954570 0.785140 0.836900 -0.511765
O5    O     O_R   0.677850 0.374730 0.185500 -0.487378
O6    O     O_R   0.322150 0.374730 0.814500 -0.503815
O7    O     O_R   0.177850 0.874730 0.185500 -0.503862
O8    O     O_R   0.822150 0.874730 0.814500 -0.487445
O9    O     O_3   0.664630 0.164620 0.255130 -0.274260
O10   O     O_3   0.335370 0.164620 0.744870 -0.297052
O11   O     O_3   0.164630 0.664620 0.255130 -0.297048
O12   O     O_R   0.216770 0.287800 0.653490 -0.516651
O13   O     O_3   0.835370 0.664620 0.744870 -0.274269
O14   O     O_R   0.760130 0.037060 0.338610 -0.526174
O15   O     O_R   0.239870 0.037060 0.661390 -0.524126
O16   O     O_R   0.260130 0.537060 0.338610 -0.524111
O17   O     O_R   0.739870 0.537060 0.661390 -0.526192
O18   O     O_R   0.666620 0.921370 0.332440 -0.519605
O19   O     O_R   0.333380 0.921370 0.667560 -0.518818
O20   O     O_R   0.166620 0.421370 0.332440 -0.518816
O21   O     O_R   0.833380 0.421370 0.667560 -0.519609
O22   O     O_R   0.557170 0.082420 0.312350 -0.493719
O23   O     O_R   0.283230 0.787800 0.346510 -0.516662
O24   O     O_R   0.442830 0.082420 0.687650 -0.486515
O25   O     O_R   0.057170 0.582420 0.312350 -0.486525
O26   O     O_R   0.942830 0.582420 0.687650 -0.493703
O27   O     O_R   0.548310 0.285980 0.316250 -0.537761
O28   O     O_R   0.451690 0.285980 0.683750 -0.531172
O29   O     O_R   0.048310 0.785980 0.316250 -0.531173
O30   O     O_R   0.951690 0.785980 0.683750 -0.537737
O31   O     O_R   0.680520 0.375500 0.327470 -0.511885
O32   O     O_R   0.319480 0.375500 0.672530 -0.511085
O33   O     O_R   0.180520 0.875500 0.327470 -0.511087
O34   O     O_R   0.716770 0.787800 0.653490 -0.518114
O35   O     O_R   0.819480 0.875500 0.672530 -0.511879
O36   O     O_R   0.780350 0.286970 0.193350 -0.502842
O37   O     O_R   0.219650 0.286970 0.806650 -0.504174
O38   O     O_R   0.280350 0.786970 0.193350 -0.504192
O39   O     O_R   0.719650 0.786970 0.806650 -0.502815
O40   O     O_R   0.757460 0.036290 0.196640 -0.498075
O41   O     O_R   0.242540 0.036290 0.803360 -0.502300
O42   O     O_R   0.257460 0.536290 0.196640 -0.502302
O43   O     O_R   0.742540 0.536290 0.803360 -0.498075
O44   O     O_R   0.663740 0.920540 0.179290 -0.506958
O45   O     O_R   0.554500 0.081650 0.170370 -0.497459
O46   O     O_R   0.336260 0.920540 0.820710 -0.512377
O47   O     O_R   0.163740 0.420540 0.179290 -0.512348
O48   O     O_R   0.836260 0.420540 0.820710 -0.506962
O49   O     O_R   0.445500 0.081650 0.829630 -0.496686
O50   O     O_R   0.054500 0.581650 0.170370 -0.496627
O51   O     O_R   0.945500 0.581650 0.829630 -0.497528
O52   O     O_R   0.545430 0.285140 0.163100 -0.511815

loop_
_geom_bond_atom_site_label_1
_geom_bond_atom_site_label_2
_ccdc_geom_bond_type
C61   C70   T    
C10   H54   S    
C24   H6    S    
Cr8   O9    S    
C13   C79   S    
C11   H51   S    
C44   H17   S    
Cr12  O27   S    
C14   C18   S    
C64   C73   T    
C1    O18   A    
Cr11  O21   S    
C59   C82   S    
C32   O16   A    
C2    C65   S    
Cr10  O20   S    
Cr12  O5    S    
Cr12  O52   S    
Cr3   O29   S    
C27   C54   S    
C9    H57   S    
C48   C57   S    
C20   H60   S    
C29   C76   S    
C66   C70   S    
C15   C19   S    
C22   C35   S    
Cr7   O17   S    
C75   O31   A    
C85   O2    A    
Cr6   O16   S    
C62   C67   S    
C19   C24   S    
C52   O26   A    
C28   C65   S    
Cr7   O43   S    
C36   C37   S    
C105  H59   S    
C38   C42   S    
C38   C39   S    
C88   O4    A    
C4    H39   S    
C106  C107  S    
C61   C80   S    
C66   C74   T    
Cr8   O18   S    
C56   C57   S    
C42   C57   S    
C52   C95   S    
C42   H16   S    
C53   H22   S    
Cr10  O11   S    
Cr4   O35   S    
C74   C92   S    
C56   H25   S    
C44   C56   S    
C103  H56   S    
C90   O37   A    
C91   O7    A    
C77   O32   A    
C49   O22   A    
C107  H30   S    
C16   C104  S    
C79   O34   A    
C4    H38   S    
C39   H21   S    
Cr1   O9    S    
C12   C78   S    
C46   C55   S    
C43   O21   A    
C41   C46   S    
C48   C88   S    
C36   C46   S    
C55   H24   S    
C23   C27   S    
C49   C94   S    
Cr9   O24   S    
C9    C10   S    
C93   C99   T    
C38   C48   S    
Cr9   O19   S    
C16   C20   S    
C18   H3    S    
C23   H5    S    
C108  H27   S    
C107  H31   S    
Cr1   O36   S    
C10   H53   S    
C79   O35   A    
Cr7   O13   S    
C45   C53   S    
C11   H52   S    
C57   H26   S    
C52   O30   A    
Cr5   O15   S    
Cr7   O39   S    
C23   C98   S    
C21   O19   A    
C84   O45   A    
C78   O33   A    
Cr5   O37   S    
C97   C99   S    
C54   C102  S    
Cr11  O48   S    
C14   C98   S    
C83   O48   A    
C53   C55   S    
C25   C29   S    
C40   C45   S    
C19   H4    S    
C6    H48   S    
Cr9   O46   S    
C106  H32   S    
C81   O46   A    
C27   C31   S    
C18   C23   S    
C86   O50   A    
C31   C102  S    
C12   C16   S    
Cr3   O11   S    
C7    C8    S    
Cr10  O25   S    
C85   O49   A    
C78   O23   A    
C73   C91   S    
Cr4   O4    S    
C19   C33   S    
Cr8   O45   S    
C3    H41   S    
C21   C34   S    
C90   O6    A    
C94   C97   T    
C5    H35   S    
C40   H14   S    
C29   C34   S    
Cr2   O10   S    
C75   C98   S    
C34   C104  S    
C108  H29   S    
Cr7   O34   S    
Cr11  O13   S    
Cr4   O30   S    
Cr8   O44   S    
C92   O39   A    
C76   C104  S    
C47   C86   S    
C80   O40   A    
C35   C105  S    
C17   C105  S    
C59   C68   T    
C80   O44   A    
C72   C90   S    
C60   C81   S    
C51   O29   A    
C87   C105  S    
C36   C40   S    
C107  C108  S    
C30   H13   S    
Cr5   O41   S    
C13   C87   S    
Cr3   O3    S    
C87   H34   S    
C106  H33   S    
Cr1   O14   S    
C43   O17   A    
Cr11  O26   S    
C26   H8    S    
C64   C69   S    
C21   O15   A    
C2    C15   S    
C41   C53   S    
C6    C7    S    
C22   C26   S    
C31   C43   S    
C71   C89   S    
C89   O36   A    
C30   C35   S    
C9    C17   S    
C54   H1    S    
Cr2   O28   S    
C28   C33   S    
C26   C30   S    
C102  H45   S    
C5    H37   S    
C10   C11   S    
C12   C76   S    
C8    H44   S    
C86   O3    A    
C27   H9    S    
Cr10  O50   S    
C13   C26   S    
C45   C84   S    
C65   C103  S    
C37   C45   S    
C3    C4    S    
C75   O1    A    
C41   H15   S    
C65   H12   S    
C3    C15   S    
C40   C55   S    
C1    C35   S    
C39   C47   S    
Cr1   O1    S    
Cr5   O12   S    
C7    H47   S    
C63   C68   S    
Cr2   O6    S    
Cr5   O10   S    
Cr6   O11   S    
C33   C103  S    
C77   O12   A    
C89   O5    A    
C7    H46   S    
Cr2   O32   S    
C24   C28   S    
C4    C5    S    
C8    H43   S    
Cr3   O33   S    
Cr4   O8    S    
Cr8   O22   S    
C51   O25   A    
C50   C93   S    
C39   C44   S    
C82   O42   A    
Cr11  O51   S    
C50   O24   A    
C5    H36   S    
C81   O41   A    
C82   O47   A    
C51   C96   S    
Cr3   O7    S    
C17   C22   S    
C13   C17   S    
C12   C25   S    
Cr10  O47   S    
C32   C33   S    
C46   C85   S    
C91   O38   A    
C108  H28   S    
C1    O14   A    
C25   H7    S    
C83   O43   A    
C32   O20   A    
Cr1   O40   S    
C8    H42   S    
Cr12  O9    S    
C2    C24   S    
C3    H40   S    
C29   H11   S    
C36   H18   S    
C60   C69   T    
Cr12  O31   S    
C96   C100  T    
Cr9   O49   S    
C100  C101  S    
C62   C71   T    
C9    H55   S    
C28   H10   S    
C42   C47   S    
C37   C41   S    
C84   O52   A    
Cr4   O13   S    
C14   C102  S    
Cr9   O10   S    
Cr6   O38   S    
C6    C16   S    
C20   C34   S    
C76   H23   S    
C95   C101  T    
C58   C67   T    
C14   C106  S    
C88   O51   A    
C63   C72   T    
Cr2   O2    S    
C11   H50   S    
C20   C25   S    
C2    C77   S    
C38   H20   S    
Cr6   O23   S    
C54   C98   S    
C22   H2    S    
C104  H58   S    
C18   C31   S    
C15   C103  S    
C30   C87   S    
C58   C83   S    
C37   H19   S    
C49   O27   A    
C92   O8    A    
C44   C48   S    
C47   C56   S    
Cr6   O42   S    
C6    H49   S    
C50   O28   A    
