data_mof_unit_15066.cif
_audit_creation_date              2012-12-10T20:03:08-0500
_audit_creation_method            fapswitch 2.2
_symmetry_space_group_name_H-M    P1
_symmetry_Int_Tables_number       1
_space_group_crystal_system       triclinic
_cell_length_a                    8.572863
_cell_length_b                    18.898456
_cell_length_c                    18.522289
_cell_angle_alpha                 89.886564
_cell_angle_beta                  98.637124
_cell_angle_gamma                 89.390419
_cell_volume                      2966.64847548

loop_
_atom_site_label
_atom_site_type_symbol
_atom_type_description
_atom_site_fract_x
_atom_site_fract_y
_atom_site_fract_z
_atom_type_partial_charge
C1    C     C_R   0.499007 0.365031 0.499877 0.977351
C2    C     C_R   0.494820 0.634723 0.499646 1.013833
C3    C     C_R   0.377052 0.965784 0.559406 -0.353143
C4    C     C_R   0.277400 0.034952 0.426572 -0.331589
C5    C     C_R   0.383848 0.039000 0.556145 0.526545
C6    C     C_R   0.278320 0.960536 0.429449 0.505521
C7    C     C_R   0.337237 0.073890 0.488770 0.066604
C8    C     C_R   0.333261 0.927002 0.496044 0.076375
C9    C     C_R   0.600833 0.543858 0.732820 0.347820
C10   C     C_R   0.403043 0.455146 0.266625 0.358873
C11   C     C_R   0.602498 0.546379 0.809269 0.400613
C12   C     C_R   0.403431 0.453363 0.190317 0.402083
C13   C     C_R   0.504553 0.501077 0.842429 -0.050121
C14   C     C_R   0.498998 0.500563 0.158014 -0.056919
C15   C     C_R   0.401550 0.457495 0.797168 -0.358112
C16   C     C_R   0.597889 0.545289 0.203886 -0.349614
C17   C     C_R   0.400590 0.457573 0.721228 0.473643
C18   C     C_R   0.597121 0.544514 0.279688 0.460793
C19   C     C_R   0.366747 0.518968 0.951636 -0.357179
C20   C     C_R   0.637909 0.483943 0.048974 -0.335608
C21   C     C_R   0.363181 0.520305 0.027302 0.463352
C22   C     C_R   0.641522 0.482580 0.973304 0.475585
C23   C     C_R   0.201101 0.498155 0.480928 1.016750
C24   C     C_R   0.798996 0.499310 0.519066 0.985570
C25   C     C_R   0.499341 0.502169 0.077041 0.015988
C26   C     C_R   0.505177 0.500528 0.923515 0.001956
C27   C     C_2   0.036039 0.495909 0.470650 -0.269133
C28   C     C_2   0.964055 0.498360 0.529363 -0.295053
C29   C     C_R   0.563614 0.759003 0.485519 -0.367808
C30   C     C_R   0.334441 0.267927 0.528040 -0.370866
C31   C     C_R   0.524371 0.831139 0.484362 0.429447
C32   C     C_R   0.287356 0.197218 0.524488 0.524780
C33   C     C_R   0.372918 0.851973 0.497352 -0.076280
C34   C     C_R   0.364722 0.150040 0.482755 -0.098100
C35   C     C_R   0.261101 0.802063 0.510751 0.402908
C36   C     C_R   0.484880 0.173542 0.443870 0.345830
C37   C     C_R   0.299316 0.730101 0.508520 0.259147
C38   C     C_R   0.541349 0.243215 0.455311 0.244023
C39   C     C_R   0.451959 0.709035 0.497366 -0.212972
C40   C     C_R   0.463226 0.290074 0.496522 -0.208247
H1    H     H_    0.974225 0.493307 0.414966 0.217420
H2    H     H_    0.025795 0.500999 0.585036 0.228103
H3    H     H_    0.322700 0.422918 0.820889 0.216625
H4    H     H_    0.674509 0.581396 0.180730 0.222323
H5    H     H_    0.261226 0.533420 0.914462 0.224905
H6    H     H_    0.743201 0.469244 0.086185 0.222332
H7    H     H_    0.681363 0.741634 0.478877 0.199031
H8    H     H_    0.270520 0.306662 0.554860 0.214836
H9    H     H_    0.416512 0.938785 0.610669 0.155487
H10   H     H_    0.234377 0.062573 0.376218 0.158774
N1    N     N_R   0.500020 0.499980 0.689440 -0.171050
N2    N     N_R   0.499980 0.500020 0.310560 -0.178318
O1    O     O_R   0.500010 0.398180 0.560840 -0.603673
O2    O     O_R   0.499990 0.601820 0.439160 -0.572581
O3    O     O_R   0.499930 0.398180 0.439210 -0.552630
O4    O     O_R   0.500070 0.601820 0.560790 -0.568674
O5    O     O_R   0.271780 0.500000 0.546590 -0.576122
O6    O     O_R   0.728220 0.500000 0.453410 -0.583970
O7    O     O_R   0.271710 0.499990 0.424960 -0.579321
O8    O     O_R   0.728290 0.500010 0.575040 -0.580096
Zn1   Zn    Zn3+2 0.500050 0.500000 0.581210 1.058829
Zn2   Zn    Zn3+2 0.499950 0.500000 0.418790 1.081536
Cl1   Cl    Cl    0.268497 0.401517 0.668827 -0.693394
Cl2   Cl    Cl    0.723256 0.603038 0.333060 -0.563517
Cl3   Cl    Cl    0.187068 0.547450 0.057743 -0.533882
Cl4   Cl    Cl    0.817242 0.454578 0.943026 -0.545537
O9    O     O_3   0.635807 0.882661 0.478091 -0.661465
C41   C     C_3   0.700231 0.873932 0.412802 0.082154
H11   H     H_    0.606387 0.863282 0.365631 0.144870
H12   H     H_    0.788065 0.829783 0.418646 0.198342
C42   C     C_3   0.785027 0.941788 0.397557 -0.307323
H13   H     H_    0.703600 0.987776 0.398725 0.246545
H14   H     H_    0.888206 0.949293 0.440904 0.252759
C43   C     C_3   0.841449 0.939023 0.323307 -0.901824
H15   H     H_    0.919699 0.892283 0.320248 0.304349
H16   H     H_    0.907969 0.987751 0.315087 0.270726
H17   H     H_    0.739170 0.935590 0.278965 0.239034
O10   O     O_3   0.158735 0.173230 0.555464 -0.598352
C44   C     C_3   0.150794 0.202834 0.625220 0.133971
H18   H     H_    0.264920 0.224833 0.652322 0.129490
H19   H     H_    0.124502 0.159572 0.662102 0.170131
C45   C     C_3   0.019486 0.259472 0.620571 -0.322091
H20   H     H_    0.036681 0.291490 0.671311 0.226448
H21   H     H_    0.023292 0.295523 0.573546 0.259052
C46   C     C_3   0.856473 0.226995 0.612716 -0.817884
H22   H     H_    0.838930 0.190168 0.565651 0.305836
H23   H     H_    0.764987 0.269436 0.603999 0.259902
H24   H     H_    0.843839 0.198444 0.663700 0.227215
O11   O     O_3   0.111358 0.823744 0.521158 -0.602569
C47   C     C_3   0.104484 0.825212 0.596935 0.080971
H25   H     H_    0.183495 0.866752 0.624040 0.119512
H26   H     H_    0.139782 0.773194 0.623182 0.184552
C48   C     C_3   0.935553 0.842263 0.608532 -0.264349
H27   H     H_    0.903612 0.896783 0.588572 0.238794
H28   H     H_    0.854052 0.804592 0.576710 0.262254
C49   C     C_3   0.916054 0.836366 0.688870 -0.956265
H29   H     H_    0.935503 0.780760 0.707966 0.293914
H30   H     H_    0.794502 0.852942 0.695758 0.266816
H31   H     H_    0.001549 0.870872 0.722889 0.255347
O12   O     O_3   0.553708 0.125481 0.400919 -0.643163
C50   C     C_3   0.552678 0.152012 0.328981 0.170739
H32   H     H_    0.675041 0.166594 0.322577 0.212575
H33   H     H_    0.473764 0.199171 0.315457 0.152160
C51   C     C_3   0.499104 0.094612 0.273247 -0.411878
H34   H     H_    0.573265 0.046433 0.285830 0.234736
H35   H     H_    0.374405 0.081877 0.276118 0.210791
C52   C     C_3   0.511419 0.118868 0.195713 -0.954671
H36   H     H_    0.436403 0.166606 0.181433 0.257688
H37   H     H_    0.470385 0.076057 0.156673 0.270746
H38   H     H_    0.635712 0.131204 0.190630 0.270673
Cl5   Cl    Cl    0.152484 0.667418 0.517591 -0.601188
Cl6   Cl    Cl    0.716879 0.270568 0.424342 -0.638843
O13   O     O_3   0.432556 0.075910 0.619780 -0.652477
C53   C     C_3   0.596643 0.088198 0.627314 0.055787
H39   H     H_    0.619828 0.134300 0.664126 0.177597
H40   H     H_    0.636504 0.102669 0.574718 0.147365
C54   C     C_3   0.693172 0.024695 0.662261 -0.365665
H41   H     H_    0.646796 0.007953 0.712456 0.234293
H42   H     H_    0.683614 0.979743 0.623439 0.235328
C55   C     C_3   0.867399 0.042789 0.681843 -0.942603
H43   H     H_    0.915877 0.060001 0.632369 0.285332
H44   H     H_    0.934631 0.995460 0.704935 0.271164
H45   H     H_    0.883111 0.085304 0.723487 0.260017
O14   O     O_3   0.221489 0.918631 0.369923 -0.638056
C56   C     C_3   0.283799 0.939034 0.306849 0.032570
H46   H     H_    0.409443 0.955187 0.320154 0.142750
H47   H     H_    0.211024 0.983003 0.279085 0.146711
C57   C     C_3   0.276244 0.876312 0.254678 -0.293371
H48   H     H_    0.344017 0.830925 0.282474 0.233483
H49   H     H_    0.151446 0.860080 0.239267 0.235231
C58   C     C_3   0.344675 0.895117 0.185729 -0.951654
H50   H     H_    0.277334 0.939864 0.156573 0.264425
H51   H     H_    0.337158 0.848663 0.148814 0.278969
H52   H     H_    0.470480 0.910104 0.199816 0.259947
Cl7   Cl    Cl    0.731178 0.599002 0.694687 -0.553654
Cl8   Cl    Cl    0.274554 0.398499 0.303998 -0.545393
O15   O     O_3   0.705201 0.591088 0.851471 -0.562625
C59   C     C_3   0.625869 0.655627 0.860280 0.092312
H53   H     H_    0.522554 0.647004 0.889153 0.135695
H54   H     H_    0.584757 0.681000 0.806273 0.154571
C60   C     C_3   0.739726 0.705572 0.905883 -0.262571
H55   H     H_    0.781045 0.680999 0.960071 0.248384
H56   H     H_    0.843946 0.714356 0.877907 0.241993
C61   C     C_3   0.661071 0.776737 0.916918 -0.976689
H57   H     H_    0.557869 0.769330 0.945847 0.272578
H58   H     H_    0.621587 0.802858 0.863407 0.265480
H59   H     H_    0.746741 0.811658 0.950306 0.273763
O16   O     O_3   0.304438 0.407810 0.147266 -0.545244
C62   C     C_3   0.389584 0.345336 0.136080 0.117755
H60   H     H_    0.414837 0.314596 0.187950 0.131755
H61   H     H_    0.503771 0.356727 0.116662 0.122996
C63   C     C_3   0.290932 0.299313 0.079065 -0.361294
H62   H     H_    0.355657 0.248884 0.073263 0.168161
H63   H     H_    0.177192 0.286538 0.097791 0.242852
C64   C     C_3   0.258197 0.335881 0.004591 -0.697547
H64   H     H_    0.185043 0.384302 0.007669 0.321565
H65   H     H_    0.192820 0.299508 0.964123 0.232938
H66   H     H_    0.370609 0.350355 0.985586 0.231767

loop_
_geom_bond_atom_site_label_1
_geom_bond_atom_site_label_2
_ccdc_geom_bond_type
O6    Zn2   S    
C38   C40   A    
O3    Zn2   S    
C48   H27   S    
C64   H65   S    
C9    N1    A    
C6    O14   S    
C58   H52   S    
C10   N2    A    
C57   H48   S    
C17   N1    A    
C54   H42   S    
C51   H35   S    
C53   H39   S    
C3    H9    S    
C18   N2    A    
C46   H22   S    
C23   O7    A    
C50   H32   S    
C43   H16   S    
C29   H7    S    
C30   H8    S    
C35   C37   A    
C10   Cl8   S    
C60   H56   S    
C62   H60   S    
C20   C25   A    
C49   H31   S    
C23   O5    A    
C28   H2    S    
C19   C26   A    
C1    O1    A    
C22   Cl4   S    
C1    C40   S    
C33   C35   A    
O1    Zn1   S    
C2    C39   S    
C41   H11   S    
C43   H17   S    
C49   H30   S    
C56   C57   S    
C52   H36   S    
C31   C33   A    
C23   C27   S    
C16   H4    S    
C55   H45   S    
C3    C5    A    
C5    O13   S    
C48   H28   S    
C54   C55   S    
C64   H66   S    
C29   C31   A    
C52   H37   S    
C61   H59   S    
C51   H34   S    
C55   H44   S    
C46   H23   S    
C43   H15   S    
O9    C41   S    
C24   O6    A    
O16   C62   S    
C61   H58   S    
C3    C8    A    
C2    O2    A    
C60   C61   S    
C5    C7    A    
O10   C44   S    
C6    C8    A    
O2    Zn2   S    
C4    C7    A    
C4    H10   S    
O8    Zn1   S    
C32   C34   A    
C31   O9    S    
C42   C43   S    
C27   H1    S    
C47   H26   S    
C63   C64   S    
C24   O8    A    
C49   H29   S    
C29   C39   A    
C30   C40   A    
C36   O12   S    
C9    C11   A    
C10   C12   A    
C9    Cl7   S    
C4    C6    A    
C63   H63   S    
C48   C49   S    
C45   H21   S    
C13   C15   A    
C56   H46   S    
C52   H38   S    
C14   C16   A    
C13   C26   S    
C62   C63   S    
C38   Cl6   S    
C58   H50   S    
C57   C58   S    
C35   O11   S    
C64   H64   S    
C55   H43   S    
C47   C48   S    
C42   H14   S    
O13   C53   S    
C50   H33   S    
C46   H24   S    
C15   C17   A    
C21   C25   A    
O7    Zn2   S    
C21   Cl3   S    
C24   C28   S    
C20   C22   A    
C61   H57   S    
C58   H51   S    
C59   C60   S    
C57   H49   S    
C44   C45   S    
C53   H40   S    
C19   H5    S    
O5    Zn1   S    
C59   H54   S    
C50   C51   S    
C45   C46   S    
O15   C59   S    
C44   H19   S    
C12   O16   S    
C62   H61   S    
C12   C14   A    
C15   H3    S    
C42   H13   S    
C37   C39   A    
N2    Zn2   S    
C60   H55   S    
C17   Cl1   S    
C30   C32   A    
N1    Zn1   S    
C11   C13   A    
C18   Cl2   S    
C47   H25   S    
C41   C42   S    
C36   C38   A    
O12   C50   S    
C7    C34   S    
C34   C36   A    
C8    C33   S    
C14   C25   S    
C1    O3    A    
C37   Cl5   S    
C53   C54   S    
C59   H53   S    
C32   O10   S    
C44   H18   S    
C11   O15   S    
C63   H62   S    
C16   C18   A    
C45   H20   S    
C22   C26   A    
C27   C28   D    
C56   H47   S    
C41   H12   S    
O4    Zn1   S    
C2    O4    A    
O11   C47   S    
C54   H41   S    
C51   C52   S    
C20   H6    S    
O14   C56   S    
C19   C21   A    
