data_mof_unit_20702.cif
_audit_creation_date              2012-12-11T17:18:34-0500
_audit_creation_method            fapswitch 2.2
_symmetry_space_group_name_H-M    P1
_symmetry_Int_Tables_number       1
_space_group_crystal_system       triclinic
_cell_length_a                    27.467617
_cell_length_b                    22.374628
_cell_length_c                    20.949167
_cell_angle_alpha                 90.089428
_cell_angle_beta                  51.832723
_cell_angle_gamma                 90.126374
_cell_volume                      10122.3426084

loop_
_atom_site_label
_atom_site_type_symbol
_atom_type_description
_atom_site_fract_x
_atom_site_fract_y
_atom_site_fract_z
_atom_type_partial_charge
C1    C     C_R   0.922305 0.580825 0.729987 -0.121827
C2    C     C_1   0.885386 0.279285 0.834743 0.185169
C3    C     C_R   0.139282 0.238320 0.098705 -0.308387
C4    C     C_R   0.781911 0.180597 0.047244 -0.310286
C5    C     C_R   0.360400 0.740576 0.903105 -0.308736
C6    C     C_R   0.214147 0.175207 0.953899 -0.300491
C7    C     C_R   0.782943 0.821668 0.045809 -0.300322
C8    C     C_R   0.320592 0.725891 0.042407 0.375621
C9    C     C_R   0.824765 0.191184 0.906316 0.363353
C10   C     C_R   0.837734 0.816816 0.900812 0.353790
C11   C     C_R   0.173133 0.189356 0.093722 0.345100
C12   C     C_R   0.823945 0.223049 0.037580 0.381341
C13   C     C_1   0.881163 0.719266 0.838101 0.194386
C14   C     C_R   0.330157 0.688943 0.906164 0.344568
C15   C     C_R   0.175358 0.220555 0.961530 0.378148
C16   C     C_R   0.813863 0.770856 0.043063 0.345202
C17   C     C_3   0.848602 0.120178 0.811340 0.235955
C18   C     C_3   0.919585 0.120155 0.756676 -0.327578
C19   C     C_3   0.945359 0.058154 0.721151 -1.038585
C20   C     C_3   0.267154 0.775197 0.164651 0.216082
C21   C     C_3   0.280590 0.813787 0.212436 -0.244877
C22   C     C_3   0.224429 0.851290 0.276560 -1.033867
C23   C     C_3   0.136420 0.124022 0.198660 0.244547
C24   C     C_1   0.116010 0.279631 0.163312 0.175960
C25   C     C_3   0.068807 0.141213 0.265902 -0.320299
C26   C     C_3   0.030051 0.086797 0.315600 -1.015431
C27   C     C_3   0.902644 0.853280 0.771095 0.192407
C28   C     C_3   0.903373 0.884702 0.705851 -0.244070
C29   C     C_3   0.968897 0.903175 0.633866 -1.044416
C30   C     C_3   0.373069 0.623030 0.800268 0.246517
C31   C     C_3   0.439619 0.643805 0.733800 -0.322151
C32   C     C_3   0.482065 0.591137 0.684517 -1.011856
C33   C     C_3   0.780193 0.273698 0.157133 0.211125
C34   C     C_3   0.798990 0.304218 0.204327 -0.226403
C35   C     C_1   0.733317 0.157585 0.124884 0.157559
C36   C     C_3   0.748305 0.345994 0.269591 -1.057503
C37   C     C_3   0.768984 0.693816 0.136285 0.279015
C38   C     C_3   0.708986 0.697964 0.223451 -0.328062
C39   C     C_3   0.678141 0.636940 0.255440 -1.022765
C40   C     C_3   0.221119 0.270698 0.841334 0.218250
C41   C     C_3   0.201619 0.305538 0.797721 -0.218589
C42   C     C_3   0.251627 0.349709 0.736556 -1.090343
C43   C     C_3   0.687742 0.153961 0.010789 0.219350
C44   C     C_3   0.639857 0.108055 0.027576 -0.260607
C45   C     C_3   0.581404 0.138279 0.049966 -1.046633
C46   C     C_1   0.383612 0.780978 0.837734 0.176460
C47   C     C_3   0.363329 0.859767 0.979720 0.219370
C48   C     C_3   0.411424 0.909731 0.936106 -0.252187
C49   C     C_3   0.381027 0.970538 0.950732 -1.056938
C50   C     C_3   0.298940 0.137087 0.012634 0.261044
C51   C     C_3   0.360967 0.138149 0.927116 -0.330201
C52   C     C_3   0.414357 0.153341 0.928792 -1.031826
C53   C     C_3   0.811120 0.948854 0.953559 0.248415
C54   C     C_3   0.794303 0.983386 0.027931 -0.321151
C55   C     C_3   0.843143 0.030603 0.003904 -0.929657
C56   C     C_3   0.208274 0.629775 0.981459 0.267552
C57   C     C_1   0.261555 0.150423 0.876520 0.176110
C58   C     C_3   0.144373 0.624008 0.064111 -0.330281
C59   C     C_3   0.092636 0.635311 0.057936 -1.025041
C60   C     C_3   0.882495 0.351362 0.969628 0.227492
C61   C     C_3   0.935040 0.395875 0.915383 -0.262734
C62   C     C_3   0.911287 0.460084 0.933121 -1.044047
C63   C     C_3   0.935470 0.704690 0.966118 0.223915
C64   C     C_3   0.992981 0.726785 0.883412 -0.343721
C65   C     C_3   0.046369 0.739264 0.886005 -1.031095
C66   C     C_3   0.125240 0.353128 0.025994 0.219747
C67   C     C_3   0.074330 0.399637 0.076780 -0.247925
C68   C     C_1   0.727832 0.840600 0.121927 0.198473
C69   C     C_3   0.101138 0.462556 0.060813 -1.068931
C70   C     C_3   0.111657 0.887334 0.644157 0.204505
C71   C     C_3   0.059954 0.870709 0.733096 -0.339452
C72   C     C_3   0.025695 0.926055 0.784588 -1.016895
C73   C     C_3   0.670341 0.201006 0.715252 0.214412
C74   C     C_3   0.606542 0.217327 0.794199 -0.334919
C75   C     C_3   0.578601 0.165214 0.853976 -1.005368
C76   C     C_3   0.838961 0.895222 0.465381 0.209702
C77   C     C_3   0.881543 0.930917 0.386192 -0.338015
C78   C     C_3   0.882170 0.997104 0.403313 -0.988261
C79   C     C_1   0.897977 0.315953 0.785428 -0.089818
C80   C     C_3   0.333575 0.205682 0.278858 0.209774
C81   C     C_3   0.393600 0.231148 0.201798 -0.328016
C82   C     C_3   0.424556 0.186171 0.132161 -1.003060
C83   C     C_3   0.668079 0.393300 0.524126 0.209667
C84   C     C_3   0.629972 0.437176 0.595452 -0.331710
C85   C     C_3   0.638552 0.501324 0.565498 -0.988833
C86   C     C_3   0.229360 0.671536 0.635886 0.221956
C87   C     C_3   0.173873 0.651128 0.721127 -0.331352
C88   C     C_3   0.174144 0.583569 0.730448 -1.008295
C89   C     C_3   0.308975 0.373765 0.514799 0.202540
C90   C     C_1   0.193969 0.632281 0.187254 -0.105212
C91   C     C_3   0.322328 0.438830 0.485457 -0.285721
C92   C     C_3   0.283845 0.482023 0.556698 -1.039445
C93   C     C_3   0.828282 0.700339 0.287607 0.218341
C94   C     C_3   0.890590 0.719554 0.208362 -0.307837
C95   C     C_3   0.921769 0.667662 0.148490 -1.032453
C96   C     C_1   0.102839 0.315903 0.213488 -0.090776
C97   C     C_R   0.074903 0.418134 0.271553 -0.152510
C98   C     C_1   0.892462 0.682670 0.789087 -0.075534
C99   C     C_1   0.396819 0.816594 0.786992 -0.089478
C100  C     C_1   0.688484 0.139290 0.187831 -0.094443
C101  C     C_1   0.680104 0.855623 0.184537 -0.088192
C102  C     C_1   0.305954 0.131896 0.813064 -0.103047
C103  C     C_1   0.135950 0.681391 0.573416 -0.041882
C104  C     C_1   0.788208 0.368158 0.545407 -0.022293
C105  C     C_1   0.868178 0.683101 0.423999 -0.032686
C106  C     C_1   0.210765 0.367286 0.456618 -0.021907
C107  C     C_1   0.629714 0.183752 0.579655 -0.033216
C108  C     C_R   0.103732 0.563889 0.264738 -0.117594
C109  C     C_1   0.285362 0.870517 0.554508 -0.024910
C110  C     C_1   0.371643 0.183830 0.418787 -0.035498
C111  C     C_1   0.708318 0.865078 0.462854 -0.023822
C112  C     C_2   0.187096 0.754651 0.615112 0.385061
C113  C     C_2   0.685489 0.318205 0.587023 0.399808
C114  C     C_2   0.825718 0.764046 0.379008 0.391625
C115  C     C_2   0.312558 0.316773 0.416753 0.403464
C116  C     C_2   0.672214 0.265216 0.624683 0.398458
C117  C     C_2   0.183220 0.813612 0.606937 0.392595
C118  C     C_2   0.327858 0.265053 0.375837 0.400542
C119  C     C_R   0.924405 0.418632 0.728854 -0.143862
C120  C     C_2   0.812999 0.817207 0.416059 0.396561
C121  C     C_1   0.739742 0.348258 0.567087 -0.069966
C122  C     C_1   0.156646 0.715273 0.595278 -0.070178
C123  C     C_1   0.258797 0.347058 0.435775 -0.076384
C124  C     C_1   0.851591 0.719806 0.399893 -0.060234
C125  C     C_1   0.236516 0.848318 0.581378 -0.041580
C126  C     C_1   0.646281 0.220600 0.603907 -0.066650
C127  C     C_1   0.757420 0.845984 0.439363 -0.060183
C128  C     C_1   0.354762 0.220565 0.394977 -0.073135
C129  C     C_R   0.879861 0.434935 0.461904 -0.140000
C130  C     C_R   0.396414 0.063982 0.735340 -0.119845
C131  C     C_R   0.097133 0.581668 0.574879 -0.149506
C132  C     C_R   0.119820 0.434706 0.538810 -0.141717
C133  C     C_R   0.903224 0.582032 0.424882 -0.155033
C134  C     C_R   0.378480 0.936152 0.464936 -0.136046
C135  C     C_R   0.596027 0.082238 0.576240 -0.152065
C136  C     C_R   0.618387 0.933773 0.541983 -0.139955
C137  C     C_R   0.404702 0.082331 0.422893 -0.153002
C138  C     C_R   0.906962 0.650076 0.498667 -0.109478
C139  C     C_R   0.115762 0.365904 0.465287 -0.116252
C140  C     C_R   0.092355 0.650351 0.503101 -0.127751
C141  C     C_R   0.594045 0.927509 0.264038 -0.119174
C142  C     C_R   0.883900 0.366171 0.535261 -0.115206
C143  C     C_R   0.409258 0.150805 0.495149 -0.127396
C144  C     C_R   0.613265 0.862952 0.471969 -0.113002
C145  C     C_R   0.591452 0.150651 0.504080 -0.121240
C146  C     C_R   0.383182 0.867374 0.537566 -0.112382
C147  C     C_R   0.920808 0.348137 0.656616 -0.122566
C148  C     C_R   0.108025 0.635084 0.336584 -0.132300
C149  C     C_R   0.079192 0.348101 0.343265 -0.123232
C150  C     C_R   0.917822 0.651001 0.658098 -0.122824
C151  C     C_R   0.420872 0.848090 0.656763 -0.128571
C152  C     C_R   0.600025 0.069074 0.264089 -0.118298
C153  C     C_R   0.605310 0.137976 0.337214 -0.133471
C154  C     C_R   0.598737 0.857074 0.335126 -0.127831
C155  C     C_R   0.391854 0.134793 0.663622 -0.132604
C156  C     C_R   0.904442 0.638852 0.732061 0.087908
C157  C     C_R   0.091004 0.359709 0.270330 0.101591
C158  C     C_R   0.138210 0.611218 0.259748 0.088763
C159  C     C_R   0.908731 0.359971 0.729668 0.095483
C160  C     C_R   0.361858 0.111126 0.740470 0.088690
C161  C     C_R   0.624258 0.876296 0.257644 0.086351
C162  C     C_R   0.633400 0.117190 0.259793 0.091387
C163  C     C_R   0.424802 0.918452 0.728623 -0.149063
C164  C     C_R   0.408703 0.859998 0.729892 0.100940
C165  C     C_R   0.847709 0.388682 0.515756 0.096043
C166  C     C_R   0.114235 0.638886 0.546024 0.105886
C167  C     C_R   0.151764 0.388276 0.485268 0.097289
C168  C     C_R   0.885892 0.639143 0.454611 0.100564
C169  C     C_R   0.346000 0.890624 0.520352 0.094392
C170  C     C_R   0.612387 0.139764 0.548226 0.103779
C171  C     C_R   0.648971 0.885467 0.492239 0.095463
C172  C     C_R   0.388815 0.139971 0.450371 0.104716
C173  C     C_R   0.781704 0.164972 0.982528 0.333440
C174  C     C_1   0.238307 0.651367 0.124182 0.175779
C175  C     C_R   0.357851 0.758152 0.969602 0.380872
C176  C     C_R   0.213814 0.159852 0.019123 0.360109
C177  C     C_R   0.798818 0.847813 0.974356 0.408589
C178  C     C_R   0.289628 0.658980 0.980393 0.360612
C179  C     C_R   0.864031 0.252274 0.962713 0.383141
C180  C     C_R   0.857242 0.742467 0.967995 0.360501
C181  C     C_R   0.138008 0.252738 0.034433 0.381719
C182  C     C_R   0.285753 0.677107 0.047581 -0.300797
C183  C     C_R   0.861777 0.237993 0.899189 -0.311090
C184  C     C_R   0.862615 0.761648 0.900173 -0.336402
H1    H     H_    0.927209 0.560261 0.772462 0.108310
H2    H     H_    0.097934 0.561434 0.621105 0.098127
H3    H     H_    0.354064 0.970812 0.927415 0.273634
H4    H     H_    0.417414 0.005532 0.918358 0.276561
H5    H     H_    0.349759 0.981259 0.016587 0.275071
H6    H     H_    0.302672 0.106449 0.051124 0.126067
H7    H     H_    0.289579 0.182578 0.039875 0.101915
H8    H     H_    0.369611 0.093777 0.898104 0.220547
H9    H     H_    0.359253 0.172178 0.890012 0.194552
H10   H     H_    0.407115 0.197962 0.956729 0.272693
H11   H     H_    0.458403 0.154211 0.865768 0.282830
H12   H     H_    0.418203 0.119180 0.963890 0.273877
H13   H     H_    0.134528 0.462591 0.566250 0.103549
H14   H     H_    0.805994 0.979235 0.916171 0.122993
H15   H     H_    0.861041 0.936034 0.914709 0.050977
H16   H     H_    0.748536 0.005283 0.058649 0.224976
H17   H     H_    0.791047 0.952140 0.071552 0.200675
H18   H     H_    0.888011 0.008861 0.978926 0.257841
H19   H     H_    0.828148 0.057098 0.058132 0.279403
H20   H     H_    0.849909 0.061149 0.957362 0.261783
H21   H     H_    0.210437 0.599833 0.937394 0.127619
H22   H     H_    0.213990 0.676458 0.958943 0.097163
H23   H     H_    0.138893 0.578459 0.088704 0.220459
H24   H     H_    0.903390 0.562441 0.377489 0.096495
H25   H     H_    0.140262 0.656942 0.106921 0.195917
H26   H     H_    0.096483 0.681147 0.034889 0.271290
H27   H     H_    0.047115 0.630840 0.118986 0.278836
H28   H     H_    0.094872 0.602259 0.016571 0.274169
H29   H     H_    0.861688 0.361222 0.033743 0.108991
H30   H     H_    0.846370 0.358100 0.961425 0.057014
H31   H     H_    0.970137 0.391610 0.925488 0.210799
H32   H     H_    0.957823 0.385446 0.850677 0.196519
H33   H     H_    0.876641 0.465625 0.922465 0.267865
H34   H     H_    0.950509 0.491100 0.892330 0.274500
H35   H     H_    0.362782 0.964835 0.439520 0.106184
H36   H     H_    0.889697 0.471934 0.997060 0.274027
H37   H     H_    0.947955 0.663055 0.981722 0.130416
H38   H     H_    0.921491 0.737723 0.014636 0.126476
H39   H     H_    0.007511 0.692473 0.836276 0.211921
H40   H     H_    0.982018 0.768668 0.866260 0.192584
H41   H     H_    0.032809 0.773863 0.932391 0.275305
H42   H     H_    0.087016 0.755901 0.825919 0.269287
H43   H     H_    0.059695 0.697748 0.900744 0.272455
H44   H     H_    0.149363 0.363048 0.960959 0.106956
H45   H     H_    0.159370 0.357555 0.038122 0.065523
H46   H     H_    0.595716 0.062369 0.623548 0.096460
H47   H     H_    0.041842 0.398081 0.061966 0.208209
H48   H     H_    0.047879 0.388959 0.142246 0.196221
H49   H     H_    0.133425 0.465249 0.075841 0.270416
H50   H     H_    0.063000 0.495011 0.099375 0.279622
H51   H     H_    0.126292 0.474870 0.996094 0.277205
H52   H     H_    0.090589 0.910797 0.619955 0.138761
H53   H     H_    0.144538 0.919773 0.639545 0.092881
H54   H     H_    0.026680 0.840067 0.736215 0.197726
H55   H     H_    0.079937 0.847106 0.758692 0.199867
H56   H     H_    0.057729 0.955537 0.785739 0.280430
H57   H     H_    0.632938 0.962281 0.569102 0.102171
H58   H     H_    0.987223 0.912315 0.847748 0.263230
H59   H     H_    0.006079 0.951423 0.759746 0.263802
H60   H     H_    0.700670 0.187794 0.731087 0.136374
H61   H     H_    0.667840 0.161080 0.685668 0.090389
H62   H     H_    0.611358 0.256451 0.822688 0.214763
H63   H     H_    0.574454 0.229568 0.780896 0.193749
H64   H     H_    0.571029 0.126372 0.827936 0.268747
H65   H     H_    0.533384 0.178816 0.911220 0.282317
H66   H     H_    0.609826 0.151786 0.868241 0.269313
H67   H     H_    0.855468 0.901913 0.501740 0.134110
H68   H     H_    0.405178 0.062308 0.375459 0.098703
H69   H     H_    0.790728 0.912604 0.503576 0.093643
H70   H     H_    0.929436 0.913042 0.350597 0.212364
H71   H     H_    0.865490 0.926334 0.349043 0.195316
H72   H     H_    0.834705 0.015943 0.438624 0.266901
H73   H     H_    0.912606 0.021782 0.345043 0.277703
H74   H     H_    0.900178 0.003341 0.437961 0.267091
H75   H     H_    0.303523 0.190670 0.263211 0.138491
H76   H     H_    0.342709 0.165038 0.300466 0.089651
H77   H     H_    0.382951 0.272474 0.183201 0.216885
H78   H     H_    0.426407 0.242749 0.214193 0.191228
H79   H     H_    0.910315 0.693237 0.519061 0.106116
H80   H     H_    0.435390 0.144355 0.149576 0.270155
H81   H     H_    0.468342 0.205367 0.077877 0.279954
H82   H     H_    0.393709 0.175589 0.116209 0.266524
H83   H     H_    0.652627 0.397363 0.486252 0.135952
H84   H     H_    0.718131 0.405172 0.483288 0.092202
H85   H     H_    0.580127 0.425041 0.632782 0.211969
H86   H     H_    0.644375 0.434614 0.634597 0.196310
H87   H     H_    0.688135 0.514399 0.528052 0.265252
H88   H     H_    0.611327 0.531997 0.618341 0.276948
H89   H     H_    0.622135 0.505919 0.528797 0.267464
H90   H     H_    0.126948 0.329212 0.424745 0.114243
H91   H     H_    0.272270 0.660144 0.627668 0.129876
H92   H     H_    0.232597 0.646594 0.587386 0.096624
H93   H     H_    0.175734 0.673499 0.766987 0.217215
H94   H     H_    0.129838 0.663753 0.733108 0.205100
H95   H     H_    0.169692 0.560490 0.687298 0.268429
H96   H     H_    0.134363 0.570447 0.793211 0.272485
H97   H     H_    0.217671 0.569250 0.718875 0.272302
H98   H     H_    0.324819 0.367326 0.551896 0.135066
H99   H     H_    0.258404 0.363810 0.556268 0.093496
H100  H     H_    0.372303 0.448519 0.452427 0.206722
H101  H     H_    0.088457 0.693903 0.484306 0.101141
H102  H     H_    0.311584 0.446313 0.442988 0.200975
H103  H     H_    0.233694 0.473840 0.589285 0.267236
H104  H     H_    0.294675 0.528752 0.533993 0.272691
H105  H     H_    0.294472 0.476389 0.599612 0.274021
H106  H     H_    0.797852 0.685446 0.272624 0.133627
H107  H     H_    0.833359 0.660597 0.314885 0.088890
H108  H     H_    0.882872 0.756656 0.180303 0.224351
H109  H     H_    0.922077 0.735737 0.221111 0.188221
H110  H     H_    0.931334 0.630679 0.174629 0.269253
H111  H     H_    0.966306 0.682976 0.091519 0.275818
H112  H     H_    0.068968 0.438564 0.230047 0.109137
H113  H     H_    0.872540 0.329653 0.576035 0.114740
H114  H     H_    0.891602 0.650830 0.133918 0.263808
H115  H     H_    0.414130 0.194297 0.513282 0.102530
H116  H     H_    0.622554 0.822679 0.438184 0.105202
H117  H     H_    0.586675 0.194169 0.486102 0.103826
H118  H     H_    0.371735 0.831370 0.579018 0.116531
H119  H     H_    0.923602 0.304337 0.632583 0.101869
H120  H     H_    0.122706 0.672674 0.353334 0.100242
H121  H     H_    0.077101 0.304420 0.366945 0.097935
H122  H     H_    0.918614 0.694587 0.635166 0.100808
H123  H     H_    0.423518 0.804248 0.632928 0.099798
H124  H     H_    0.114577 0.535173 0.216001 0.103511
H125  H     H_    0.619267 0.175624 0.354860 0.100406
H126  H     H_    0.608849 0.815462 0.350409 0.095719
H127  H     H_    0.376743 0.171830 0.646810 0.099951
H128  H     H_    0.834138 0.106171 0.774389 0.119859
H129  H     H_    0.829509 0.086057 0.859985 0.117852
H130  H     H_    0.938175 0.152720 0.706450 0.214690
H131  H     H_    0.935272 0.133720 0.792389 0.204603
H132  H     H_    0.927485 0.025055 0.770609 0.262590
H133  H     H_    0.996678 0.059096 0.682681 0.279559
H134  H     H_    0.931903 0.044006 0.683126 0.276790
H135  H     H_    0.929744 0.439566 0.770757 0.109649
H136  H     H_    0.228183 0.744839 0.208206 0.102491
H137  H     H_    0.252321 0.804779 0.136652 0.044902
H138  H     H_    0.293340 0.784501 0.242849 0.210128
H139  H     H_    0.320315 0.843965 0.170209 0.201193
H140  H     H_    0.211625 0.881872 0.247366 0.265262
H141  H     H_    0.235633 0.878510 0.310328 0.279195
H142  H     H_    0.184407 0.821908 0.320343 0.270796
H143  H     H_    0.154960 0.101575 0.226855 0.118301
H144  H     H_    0.139297 0.090596 0.156810 0.106801
H145  H     H_    0.066758 0.174630 0.306836 0.212053
H146  H     H_    0.385615 0.035355 0.784059 0.104723
H147  H     H_    0.048727 0.161640 0.238540 0.205936
H148  H     H_    0.030754 0.053144 0.275994 0.271773
H149  H     H_    0.981399 0.100728 0.363421 0.279121
H150  H     H_    0.048240 0.066236 0.345285 0.268624
H151  H     H_    0.933558 0.813698 0.743253 0.100725
H152  H     H_    0.920935 0.884817 0.792791 0.086219
H153  H     H_    0.884408 0.854125 0.684158 0.205946
H154  H     H_    0.873594 0.925143 0.732282 0.199395
H155  H     H_    0.988202 0.934910 0.653813 0.274354
H156  H     H_    0.967880 0.925502 0.587410 0.274610
H157  H     H_    0.600021 0.951041 0.214823 0.101364
H158  H     H_    0.999409 0.863347 0.605990 0.278357
H159  H     H_    0.356637 0.597314 0.771435 0.117806
H160  H     H_    0.371750 0.591523 0.842609 0.104439
H161  H     H_    0.440092 0.675299 0.692421 0.212189
H162  H     H_    0.457700 0.667601 0.761860 0.205485
H163  H     H_    0.483304 0.559660 0.724450 0.270557
H164  H     H_    0.529743 0.607763 0.636914 0.277912
H165  H     H_    0.465673 0.567078 0.654549 0.268152
H166  H     H_    0.737145 0.247905 0.201037 0.102951
H167  H     H_    0.770086 0.308734 0.128955 0.044366
H168  H     H_    0.608524 0.045294 0.213425 0.092867
H169  H     H_    0.808222 0.269655 0.233696 0.211200
H170  H     H_    0.842204 0.330307 0.161799 0.199391
H171  H     H_    0.739107 0.381688 0.241502 0.268295
H172  H     H_    0.763363 0.367198 0.302787 0.273116
H173  H     H_    0.704944 0.320586 0.313739 0.273446
H174  H     H_    0.799271 0.659009 0.132962 0.120184
H175  H     H_    0.757044 0.679149 0.096406 0.088212
H176  H     H_    0.718852 0.716412 0.263654 0.221274
H177  H     H_    0.676459 0.728791 0.225372 0.199765
H178  H     H_    0.667042 0.618003 0.216730 0.272502
H179  H     H_    0.430629 0.939101 0.770201 0.106699
H180  H     H_    0.634476 0.641714 0.318335 0.276356
H181  H     H_    0.709180 0.605758 0.256240 0.264862
H182  H     H_    0.262469 0.243580 0.795512 0.099081
H183  H     H_    0.234457 0.303096 0.868722 0.044698
H184  H     H_    0.192432 0.273735 0.765441 0.204042
H185  H     H_    0.158203 0.330443 0.842909 0.205069
H186  H     H_    0.260828 0.382609 0.767734 0.274538
H187  H     H_    0.235779 0.374282 0.706401 0.274840
H188  H     H_    0.295124 0.325637 0.689580 0.269958
H189  H     H_    0.701445 0.181851 0.957986 0.127937
H190  H     H_    0.865018 0.463014 0.434913 0.101806
H191  H     H_    0.666156 0.183092 0.065312 0.086245
H192  H     H_    0.660154 0.079992 0.972636 0.203920
H193  H     H_    0.627332 0.078516 0.078363 0.200486
H194  H     H_    0.558692 0.164226 0.107068 0.275716
H195  H     H_    0.548498 0.103758 0.059184 0.279626
H196  H     H_    0.592815 0.168765 0.000615 0.273488
H197  H     H_    0.333948 0.868311 0.045949 0.103677
H198  H     H_    0.333411 0.861283 0.960552 0.069311
H199  H     H_    0.439284 0.911017 0.958138 0.208716
H200  H     H_    0.443189 0.900407 0.869847 0.196965
N1    N     N_R   0.945330 0.558420 0.657110 -0.043338
N2    N     N_R   0.067050 0.559540 0.548760 -0.039285
N3    N     N_R   0.067050 0.440460 0.548760 -0.041863
N4    N     N_R   0.932950 0.559540 0.451240 -0.040322
N5    N     N_R   0.432950 0.940460 0.451240 -0.043273
N6    N     N_R   0.567050 0.059540 0.548760 -0.039819
N7    N     N_R   0.567050 0.940460 0.548760 -0.041401
N8    N     N_R   0.432950 0.059540 0.451240 -0.040487
N9    N     N_R   0.935620 0.600470 0.495720 -0.045122
N10   N     N_R   0.064380 0.399530 0.504280 -0.046368
N11   N     N_R   0.064380 0.600470 0.504280 -0.041860
N12   N     N_R   0.054670 0.441580 0.342890 -0.039516
N13   N     N_R   0.935620 0.399530 0.495720 -0.046559
N14   N     N_R   0.435620 0.100470 0.495720 -0.042644
N15   N     N_R   0.564380 0.899530 0.504280 -0.045146
N16   N     N_R   0.564380 0.100470 0.504280 -0.043564
N17   N     N_R   0.435620 0.899530 0.495720 -0.047423
N18   N     N_R   0.942650 0.398400 0.612630 -0.044972
N19   N     N_R   0.057350 0.601600 0.387370 -0.042769
N20   N     N_R   0.057350 0.398400 0.387370 -0.043453
N21   N     N_R   0.942650 0.601600 0.612630 -0.043493
N22   N     N_R   0.442650 0.898400 0.612630 -0.044019
N23   N     N_R   0.054670 0.558420 0.342890 -0.043657
N24   N     N_R   0.557350 0.101600 0.387370 -0.041927
N25   N     N_R   0.557350 0.898400 0.387370 -0.042134
N26   N     N_R   0.442650 0.101600 0.612630 -0.042420
N27   N     N_R   0.945330 0.441580 0.657110 -0.040072
N28   N     N_R   0.445330 0.058420 0.657110 -0.043514
N29   N     N_R   0.554670 0.941580 0.342890 -0.043632
N30   N     N_R   0.554670 0.058420 0.342890 -0.043493
N31   N     N_R   0.445330 0.941580 0.657110 -0.040088
N32   N     N_R   0.932950 0.440460 0.451240 -0.041175
Ni1   Ni    Ni4+2 0.004930 0.500000 0.602010 0.211394
Ni2   Ni    Ni4+2 0.995070 0.500000 0.397990 0.212286
Ni3   Ni    Ni4+2 0.504930 0.000000 0.602010 0.212726
Ni4   Ni    Ni4+2 0.495070 0.000000 0.397990 0.215532
Ni5   Ni    Ni4+2 0.998800 0.599610 0.500000 0.211657
Ni6   Ni    Ni4+2 0.001200 0.400390 0.500000 0.211327
Ni7   Ni    Ni4+2 0.498800 0.099610 0.500000 0.213001
Ni8   Ni    Ni4+2 0.501200 0.900390 0.500000 0.214685
O1    O     O_3   0.824358 0.178109 0.841857 -0.645829
O2    O     O_3   0.394533 0.804649 0.961943 -0.612629
O3    O     O_3   0.251938 0.114308 0.010024 -0.646514
O4    O     O_3   0.770115 0.899957 0.977980 -0.618961
O5    O     O_3   0.254536 0.610858 0.987581 -0.648333
O6    O     O_3   0.907328 0.292861 0.950245 -0.609819
O7    O     O_3   0.886624 0.690465 0.963220 -0.651067
O8    O     O_3   0.097629 0.295820 0.044471 -0.610790
O9    O     O_3   0.141231 0.835444 0.596410 -0.673914
O10   O     O_3   0.698724 0.250707 0.662200 -0.679215
O11   O     O_3   0.841848 0.833102 0.450103 -0.679263
O12   O     O_3   0.320559 0.741248 0.106580 -0.610433
O13   O     O_3   0.300243 0.249905 0.339967 -0.677914
O14   O     O_3   0.657545 0.333333 0.551494 -0.680690
O15   O     O_3   0.229170 0.734354 0.627262 -0.682887
O16   O     O_3   0.342987 0.333546 0.448537 -0.683222
O17   O     O_3   0.798346 0.748750 0.342779 -0.679388
O18   O     O_3   0.172762 0.175736 0.158535 -0.655644
O19   O     O_3   0.841296 0.835772 0.835053 -0.613548
O20   O     O_3   0.333411 0.672867 0.839706 -0.654930
O21   O     O_3   0.828260 0.234660 0.098960 -0.609555
O22   O     O_3   0.800587 0.749250 0.114291 -0.655000
O23   O     O_3   0.171908 0.232537 0.899548 -0.608808
O24   O     O_3   0.739498 0.123440 0.993888 -0.650480

loop_
_geom_bond_atom_site_label_1
_geom_bond_atom_site_label_2
_ccdc_geom_bond_type
N20   Ni6   S    
C154  C161  A    
C52   H12   S    
C46   C99   T    
C8    C175  A    
C36   H172  S    
N27   Ni1   S    
C57   C102  T    
C16   O22   S    
C43   H189  S    
C73   O10   S    
C132  N3    A    
C129  H190  S    
C24   C96   T    
C73   H61   S    
C134  H35   S    
C144  N15   A    
C10   C184  A    
C7    C177  A    
C73   C74   S    
C118  O13   S    
C141  H157  S    
C52   H10   S    
C63   H37   S    
N14   Ni7   S    
C56   H21   S    
N28   Ni3   S    
C145  H117  S    
C59   H27   S    
C134  C169  A    
C139  H90   S    
C61   H32   S    
C140  H101  S    
C4    C12   A    
C176  O3    S    
C173  O24   S    
C25   H145  S    
C59   H26   S    
C38   H177  S    
C149  H121  S    
N18   Ni6   S    
C148  N19   A    
C67   H47   S    
C21   C22   S    
C72   H59   S    
N2    N11   A    
C34   H170  S    
C153  H125  S    
N24   N30   A    
C152  H168  S    
C98   C156  S    
C115  C123  S    
C51   C52   S    
C42   H187  S    
C68   C101  T    
C102  C160  S    
C80   O13   S    
C22   H142  S    
C129  N32   A    
C64   H39   S    
C17   H129  S    
C136  N7    A    
C93   O17   S    
C39   H178  S    
C43   C44   S    
C95   H110  S    
C37   C38   S    
C144  H116  S    
C136  C171  A    
C13   C184  S    
C55   H19   S    
N13   Ni6   S    
C65   H41   S    
C139  C167  A    
C50   H7    S    
C178  C182  A    
C27   H151  S    
C4    C173  A    
C17   O1    S    
C19   H134  S    
N5    Ni4   S    
C141  N29   A    
C145  C170  A    
C83   H84   S    
C97   N12   A    
C31   H161  S    
C26   H148  S    
C1    H1    S    
C131  N2    A    
C5    C46   S    
C90   C174  T    
C86   H91   S    
C30   C31   S    
C49   H4    S    
C33   H167  S    
C78   H73   S    
C47   H197  S    
C134  N5    A    
C2    C183  S    
C45   H196  S    
C88   H95   S    
C152  N30   A    
N15   Ni8   S    
C26   H149  S    
C3    C11   A    
C23   H143  S    
C20   H137  S    
C163  H179  S    
C20   C21   S    
C108  H124  S    
C119  C159  A    
C37   H175  S    
C63   H38   S    
C75   H64   S    
C180  C184  A    
C110  C128  T    
C30   O20   S    
C81   H77   S    
C138  N9    A    
C48   H200  S    
C97   H112  S    
C14   O20   S    
C69   H50   S    
N12   N20   A    
C10   O19   S    
C150  N21   A    
C53   C54   S    
C144  C171  A    
C22   H140  S    
C11   C176  A    
C84   H85   S    
C94   H109  S    
C143  C172  A    
C38   C39   S    
N3    Ni1   S    
C30   H160  S    
C65   H43   S    
C135  N6    A    
C138  C168  A    
C135  C170  A    
C60   H30   S    
C119  N27   A    
C28   H153  S    
C31   C32   S    
C135  H46   S    
C9    C173  A    
C19   H132  S    
C89   C91   S    
C75   H66   S    
N30   Ni4   S    
C56   O5    S    
C96   C157  S    
C7    C68   S    
C140  N11   A    
C3    C24   S    
C40   O23   S    
C92   H103  S    
C151  N22   A    
C109  C169  S    
C115  O16   S    
C86   H92   S    
N22   N31   A    
C53   H15   S    
C62   H33   S    
C72   H58   S    
C131  C166  A    
C51   H9    S    
C133  C168  A    
C91   C92   S    
C136  H57   S    
C25   C26   S    
N6    N16   A    
C87   H94   S    
C1    C156  A    
C60   O6    S    
N13   N32   A    
C9    O1    S    
C83   C84   S    
N22   Ni8   S    
C17   C18   S    
C20   O12   S    
C80   H75   S    
C14   C178  A    
C154  H126  S    
N2    Ni1   S    
C70   H53   S    
C29   H155  S    
C1    N1    A    
N25   Ni8   S    
C82   H80   S    
C45   H194  S    
C163  N31   A    
N26   Ni7   S    
C32   H163  S    
C35   C100  T    
C137  N8    A    
C44   H193  S    
N24   Ni7   S    
C33   O21   S    
N8    Ni4   S    
C58   H25   S    
C54   C55   S    
C38   H176  S    
C93   H106  S    
C10   C177  A    
N7    Ni3   S    
C18   H130  S    
C181  O8    S    
C50   O3    S    
C54   H17   S    
C105  C168  S    
C112  C117  D    
C106  C167  S    
C69   H51   S    
C71   C72   S    
C21   H139  S    
C76   H67   S    
C148  H120  S    
C73   H60   S    
C142  H113  S    
C56   C58   S    
C40   H183  S    
C111  C171  S    
C61   C62   S    
C114  C120  D    
C180  O7    S    
C63   C64   S    
C89   O16   S    
C56   H22   S    
C151  C164  A    
C146  C169  A    
C66   H44   S    
C100  C162  S    
C61   H31   S    
C117  C125  S    
C133  N4    A    
C16   C180  A    
C83   O14   S    
N17   Ni8   S    
C110  C172  S    
C20   H136  S    
C87   C88   S    
C41   C42   S    
C8    O12   S    
C113  O14   S    
C77   H71   S    
C132  C167  A    
C137  H68   S    
C142  N13   A    
C143  H115  S    
C27   O19   S    
C77   C78   S    
C133  H24   S    
C66   H45   S    
C29   H158  S    
C42   H188  S    
C28   C29   S    
C79   C159  S    
C86   O15   S    
C74   H62   S    
C149  N20   A    
C47   O2    S    
N6    Ni3   S    
C64   H40   S    
C130  C160  A    
C18   C19   S    
C137  C172  A    
C2    C79   T    
C63   O7    S    
C70   C71   S    
N7    N15   A    
C4    C35   S    
C5    C175  A    
C6    C57   S    
C174  C182  S    
C71   H54   S    
C52   H11   S    
C19   H133  S    
C36   H171  S    
C147  H119  S    
C140  C166  A    
C120  C127  S    
N16   Ni7   S    
C175  O2    S    
C84   C85   S    
C86   C87   S    
C130  N28   A    
C58   C59   S    
C105  C124  T    
C60   C61   S    
C71   H55   S    
N1    N21   A    
C9    C183  A    
C116  O10   S    
C95   H111  S    
C49   H3    S    
C150  H122  S    
C76   O11   S    
C33   H166  S    
C50   C51   S    
C78   H74   S    
N1    Ni1   S    
C82   H82   S    
C70   H52   S    
C45   H195  S    
C88   H96   S    
C5    C14   A    
C26   H150  S    
C146  H118  S    
C48   C49   S    
C120  O11   S    
C67   H48   S    
C37   H174  S    
C95   H114  S    
N5    N17   A    
C34   H169  S    
C44   C45   S    
C85   H88   S    
C8    C182  A    
C53   O4    S    
C42   H186  S    
C41   H184  S    
C62   H36   S    
C22   H141  S    
C84   H86   S    
C153  C162  A    
C78   H72   S    
C64   C65   S    
C85   H87   S    
N4    N9    A    
N3    N10   A    
C66   O8    S    
C145  N16   A    
C55   H20   S    
C15   C181  A    
C101  C161  S    
C132  H13   S    
C139  N10   A    
C65   H42   S    
C32   H165  S    
C94   C95   S    
C50   H6    S    
C28   H154  S    
C49   H5    S    
C27   H152  S    
C91   H102  S    
C40   H182  S    
C75   H65   S    
C103  C122  T    
C149  C157  A    
C152  C162  A    
N32   Ni2   S    
C36   H173  S    
C107  C170  S    
C141  C161  A    
C93   C94   S    
C177  O4    S    
C108  N23   A    
C163  C164  A    
C92   H104  S    
C31   H162  S    
C147  C159  A    
C88   H97   S    
C155  N26   A    
N9    Ni5   S    
C81   C82   S    
C17   H128  S    
C53   H14   S    
C62   H34   S    
C43   O24   S    
C153  N24   A    
C147  N18   A    
C108  C158  A    
C112  O15   S    
N12   Ni2   S    
C54   H16   S    
C47   H198  S    
C87   H93   S    
C13   C98   T    
N11   Ni5   S    
C15   O23   S    
C69   H49   S    
N19   Ni5   S    
C6    C15   A    
C23   H144  S    
N18   N27   A    
C85   H89   S    
C130  H146  S    
C106  C123  T    
C179  O6    S    
N8    N14   A    
C72   H56   S    
C70   O9    S    
C80   H76   S    
C143  N14   A    
C82   H81   S    
C34   C36   S    
C113  C116  D    
C114  C124  S    
C115  C118  D    
C104  C165  S    
C81   H78   S    
C150  C156  A    
C48   H199  S    
C32   H164  S    
C118  C128  S    
C92   H105  S    
C179  C183  A    
C155  H127  S    
C89   H99   S    
C74   C75   S    
C93   H107  S    
C94   H108  S    
C18   H131  S    
C39   H181  S    
N21   Ni5   S    
C76   C77   S    
C41   H185  S    
C104  C121  T    
C30   H159  S    
C55   H18   S    
C89   H98   S    
C43   H191  S    
C67   C69   S    
C97   C157  A    
C90   C158  S    
N19   N23   A    
C60   H29   S    
C117  O9    S    
C112  C122  S    
C12   O21   S    
C21   H138  S    
C23   O18   S    
C11   O18   S    
C3    C181  A    
C47   C48   S    
N23   Ni2   S    
C33   C34   S    
C113  C121  S    
C91   H100  S    
C148  C158  A    
C76   H69   S    
N29   Ni4   S    
C114  O17   S    
C29   H156  S    
C109  C125  T    
C40   C41   S    
C111  C127  T    
C44   H192  S    
C27   C28   S    
C59   H28   S    
C7    C16   A    
C154  N25   A    
C155  C160  A    
N26   N28   A    
C77   H70   S    
C107  C126  T    
C80   C81   S    
C151  H123  S    
N10   Ni6   S    
C146  N17   A    
C83   H83   S    
C37   O22   S    
C142  C165  A    
C74   H63   S    
C6    C176  A    
C58   H23   S    
C178  O5    S    
C119  H135  S    
C66   C67   S    
N31   Ni3   S    
C23   C25   S    
N25   N29   A    
C39   H180  S    
N4    Ni2   S    
C99   C164  S    
C131  H2    S    
C12   C179  A    
C138  H79   S    
C103  C166  S    
C129  C165  A    
C116  C126  S    
C51   H8    S    
C25   H147  S    
