data_mof_unit_26832.cif
_audit_creation_date              2012-12-11T17:01:18-0500
_audit_creation_method            fapswitch 2.2
_symmetry_space_group_name_H-M    P1
_symmetry_Int_Tables_number       1
_space_group_crystal_system       triclinic
_cell_length_a                    19.418196
_cell_length_b                    7.08501
_cell_length_c                    17.646401
_cell_angle_alpha                 90.153905
_cell_angle_beta                  108.657191
_cell_angle_gamma                 89.803528
_cell_volume                      2300.16201364

loop_
_atom_site_label
_atom_site_type_symbol
_atom_type_description
_atom_site_fract_x
_atom_site_fract_y
_atom_site_fract_z
_atom_type_partial_charge
O1    O     O_R   0.413720 0.494330 0.415730 -0.544703
O2    O     O_R   0.586280 0.994330 0.584270 -0.539504
O3    O     O_R   0.560210 0.819300 0.430070 -0.505385
O4    O     O_R   0.439790 0.319300 0.569930 -0.542440
C1    C     C_R   0.580913 0.654649 0.413637 0.790250
C2    C     C_R   0.419674 0.155684 0.587127 0.792162
O5    O     O_R   0.412670 0.823730 0.406310 -0.534838
O6    O     O_R   0.587330 0.323730 0.593690 -0.542000
O7    O     O_R   0.437690 0.998790 0.560340 -0.503575
O8    O     O_R   0.562310 0.498790 0.439660 -0.544537
C3    C     C_R   0.385445 0.655195 0.383493 0.726289
C4    C     C_R   0.614581 0.155087 0.616453 0.718928
O9    O     O_3   0.508380 0.662350 0.550560 -0.373181
O10   O     O_3   0.491620 0.162350 0.449440 -0.373537
V1    V     V_3+5 0.498450 0.935370 0.490620 1.638279
V2    V     V_3+5 0.501550 0.435370 0.509380 1.580307
C5    C     C_R   0.736976 0.011115 0.687133 0.127171
C6    C     C_R   0.263322 0.511366 0.312643 0.116516
C7    C     C_R   0.683736 0.147575 0.683585 -0.162480
C8    C     C_R   0.316305 0.647727 0.316281 -0.156121
C9    C     C_R   0.700058 0.284976 0.744473 -0.188052
C10   C     C_R   0.299907 0.784215 0.255211 -0.184332
H1    H     H_    0.660819 0.395560 0.742724 0.134502
H2    H     H_    0.339050 0.894264 0.256874 0.130889
C11   C     C_R   0.764063 0.273083 0.811037 -0.043536
C12   C     C_R   0.236005 0.771758 0.188528 -0.048412
C13   C     C_R   0.815492 0.125455 0.816398 -0.128232
C14   C     C_R   0.184669 0.624912 0.183355 -0.130216
C15   C     C_R   0.801222 0.001413 0.751173 0.008068
C16   C     C_R   0.199100 0.501378 0.248551 0.014281
C17   C     C_3   0.802290 0.790848 0.748722 -0.448883
C18   C     C_3   0.198683 0.290776 0.250681 -0.441353
C19   C     C_3   0.731765 0.801632 0.679063 0.516751
C20   C     C_3   0.269123 0.301866 0.320378 0.508011
H3    H     H_    0.795521 0.727438 0.803249 0.149963
H4    H     H_    0.205702 0.227502 0.196077 0.145116
H5    H     H_    0.849009 0.735463 0.731833 0.218346
H6    H     H_    0.152112 0.234968 0.267436 0.220061
H7    H     H_    0.683849 0.740783 0.691643 0.032377
H8    H     H_    0.317233 0.241342 0.307742 0.036665
C21   C     C_R   0.325622 0.994221 0.633999 0.639574
C22   C     C_R   0.677866 0.795346 0.365868 0.646827
C23   C     C_R   0.372316 0.149545 0.639437 -0.227881
C24   C     C_R   0.629460 0.645105 0.362846 -0.233102
C25   C     C_R   0.372090 0.298859 0.693668 -0.132937
C26   C     C_R   0.628335 0.488834 0.311721 -0.134789
C27   C     C_R   0.323302 0.294700 0.738672 -0.001537
C28   C     C_R   0.676512 0.482888 0.265896 0.001293
C29   C     C_R   0.276522 0.138428 0.731548 -0.021601
C30   C     C_R   0.724647 0.635054 0.270037 -0.023574
C31   C     C_R   0.278342 0.987506 0.679825 -0.088198
C32   C     C_R   0.724910 0.791545 0.319738 -0.091493
C33   C     C_R   0.319987 0.443482 0.790883 -0.231962
C34   C     C_R   0.677666 0.328567 0.215492 -0.235702
C35   C     C_R   0.271554 0.438459 0.834586 0.643398
C36   C     C_R   0.725307 0.324136 0.170772 0.636524
C37   C     C_R   0.224991 0.284088 0.827685 0.040612
C38   C     C_R   0.773362 0.474034 0.175013 0.037041
C39   C     C_R   0.227703 0.132667 0.776452 -0.053997
C40   C     C_R   0.772736 0.631084 0.224186 -0.056148
C41   C     C_R   0.181600 0.975392 0.770134 0.039908
C42   C     C_R   0.820215 0.784181 0.227520 0.045170
C43   C     C_R   0.184131 0.826089 0.718565 0.624743
C44   C     C_R   0.819918 0.938689 0.277425 0.634589
C45   C     C_R   0.231970 0.832406 0.673997 -0.193118
C46   C     C_R   0.772822 0.941951 0.322970 -0.188469
C47   C     C_R   0.176018 0.278167 0.871391 -0.097256
C48   C     C_R   0.821958 0.469647 0.130856 -0.071252
C49   C     C_R   0.130589 0.121503 0.866101 -0.128981
C50   C     C_R   0.868749 0.621950 0.133115 -0.134793
C51   C     C_R   0.133937 0.970337 0.815553 -0.093558
C52   C     C_R   0.867145 0.779517 0.181068 -0.112161
H9    H     H_    0.354416 0.566438 0.798001 0.158512
H10   H     H_    0.642018 0.208807 0.210492 0.160750
H11   H     H_    0.174160 0.394131 0.910888 0.175505
H12   H     H_    0.822647 0.348513 0.093447 0.181920
H13   H     H_    0.098855 0.849341 0.811111 0.178816
H14   H     H_    0.903387 0.896830 0.183151 0.177661
H15   H     H_    0.232593 0.714734 0.634883 0.212932
H16   H     H_    0.773864 0.063587 0.360655 0.209337
O11   O     O_R   0.937800 0.775460 0.060470 -0.538791
O12   O     O_R   0.062200 0.275460 0.939530 -0.541205
O13   O     O_R   0.087350 0.441340 0.093710 -0.538188
O14   O     O_R   0.912650 0.941340 0.906290 -0.537352
C53   C     C_R   0.115715 0.610298 0.115200 0.709805
C54   C     C_R   0.884335 0.110504 0.884706 0.710524
O15   O     O_R   0.939820 0.446010 0.069950 -0.540903
O16   O     O_R   0.060180 0.946010 0.930050 -0.540445
O17   O     O_R   0.913690 0.271230 0.915700 -0.538802
O18   O     O_R   0.086310 0.771230 0.084300 -0.538034
C55   C     C_R   0.918758 0.614634 0.084922 0.740439
C56   C     C_R   0.081066 0.114097 0.914845 0.738643
O19   O     O_3   0.991670 0.603050 0.949510 -0.375543
O20   O     O_3   0.008330 0.103050 0.050490 -0.375869
V3    V     V_3+5 0.001550 0.329940 0.009370 1.482584
V4    V     V_3+5 0.998450 0.829940 0.990630 1.485734
F1    F     F_    0.270300 0.585613 0.883646 -0.688871
F2    F     F_    0.724230 0.172364 0.123205 -0.689392
F3    F     F_    0.140186 0.673673 0.710981 -0.676971
F4    F     F_    0.865257 0.087059 0.282342 -0.679141
C57   C     C_1   0.771444 0.403824 0.876034 0.308536
N1    N     N_1   0.776915 0.508852 0.927946 -0.368249
C58   C     C_1   0.228716 0.900285 0.123020 0.316470
N2    N     N_1   0.223258 0.003171 0.070580 -0.354141
F5    F     F_    0.740112 0.741312 0.607833 -0.629395
F6    F     F_    0.260903 0.241244 0.391483 -0.636236
F7    F     F_    0.324611 0.850657 0.582315 -0.666042
F8    F     F_    0.680529 0.944540 0.415418 -0.658454
C59   C     C_1   0.423374 0.453535 0.705559 0.372449
N3    N     N_1   0.464187 0.577032 0.715224 -0.344063
C60   C     C_1   0.575960 0.338252 0.303569 0.370635
N4    N     N_1   0.534236 0.217886 0.296710 -0.341952

loop_
_geom_bond_atom_site_label_1
_geom_bond_atom_site_label_2
_ccdc_geom_bond_type
C43   C45   A    
O4    V2    S    
C57   N1    T    
C45   H15   S    
O15   C55   A    
C13   C15   A    
C5    C15   A    
C60   N4    T    
O1    C3    A    
C36   F2    S    
O2    C4    A    
C2    O7    A    
O16   V4    S    
C32   C46   A    
C27   C29   A    
C28   C34   A    
C19   H7    S    
C5    C19   S    
C20   H8    S    
C18   H4    S    
C7    C9    A    
O14   C54   A    
O14   V4    S    
C25   C59   S    
C37   C39   A    
C38   C40   A    
O12   C56   A    
C40   C42   A    
C31   C45   A    
C25   C27   A    
C43   F3    S    
C49   C51   A    
C42   C44   A    
C58   N2    T    
C34   H10   S    
C50   C55   S    
C29   C31   A    
O15   V3    S    
C30   C32   A    
C17   C19   S    
C6    C16   A    
C18   H6    S    
C49   C56   S    
C6    C8    A    
C27   C33   A    
C41   C51   A    
C28   C30   A    
O6    V2    S    
C26   C60   S    
C21   C23   A    
C22   C24   A    
C37   C47   A    
C24   C26   A    
C26   C28   A    
C33   C35   A    
C34   C36   A    
C3    C8    S    
C39   C41   A    
C20   F6    S    
O16   C56   A    
C19   F5    S    
O4    C2    A    
O11   V4    S    
O5    V1    S    
C17   H5    S    
C47   C49   A    
C44   C46   A    
O17   V3    S    
C13   C54   S    
O5    C3    A    
C12   C58   S    
C23   C25   A    
O6    C4    A    
O13   V3    S    
C35   F1    S    
C41   C43   A    
C42   C52   A    
O1    V2    S    
O20   V4    S    
O2    V1    S    
C6    C20   S    
C38   C48   A    
O13   C53   A    
C1    C24   S    
C8    C10   A    
O19   V4    S    
C2    C23   S    
C9    H1    S    
C17   H3    S    
C11   C13   A    
C51   H13   S    
O3    V1    S    
C9    C11   A    
C22   C32   A    
O12   V3    S    
C21   F7    S    
C33   H9    S    
O3    C1    A    
C54   O17   A    
C53   O18   A    
O18   V4    S    
C48   H12   S    
C46   H16   S    
C12   C14   A    
C29   C39   A    
C30   C40   A    
C35   C37   A    
O7    V1    S    
C1    O8    A    
C15   C17   S    
O8    V2    S    
C59   N3    T    
C16   C18   S    
C11   C57   S    
C4    C7    S    
C14   C16   A    
C5    C7    A    
C36   C38   A    
C10   H2    S    
O20   V3    S    
O11   C55   A    
C44   F4    S    
C47   H11   S    
O19   V3    S    
C10   C12   A    
O9    V2    S    
C52   H14   S    
C14   C53   S    
C48   C50   A    
O10   V1    S    
C50   C52   A    
C22   F8    S    
C21   C31   A    
C18   C20   S    
