data_mof_unit_63739.cif
_audit_creation_date              2013-03-05T16:23:51-0500
_audit_creation_method            fapswitch 2.2
_symmetry_space_group_name_H-M    P1
_symmetry_Int_Tables_number       1
_space_group_crystal_system       triclinic
_cell_length_a                    30.818476
_cell_length_b                    31.883047
_cell_length_c                    21.667005
_cell_angle_alpha                 89.417077
_cell_angle_beta                  135.338635
_cell_angle_gamma                 90.266593
_cell_volume                      14963.9901521

loop_
_atom_site_label
_atom_site_type_symbol
_atom_site_description
_atom_site_fract_x
_atom_site_fract_y
_atom_site_fract_z
_atom_type_partial_charge
O1    O     O_R   0.448310 0.000000 0.356640 -0.620177
O2    O     O_R   0.948310 0.500000 0.356640 -0.637886
O3    O     O_R   0.551720 1.000000 0.460130 -0.601277
O4    O     O_R   0.051720 0.500000 0.460130 -0.573986
C1    C     C_R   0.499796 0.998701 0.379914 0.878870
C2    C     C_R   0.999965 0.498735 0.379828 0.945088
O5    O     O_R   0.448310 0.938390 0.448250 -0.593955
O6    O     O_R   0.448310 0.061610 0.448250 -0.611119
O7    O     O_R   0.948310 0.438390 0.448250 -0.602730
O8    O     O_R   0.948310 0.561610 0.448250 -0.616394
O9    O     O_R   0.551720 0.938410 0.551740 -0.615032
O10   O     O_R   0.551720 0.061590 0.551740 -0.612174
O11   O     O_R   0.051720 0.438410 0.551740 -0.606807
O12   O     O_R   0.051720 0.561590 0.551740 -0.610595
C3    C     C_R   0.500110 0.918827 0.500124 0.894741
C4    C     C_R   0.499927 0.081172 0.499866 0.868436
C5    C     C_R   0.000131 0.418832 0.500309 0.911636
C6    C     C_R   0.999905 0.581180 0.499591 0.867146
Zn1   Zn    Zn3+2 0.430960 0.000000 0.430900 1.039410
Zn2   Zn    Zn3+2 0.930960 0.500000 0.430900 1.012903
Zn3   Zn    Zn3+2 0.569060 0.000000 0.569100 1.017989
Zn4   Zn    Zn3+2 0.069060 0.500000 0.569100 1.025579
O13   O     O_R   0.448310 0.000000 0.539870 -0.578079
O14   O     O_R   0.948310 0.500000 0.539870 -0.592064
O15   O     O_R   0.551720 0.000000 0.643360 -0.622510
O16   O     O_R   0.051720 0.500000 0.643360 -0.638154
C7    C     C_R   0.500434 0.001147 0.620322 0.938840
C8    C     C_R   0.000473 0.499727 0.620255 0.932152
C9    C     C_3   0.443936 0.736292 0.424165 0.022514
C10   C     C_3   0.493294 0.264505 0.436393 0.009370
C11   C     C_3   0.977865 0.236620 0.423055 0.009662
C12   C     C_3   0.949605 0.764589 0.418284 0.022791
C13   C     C_3   0.487811 0.764244 0.430243 0.374451
C14   C     C_3   0.546339 0.236385 0.513984 0.375908
C15   C     C_3   0.035588 0.264132 0.489782 0.379176
C16   C     C_3   0.001755 0.736902 0.444963 0.376870
C17   C     C_1   0.500247 0.874471 0.499991 -0.119842
C18   C     C_1   0.499775 0.125521 0.500251 -0.145055
C19   C     C_1   0.000402 0.374487 0.500674 -0.122161
C20   C     C_1   0.999570 0.625545 0.499555 -0.145682
C21   C     C_1   0.499898 0.625515 0.499038 -0.192736
C22   C     C_1   0.499994 0.374481 0.500953 -0.170124
C23   C     C_1   0.000184 0.125533 0.499380 -0.171687
C24   C     C_1   0.999567 0.874502 0.500512 -0.185278
C25   C     C_3   0.456905 0.763575 0.494155 0.381753
C26   C     C_3   0.446894 0.236591 0.424625 0.377642
C27   C     C_3   0.943311 0.264031 0.435146 0.377490
C28   C     C_3   0.947439 0.736180 0.474078 0.374955
C29   C     C_3   0.499919 0.791726 0.499089 -0.017462
C30   C     C_3   0.499832 0.208258 0.501193 -0.012262
C31   C     C_3   0.000673 0.291757 0.500665 -0.015234
C32   C     C_3   0.998833 0.708306 0.499493 -0.014104
C33   C     C_3   0.511983 0.735442 0.568539 0.009171
C34   C     C_3   0.452679 0.263900 0.488494 -0.003732
C35   C     C_3   0.965071 0.235630 0.510960 0.004067
C36   C     C_3   0.995972 0.763478 0.555668 0.012651
C37   C     C_3   0.499708 0.708268 0.498636 -0.026921
C38   C     C_3   0.499922 0.291718 0.501470 -0.027257
C39   C     C_3   0.000533 0.208301 0.499895 -0.026726
C40   C     C_3   0.998968 0.791760 0.500301 -0.026556
C41   C     C_3   0.554796 0.763388 0.572375 0.379114
C42   C     C_3   0.506366 0.235765 0.565287 0.377592
C43   C     C_3   0.022992 0.263161 0.576314 0.377001
C44   C     C_3   0.047393 0.735817 0.580200 0.376058
C45   C     C_3   0.543389 0.736118 0.503632 0.007317
C46   C     C_3   0.553712 0.263692 0.579279 0.013899
C47   C     C_3   0.058818 0.235722 0.566473 0.003781
C48   C     C_3   0.051145 0.764185 0.526093 0.011294
C49   C     C_1   0.500143 0.837048 0.499607 0.156690
C50   C     C_1   0.499767 0.162939 0.500724 0.145705
C51   C     C_1   0.000585 0.337069 0.500814 0.153068
C52   C     C_1   0.999168 0.662973 0.499460 0.144398
C53   C     C_1   0.499754 0.662921 0.498670 0.042328
C54   C     C_1   0.499968 0.337071 0.501333 0.045480
C55   C     C_1   0.000364 0.162946 0.499483 0.041180
C56   C     C_1   0.999241 0.837101 0.500545 0.039410
C57   C     C_R   0.460783 0.020356 0.240663 0.081386
C58   C     C_R   0.959388 0.522473 0.239810 0.040374
C59   C     C_R   0.499887 0.995163 0.314585 -0.253659
C60   C     C_R   0.001474 0.498099 0.315273 -0.202902
C61   C     C_R   0.542517 0.968810 0.326198 0.436984
C62   C     C_R   0.051438 0.478881 0.334907 0.425970
C63   C     C_R   0.545944 0.971162 0.264444 0.112976
C64   C     C_R   0.052338 0.478894 0.270728 0.059990
C65   C     C_R   0.504739 0.998358 0.190378 -0.181388
C66   C     C_R   0.004203 0.499918 0.190126 -0.147952
C67   C     C_R   0.463703 0.022296 0.182107 0.076371
C68   C     C_R   0.961234 0.523780 0.178575 0.095514
C69   C     C_3   0.414379 0.054762 0.126744 -0.446982
C70   C     C_3   0.892480 0.524398 0.103638 -0.484679
C71   C     C_3   0.411753 0.053097 0.195107 -0.420336
C72   C     C_3   0.890471 0.522749 0.171616 -0.401975
H1    H     H_    0.372164 0.042554 0.061340 0.199616
H2    H     H_    0.432103 0.084977 0.125909 0.219790
H3    H     H_    0.873857 0.495723 0.062874 0.200007
H4    H     H_    0.875049 0.554512 0.066303 0.214430
H5    H     H_    0.367692 0.040387 0.169027 0.213774
H6    H     H_    0.428578 0.082183 0.234340 0.208331
H7    H     H_    0.870892 0.493034 0.170530 0.215524
H8    H     H_    0.871725 0.551886 0.173394 0.208527
C73   C     C_R   0.484265 0.967539 0.702096 -0.112341
C74   C     C_R   0.031834 0.472234 0.750693 -0.114980
C75   C     C_R   0.502851 0.002918 0.688434 -0.137071
C76   C     C_R   0.002296 0.503563 0.687251 -0.065655
C77   C     C_R   0.535578 0.035087 0.752209 0.162719
C78   C     C_R   0.977242 0.538895 0.691731 0.152552
C79   C     C_R   0.541893 0.032625 0.823700 0.161684
C80   C     C_R   0.972577 0.537993 0.752158 0.164764
C81   C     C_R   0.510626 0.000077 0.824423 -0.126019
C82   C     C_R   0.996865 0.502586 0.809885 -0.095624
C83   C     C_R   0.487941 0.966167 0.768778 -0.129697
C84   C     C_R   0.028972 0.471652 0.810869 -0.166609
C85   C     C_3   0.430528 0.940150 0.717261 0.700976
C86   C     C_3   0.025013 0.424516 0.809422 0.803158
C87   C     C_3   0.425793 0.942313 0.641610 0.681008
C88   C     C_3   0.028791 0.425439 0.742574 0.630248
O17   O     O_R   0.408300 0.500000 0.356580 -0.627058
O18   O     O_R   0.908300 0.000000 0.356580 -0.642419
O19   O     O_R   0.408400 0.500000 0.460120 -0.609166
O20   O     O_R   0.908400 0.000000 0.460120 -0.572397
C89   C     C_R   0.380265 0.500869 0.379865 0.916472
C90   C     C_R   0.880040 0.000713 0.379779 0.980206
O21   O     O_R   0.499900 0.561630 0.448170 -0.622466
O22   O     O_R   0.499900 0.438370 0.448170 -0.611705
O23   O     O_R   0.999900 0.061630 0.448170 -0.620339
O24   O     O_R   0.999900 0.938370 0.448170 -0.624448
O25   O     O_R   0.500000 0.561620 0.551710 -0.609932
O26   O     O_R   0.500000 0.438380 0.551710 -0.617757
O27   O     O_R   0.000000 0.061620 0.551710 -0.599277
O28   O     O_R   0.000000 0.938380 0.551710 -0.619370
C91   C     C_R   0.500024 0.581180 0.499740 0.892912
C92   C     C_R   0.500001 0.418816 0.500286 0.870743
C93   C     C_R   0.999992 0.081187 0.499712 0.914264
C94   C     C_R   0.999922 0.918824 0.500206 0.875622
Zn5   Zn    Zn3+2 0.499870 0.500000 0.430790 0.965852
Zn6   Zn    Zn3+2 0.999870 0.000000 0.430790 0.960137
Zn7   Zn    Zn3+2 0.500010 0.500000 0.569060 0.988501
Zn8   Zn    Zn3+2 0.000010 0.000000 0.569060 1.008360
O29   O     O_R   0.591480 0.500000 0.539730 -0.623180
O30   O     O_R   0.091480 0.000000 0.539730 -0.623652
O31   O     O_R   0.591580 0.500000 0.643270 -0.616976
O32   O     O_R   0.091580 0.000000 0.643270 -0.624626
C95   C     C_R   0.619825 0.498248 0.620276 0.920795
C96   C     C_R   0.119874 0.998802 0.620337 0.926851
O33   O     O_R   0.591630 0.965220 0.091680 -0.636188
O34   O     O_R   0.591630 0.034780 0.091680 -0.613520
O35   O     O_R   0.091630 0.465220 0.091680 -0.599590
O36   O     O_R   0.091630 0.534780 0.091680 -0.626820
C97   C     C_R   0.620072 0.999896 0.121190 0.889505
C98   C     C_R   0.120500 0.499819 0.122261 0.921267
O37   O     O_R   0.500040 0.965230 0.091630 -0.630571
O38   O     O_R   0.500040 0.034770 0.091630 -0.621881
O39   O     O_R   0.000040 0.465230 0.091630 -0.631447
O40   O     O_R   0.000040 0.534770 0.091630 -0.620324
C99   C     C_R   0.501931 0.999690 0.121978 0.889376
C100  C     C_R   0.000435 0.499834 0.120588 0.897274
Zn9   Zn    Zn3+2 0.500030 0.953570 0.000010 1.009629
Zn10  Zn    Zn3+2 0.500030 0.046430 0.000010 0.989392
Zn11  Zn    Zn3+2 0.000030 0.453570 0.000010 1.060696
Zn12  Zn    Zn3+2 0.000030 0.546430 0.000010 0.940659
O41   O     O_R   0.408450 0.965250 0.908360 -0.580347
O42   O     O_R   0.408450 0.034750 0.908360 -0.626435
O43   O     O_R   0.908450 0.465250 0.908360 -0.594413
O44   O     O_R   0.908450 0.534750 0.908360 -0.634075
O45   O     O_R   0.500040 0.965230 0.908410 -0.592433
O46   O     O_R   0.500040 0.034770 0.908410 -0.617930
O47   O     O_R   0.000040 0.465230 0.908410 -0.549910
O48   O     O_R   0.000040 0.534770 0.908410 -0.657747
C101  C     C_R   0.379683 0.000100 0.881572 0.948114
C102  C     C_R   0.879680 0.500095 0.881499 0.909783
C103  C     C_R   0.502732 0.000162 0.882395 0.978782
C104  C     C_R   0.997099 0.500482 0.876593 0.935388
C105  C     C_R   0.281979 0.535405 0.270205 -0.039962
C106  C     C_R   0.780338 0.977675 0.241146 -0.064966
C107  C     C_R   0.315102 0.498767 0.314546 -0.295625
C108  C     C_R   0.814466 0.002765 0.314392 -0.226635
C109  C     C_R   0.284650 0.462516 0.306068 0.426464
C110  C     C_R   0.783464 0.028262 0.326285 0.416356
C111  C     C_R   0.718213 0.026452 0.264343 0.316897
C112  C     C_R   0.220480 0.463172 0.247016 0.417578
C113  C     C_R   0.685549 0.999860 0.190374 -0.250429
C114  C     C_R   0.186755 0.499482 0.193531 -0.334257
C115  C     C_R   0.718578 0.975381 0.182984 -0.022131
C116  C     C_R   0.219162 0.535778 0.210496 0.005723
C117  C     C_3   0.712408 0.943659 0.126365 0.353721
C118  C     C_3   0.212167 0.569701 0.154648 0.367793
C119  C     C_3   0.284494 0.569482 0.224200 0.342184
C120  C     C_3   0.785091 0.945725 0.195731 0.363649
C121  C     C_R   0.716643 0.531022 0.694610 -0.082605
C122  C     C_R   0.217006 0.032840 0.698669 -0.083887
C123  C     C_R   0.685624 0.497017 0.688483 -0.150494
C124  C     C_R   0.185711 0.997871 0.688823 -0.151217
C125  C     C_R   0.718108 0.466632 0.756978 0.116535
C126  C     C_R   0.217750 0.966137 0.754543 0.126223
C127  C     C_R   0.282557 0.968275 0.824165 0.445666
C128  C     C_R   0.782745 0.469366 0.826491 0.438720
C129  C     C_R   0.313848 0.000680 0.823242 -0.311054
C130  C     C_R   0.813813 0.500627 0.822829 -0.296302
C131  C     C_R   0.280155 0.034235 0.764782 -0.031890
C132  C     C_R   0.779838 0.532742 0.760522 -0.038784
C133  C     C_3   0.283281 0.056560 0.706569 0.844962
C134  C     C_3   0.782468 0.551094 0.698988 0.830684
C135  C     C_3   0.712306 0.549560 0.626737 -0.429755
C136  C     C_3   0.212972 0.055038 0.633593 -0.456743
H9    H     H_    0.693016 0.527353 0.573041 0.185854
H10   H     H_    0.689819 0.580967 0.604226 0.205143
H11   H     H_    0.193829 0.034901 0.577288 0.185616
H12   H     H_    0.190447 0.086280 0.614905 0.208524
O49   O     O_3   0.475281 0.780173 0.358509 -0.729294
H13   H     H_    0.469554 0.755239 0.326407 0.344629
O50   O     O_3   0.594927 0.221131 0.527200 -0.727059
H14   H     H_    0.616565 0.246364 0.533223 0.345533
O51   O     O_3   0.072179 0.279913 0.478814 -0.717443
H15   H     H_    0.088399 0.254915 0.473672 0.346994
O52   O     O_3   0.004748 0.722143 0.387519 -0.734344
H16   H     H_    0.006073 0.747595 0.362257 0.343460
C137  C     C_3   0.559940 0.072971 0.741791 -0.821902
H17   H     H_    0.541328 0.075638 0.675458 0.225874
H18   H     H_    0.546080 0.102227 0.751534 0.255960
H19   H     H_    0.611043 0.071283 0.790684 0.241613
C138  C     C_3   0.955914 0.577013 0.633308 -0.836475
H20   H     H_    0.904719 0.578611 0.581196 0.257318
H21   H     H_    0.974999 0.605993 0.673123 0.243625
H22   H     H_    0.972153 0.576832 0.601316 0.224611
C139  C     C_3   0.580380 0.064534 0.896723 -0.848378
H23   H     H_    0.601258 0.050563 0.960118 0.232946
H24   H     H_    0.619952 0.075454 0.908482 0.238131
H25   H     H_    0.551265 0.091882 0.879754 0.261592
C140  C     C_3   0.939976 0.573463 0.752332 -0.768094
H26   H     H_    0.910669 0.560816 0.760122 0.281689
H27   H     H_    0.974606 0.595234 0.806825 0.229918
H28   H     H_    0.908120 0.591709 0.690156 0.248593
O53   O     O_3   0.383178 0.961339 0.700385 -0.744059
H29   H     H_    0.346003 0.943438 0.659215 0.353101
O54   O     O_3   0.441379 0.899788 0.753295 -0.739445
H30   H     H_    0.480586 0.888756 0.775622 0.338665
O55   O     O_3   0.968060 0.410529 0.774864 -0.716100
H31   H     H_    0.968553 0.379530 0.771784 0.350079
O56   O     O_3   0.075446 0.405105 0.890579 -0.724009
H32   H     H_    0.113655 0.420531 0.918009 0.339228
O57   O     O_3   0.374014 0.964309 0.565943 -0.734157
H33   H     H_    0.374069 0.993043 0.583280 0.346999
O58   O     O_3   0.434542 0.903756 0.621122 -0.736435
H34   H     H_    0.396075 0.887584 0.589158 0.368714
O59   O     O_3   0.975162 0.411613 0.658346 -0.765071
H35   H     H_    0.976422 0.380518 0.661612 0.359810
O60   O     O_3   0.083203 0.407956 0.773565 -0.759359
H36   H     H_    0.083391 0.415018 0.729034 0.354616
O61   O     O_3   0.315163 0.425682 0.352583 -0.698653
H37   H     H_    0.358450 0.426738 0.381983 0.320675
O62   O     O_3   0.818028 0.054249 0.398515 -0.743139
H38   H     H_    0.790512 0.070888 0.397515 0.386891
O63   O     O_3   0.688719 0.049995 0.279031 -0.759852
H39   H     H_    0.648101 0.037423 0.247535 0.340954
O64   O     O_3   0.192885 0.427067 0.240964 -0.676211
H40   H     H_    0.157392 0.435197 0.230855 0.334755
C141  C     C_3   0.676027 0.961437 0.033922 -0.874985
H41   H     H_    0.689956 0.994034 0.036351 0.228297
H42   H     H_    0.683116 0.941249 0.000244 0.250379
H43   H     H_    0.625968 0.962165 0.993957 0.237704
C142  C     C_3   0.685260 0.901715 0.122123 -0.818863
H44   H     H_    0.634144 0.903418 0.072626 0.259055
H45   H     H_    0.697717 0.876266 0.102382 0.234088
H46   H     H_    0.702144 0.893387 0.186152 0.226362
C143  C     C_3   0.182503 0.609973 0.150439 -0.826316
H47   H     H_    0.198587 0.616548 0.214278 0.225976
H48   H     H_    0.193590 0.637103 0.131156 0.233400
H49   H     H_    0.131519 0.607104 0.100726 0.254987
C144  C     C_3   0.177989 0.554602 0.061703 -0.866804
H50   H     H_    0.127408 0.553791 0.018236 0.256354
H51   H     H_    0.186688 0.576563 0.031419 0.241674
H52   H     H_    0.192627 0.522512 0.063308 0.227257
C145  C     C_3   0.317802 0.608624 0.282369 -0.887118
H53   H     H_    0.303562 0.616260 0.315771 0.233414
H54   H     H_    0.368420 0.603140 0.334566 0.236957
H55   H     H_    0.308298 0.635967 0.242038 0.246887
C146  C     C_3   0.312485 0.555240 0.190533 -0.823430
H56   H     H_    0.363620 0.556466 0.243717 0.260022
H57   H     H_    0.298933 0.522660 0.165485 0.236045
H58   H     H_    0.297344 0.576736 0.137508 0.233160
C147  C     C_3   0.811645 0.964070 0.162070 -0.821093
H59   H     H_    0.795371 0.996674 0.137029 0.227612
H60   H     H_    0.862816 0.964778 0.215405 0.257130
H61   H     H_    0.798033 0.944128 0.108903 0.233620
C148  C     C_3   0.821010 0.906344 0.253637 -0.889270
H62   H     H_    0.871308 0.912852 0.305432 0.247510
H63   H     H_    0.807601 0.896354 0.287419 0.227641
H64   H     H_    0.812792 0.880154 0.212998 0.246074
C149  C     C_3   0.686213 0.430041 0.756090 -0.762121
H65   H     H_    0.636843 0.427276 0.693597 0.209568
H66   H     H_    0.708731 0.400230 0.765024 0.254909
H67   H     H_    0.689874 0.433239 0.810633 0.253012
C150  C     C_3   0.183299 0.929591 0.748382 -0.785172
H68   H     H_    0.153277 0.914851 0.682843 0.204417
H69   H     H_    0.214573 0.904804 0.798280 0.281079
H70   H     H_    0.154376 0.940680 0.757978 0.242172
C151  C     C_3   0.380908 0.720901 0.339995 -0.842387
H71   H     H_    0.350442 0.748151 0.298991 0.269534
H72   H     H_    0.385938 0.701661 0.302977 0.237688
H73   H     H_    0.360042 0.701539 0.356212 0.238985
C152  C     C_3   0.485851 0.280700 0.363063 -0.804881
H74   H     H_    0.482208 0.253827 0.327456 0.264734
H75   H     H_    0.443424 0.300187 0.316636 0.242077
H76   H     H_    0.526454 0.300010 0.391232 0.238398
C153  C     C_3   0.952200 0.221667 0.335891 -0.807584
H77   H     H_    0.939831 0.249139 0.293996 0.267590
H78   H     H_    0.987484 0.202465 0.347639 0.239189
H79   H     H_    0.910433 0.202385 0.302013 0.237649
C154  C     C_3   0.894000 0.781041 0.326332 -0.835294
H80   H     H_    0.866793 0.754303 0.281136 0.266813
H81   H     H_    0.864562 0.800215 0.327371 0.236612
H82   H     H_    0.909781 0.800769 0.302909 0.238322
O65   O     O_3   0.313562 0.938384 0.890338 -0.748350
H83   H     H_    0.351838 0.951042 0.945403 0.335102
O66   O     O_3   0.813662 0.440429 0.894423 -0.746474
H84   H     H_    0.853174 0.452780 0.948011 0.330589
O67   O     O_3   0.312493 0.033767 0.688928 -0.728363
H85   H     H_    0.294924 0.005041 0.671109 0.328307
O68   O     O_3   0.305715 0.097606 0.733765 -0.731101
H86   H     H_    0.351063 0.095148 0.785002 0.358424
O69   O     O_3   0.811028 0.525274 0.683782 -0.780252
H87   H     H_    0.794670 0.496375 0.672245 0.321612
O70   O     O_3   0.804850 0.592300 0.719946 -0.740601
H88   H     H_    0.848729 0.590766 0.777194 0.341232
C155  C     C_3   0.592592 0.720597 0.509069 -0.802607
H89   H     H_    0.616559 0.747793 0.511932 0.268257
H90   H     H_    0.626623 0.700905 0.568958 0.239249
H91   H     H_    0.570744 0.701653 0.450312 0.237063
C156  C     C_3   0.614438 0.279062 0.667188 -0.815900
H92   H     H_    0.643913 0.251792 0.709769 0.267838
H93   H     H_    0.638680 0.298638 0.656766 0.237041
H94   H     H_    0.605330 0.298096 0.699613 0.237962
C157  C     C_3   0.124507 0.219711 0.641125 -0.794213
H95   H     H_    0.156427 0.246670 0.677610 0.270155
H96   H     H_    0.127442 0.199948 0.686453 0.237332
H97   H     H_    0.137908 0.200718 0.614159 0.239441
C158  C     C_3   0.110160 0.780017 0.555793 -0.810228
H98   H     H_    0.138753 0.752972 0.569958 0.267352
H99   H     H_    0.098551 0.799791 0.503203 0.237775
H100  H     H_    0.136529 0.798959 0.616042 0.237603
O71   O     O_3   0.612313 0.778417 0.649278 -0.725776
H101  H     H_    0.637776 0.753084 0.683277 0.344090
O72   O     O_3   0.513148 0.219841 0.632138 -0.734989
H102  H     H_    0.516228 0.244777 0.662006 0.344787
O73   O     O_3   0.046380 0.277948 0.655792 -0.718496
H103  H     H_    0.056711 0.252510 0.690859 0.347473
O74   O     O_3   0.098133 0.719918 0.664205 -0.732276
H104  H     H_    0.120692 0.744863 0.701833 0.343957
C159  C     C_3   0.525697 0.719202 0.647176 -0.809062
H105  H     H_    0.532393 0.746053 0.685407 0.268302
H106  H     H_    0.486508 0.699862 0.624247 0.237714
H107  H     H_    0.568254 0.699733 0.689627 0.237087
C160  C     C_3   0.399415 0.279474 0.473968 -0.768240
H108  H     H_    0.373501 0.252302 0.466737 0.264968
H109  H     H_    0.417614 0.298428 0.530959 0.238930
H110  H     H_    0.368007 0.299171 0.413546 0.251032
C161  C     C_3   0.924945 0.219560 0.522990 -0.792265
H111  H     H_    0.905577 0.246492 0.529126 0.265485
H112  H     H_    0.886632 0.200542 0.465414 0.242334
H113  H     H_    0.953154 0.199811 0.583275 0.240324
C162  C     C_3   0.992682 0.778481 0.618607 -0.818071
H114  H     H_    0.991023 0.751032 0.648776 0.263451
H115  H     H_    0.034030 0.797571 0.670947 0.238432
H116  H     H_    0.950573 0.797890 0.582324 0.238711
O75   O     O_3   0.412051 0.778813 0.489262 -0.718559
H117  H     H_    0.391991 0.753574 0.486823 0.342519
O76   O     O_3   0.391476 0.221553 0.344383 -0.726639
H118  H     H_    0.366884 0.246882 0.308855 0.349439
O77   O     O_3   0.883384 0.279701 0.367032 -0.725236
H119  H     H_    0.856707 0.254655 0.336485 0.345327
O78   O     O_3   0.893639 0.720655 0.447076 -0.731978
H120  H     H_    0.869738 0.745769 0.435261 0.343072
O79   O     O_3   0.579993 0.940322 0.394935 -0.743039
H121  H     H_    0.560808 0.932794 0.415576 0.338991
O80   O     O_3   0.096013 0.458015 0.413950 -0.727401
H122  H     H_    0.136654 0.467860 0.439901 0.338043
C163  C     C_3   0.593471 0.945418 0.278247 -0.740715
H123  H     H_    0.570385 0.919842 0.229455 0.242611
H124  H     H_    0.619012 0.965732 0.270978 0.200722
H125  H     H_    0.628188 0.930866 0.344601 0.278422
C164  C     C_3   0.102075 0.455857 0.285832 -0.835532
H126  H     H_    0.136759 0.439959 0.350503 0.259488
H127  H     H_    0.081051 0.430818 0.236432 0.263024
H128  H     H_    0.126692 0.478531 0.280397 0.206405

loop_
_geom_bond_atom_site_label_1
_geom_bond_atom_site_label_2
_geom_bond_distance
_ccdc_geom_bond_type
C161  H111  1.109607 S    
C17   C49   1.193243 T    
C156  H93   1.109725 S    
C164  H127  1.108518 S    
Zn6   O30   2.015554 S    
C43   O73   1.398200 S    
C158  H98   1.109603 S    
C70   H3    1.111675 S    
C107  C109  1.413993 A    
C157  H95   1.109577 S    
C121  C135  1.494433 S    
C147  H61   1.110064 S    
Zn5   O29   2.015554 S    
C135  H9    1.112306 S    
C64   C66   1.414188 A    
C35   C39   1.548211 S    
C16   O52   1.398118 S    
C66   C68   1.388932 A    
C152  H76   1.109669 S    
C9    C13   1.542018 S    
C139  H25   1.109955 S    
C65   C99   1.421963 S    
C11   C39   1.547856 S    
C64   C164  1.512648 S    
C23   C93   1.413821 S    
C66   C100  1.426452 S    
C163  H125  1.108974 S    
C9    C151  1.519807 S    
C87   O57   1.411189 S    
O9    C3    1.282543 A    
C136  H12   1.111959 S    
O8    Zn2   2.001266 S    
O37   C99   1.265905 A    
O5    C3    1.281934 A    
O24   Zn6   1.996829 S    
O6    C4    1.282346 A    
C29   C49   1.445126 S    
O59   H35   0.992169 S    
C133  C136  1.524568 S    
O28   C94   1.282337 A    
C31   C51   1.444747 S    
C160  H109  1.109665 S    
C112  C114  1.426146 A    
C122  C131  1.369739 A    
C113  C115  1.383005 A    
C23   C55   1.192858 T    
C162  H116  1.109673 S    
C134  C135  1.521112 S    
O70   H88   0.991414 S    
O35   C98   1.270678 A    
C125  C149  1.513427 S    
C21   C91   1.413446 S    
C42   C46   1.542048 S    
C152  H74   1.109601 S    
C40   C56   1.445636 S    
C9    C25   1.541886 S    
Zn1   O13   2.016079 S    
O52   H16   0.991096 S    
C140  H26   1.104046 S    
C32   C52   1.445431 S    
O33   Zn9   2.020193 S    
C8    C76   1.418722 S    
C70   C72   1.517938 S    
C88   O60   1.404578 S    
C83   C85   1.503434 S    
O39   C100  1.270485 A    
C105  C107  1.386618 A    
O27   C93   1.282125 A    
C118  C143  1.543576 S    
C161  H113  1.109660 S    
C77   C137  1.516815 S    
C67   C69   1.488801 S    
C15   C31   1.537270 S    
C164  H126  1.105826 S    
C73   C87   1.503369 S    
O32   C96   1.275037 A    
O20   Zn8   2.015553 S    
O28   Zn8   2.003986 S    
C44   C48   1.541437 S    
Zn12  O44   2.019944 S    
C158  H100  1.109777 S    
O18   Zn6   2.023456 S    
C142  H45   1.110080 S    
C157  H97   1.109726 S    
C57   C71   1.489699 S    
O22   Zn5   1.996829 S    
O80   H122  0.990717 S    
C16   C48   1.541456 S    
C34   C160  1.519760 S    
C150  H70   1.109434 S    
C30   C50   1.445032 S    
C148  H63   1.110071 S    
O75   H117  0.991088 S    
C122  C136  1.495201 S    
C89   C107  1.413514 S    
O42   C101  1.270933 A    
C62   O80   1.378890 S    
C11   C153  1.519693 S    
C90   C108  1.421944 S    
Zn11  O47   2.015709 S    
Zn12  O48   2.023144 S    
C71   H6    1.111761 S    
O25   C91   1.282105 A    
C33   C159  1.519693 S    
C41   C45   1.541651 S    
C28   C32   1.537578 S    
O24   C94   1.282258 A    
C132  C134  1.504644 S    
O69   H87   0.993326 S    
C95   C123  1.426219 S    
C130  C132  1.392211 A    
C121  C123  1.385512 A    
C118  C119  1.568742 S    
C26   O76   1.398148 S    
O58   H34   0.992228 S    
C85   C87   1.539584 S    
O45   C103  1.271963 A    
C159  H105  1.109618 S    
O44   C102  1.271061 A    
C14   C46   1.541754 S    
C84   C86   1.506073 S    
C110  C111  1.417622 A    
C61   O79   1.382853 S    
C77   C79   1.418519 A    
O61   H37   0.988800 S    
C138  H20   1.110013 S    
C22   C54   1.192696 T    
C12   C16   1.541951 S    
O36   C98   1.276201 A    
C140  H28   1.106828 S    
C81   C83   1.389861 A    
O36   Zn12  2.017591 S    
C142  H44   1.109502 S    
C58   C60   1.387921 A    
C69   H2    1.111527 S    
O22   C92   1.282352 A    
C129  C131  1.392461 A    
C141  H41   1.109959 S    
O18   C90   1.278604 A    
C37   C53   1.445781 S    
C27   O77   1.398144 S    
O43   C102  1.273206 A    
C5    C19   1.413838 S    
C134  O70   1.402188 S    
C3    C17   1.414253 S    
C6    C20   1.414575 S    
C126  C150  1.514195 S    
C39   C47   1.548140 S    
O29   C95   1.281275 A    
C128  O66   1.382396 S    
C153  H78   1.109668 S    
C35   C43   1.541724 S    
C164  H128  1.110066 S    
C36   C44   1.541700 S    
C69   C71   1.540226 S    
O53   H29   0.992195 S    
C16   C32   1.537513 S    
O41   C101  1.273384 A    
C109  C112  1.395998 A    
C108  C110  1.414874 A    
C25   C33   1.541534 S    
C146  H56   1.109012 S    
C151  H72   1.109699 S    
C45   C155  1.519814 S    
C61   C63   1.416361 A    
C112  O64   1.378716 S    
C149  H65   1.107553 S    
C119  C146  1.545335 S    
C24   C94   1.413081 S    
C36   C162  1.519594 S    
O6    Zn1   2.001266 S    
C10   C14   1.541408 S    
O10   C4    1.282086 A    
C60   C62   1.413884 A    
Zn9   O45   2.015709 S    
C58   C72   1.493304 S    
C137  H17   1.107734 S    
O9    Zn3   2.000605 S    
O21   Zn5   2.004343 S    
C124  C126  1.416386 A    
C150  H68   1.110802 S    
O4    Zn4   2.016252 S    
C15   C47   1.541834 S    
C125  C128  1.406140 A    
O49   H13   0.991098 S    
C75   C77   1.419607 A    
C143  H48   1.110184 S    
C48   C158  1.519835 S    
C159  H107  1.109662 S    
C25   O75   1.398188 S    
C38   C54   1.445948 S    
C101  C129  1.437468 S    
Zn3   O15   2.024253 S    
C105  C119  1.505679 S    
C19   C51   1.193002 T    
C20   C52   1.193403 T    
C10   C26   1.541422 S    
O14   C8    1.278562 A    
C142  H46   1.110313 S    
C86   C88   1.533397 S    
C70   H4    1.111585 S    
O34   Zn10  2.017591 S    
C147  H60   1.109336 S    
O11   C5    1.282086 A    
C141  H43   1.109056 S    
O12   Zn4   1.997969 S    
C134  O69   1.409174 S    
C118  C144  1.547351 S    
C78   C80   1.415152 A    
C79   C139  1.515624 S    
C145  H54   1.109924 S    
C80   C82   1.430503 A    
C69   H1    1.111814 S    
C82   C84   1.389596 A    
C163  H124  1.110580 S    
C21   C53   1.192586 T    
C111  O63   1.383333 S    
C57   C67   1.335055 A    
C73   C75   1.384350 A    
C146  H58   1.109843 S    
C46   C156  1.519911 S    
C127  O65   1.381582 S    
C72   H7    1.112259 S    
C127  C129  1.419692 A    
C82   C104  1.441108 S    
C18   C50   1.193173 T    
C79   C81   1.420398 A    
C74   C84   1.367900 A    
O56   H32   0.993336 S    
C76   C78   1.411211 A    
C160  H108  1.109587 S    
O62   H38   0.989370 S    
C98   C114  1.438207 S    
O51   H15   0.991102 S    
C63   C163  1.513795 S    
C137  H19   1.109831 S    
C85   O53   1.401664 S    
C162  H115  1.109690 S    
C41   O71   1.398153 S    
C28   O78   1.398113 S    
O1    C1    1.278913 A    
O37   Zn9   2.023139 S    
C139  H23   1.109996 S    
C138  H22   1.106627 S    
O31   C95   1.275552 A    
C34   C38   1.547965 S    
C78   C138  1.517870 S    
C13   C29   1.537484 S    
O78   H120  0.991102 S    
C149  H67   1.110152 S    
C151  H71   1.109495 S    
C110  O62   1.384587 S    
O54   H30   0.993325 S    
C35   C161  1.519752 S    
O40   C100  1.268687 A    
C157  H96   1.109664 S    
C126  C127  1.408598 A    
O66   H84   0.989727 S    
C161  H112  1.109691 S    
C11   C27   1.541610 S    
C144  H50   1.108735 S    
C97   C113  1.419832 S    
C12   C28   1.542155 S    
C158  H99   1.109674 S    
C152  H75   1.109670 S    
O8    C6    1.282099 A    
C135  H10   1.111999 S    
O38   Zn10  2.015704 S    
O1    Zn1   2.024504 S    
C29   C41   1.537122 S    
O2    Zn2   2.024504 S    
C31   C43   1.537062 S    
C128  C130  1.419194 A    
Zn8   O32   2.023455 S    
O74   H104  0.991117 S    
C33   C37   1.548001 S    
C27   C31   1.537153 S    
C96   C124  1.426999 S    
O71   H101  0.991110 S    
C133  O67   1.409223 S    
C36   C40   1.547743 S    
C123  C125  1.417563 A    
C148  H62   1.110139 S    
O34   C97   1.269454 A    
O7    Zn2   1.998643 S    
C145  H55   1.110032 S    
C47   C157  1.519820 S    
O38   C99   1.271940 A    
C25   C29   1.537369 S    
C109  O61   1.384630 S    
C26   C34   1.541757 S    
C57   C59   1.378339 A    
C71   H5    1.111490 S    
C15   O51   1.398138 S    
C119  C145  1.542486 S    
O23   Zn6   2.004343 S    
O4    C2    1.275135 A    
C63   C65   1.422202 A    
C9    C37   1.547870 S    
C32   C44   1.537258 S    
C11   C15   1.541700 S    
C137  H18   1.110432 S    
C12   C40   1.547911 S    
Zn9   O41   2.017335 S    
C160  H110  1.109726 S    
Zn10  O46   2.023144 S    
C58   C68   1.368042 A    
C85   O54   1.410523 S    
Zn7   O31   2.023455 S    
C120  C147  1.542606 S    
C122  C124  1.385960 A    
O21   C91   1.282607 A    
O16   C8    1.272908 A    
O30   C96   1.281560 A    
C37   C45   1.547903 S    
O3    C1    1.275770 A    
C106  C115  1.343382 A    
O47   C104  1.281811 A    
C73   C83   1.366790 A    
C34   C42   1.542040 S    
C140  H27   1.110025 S    
O65   H83   0.990520 S    
O63   H39   0.989466 S    
C7    C75   1.425460 S    
C116  C118  1.511615 S    
O11   Zn4   2.000605 S    
C155  H89   1.109600 S    
C106  C108  1.381385 A    
C14   O50   1.398140 S    
O68   H86   0.991925 S    
O48   C104  1.266515 A    
C40   C48   1.547832 S    
C150  H69   1.108930 S    
C153  H77   1.109591 S    
Zn4   O16   2.024253 S    
C144  H52   1.110301 S    
C131  C133  1.503575 S    
C22   C92   1.413485 S    
O33   C97   1.267875 A    
C86   O56   1.410569 S    
O72   H102  0.991083 S    
C156  H92   1.109569 S    
O12   C6    1.282566 A    
O76   H118  0.991097 S    
O35   Zn11  2.020193 S    
C13   C45   1.541841 S    
C154  H80   1.109516 S    
C133  O68   1.401995 S    
O57   H33   0.993227 S    
C148  H64   1.110191 S    
C115  C117  1.501880 S    
C12   C154  1.520337 S    
C155  H90   1.109737 S    
O17   C89   1.273729 A    
O5    Zn1   1.998643 S    
C10   C152  1.519745 S    
C139  H24   1.108719 S    
C13   O49   1.398121 S    
C38   C46   1.547965 S    
O27   Zn8   1.996473 S    
O50   H14   0.991099 S    
C136  H11   1.112248 S    
O13   C7    1.279750 A    
C143  H47   1.110174 S    
C106  C120  1.501428 S    
O46   C103  1.273631 A    
C159  H106  1.109692 S    
O2    C2    1.284781 A    
C33   C41   1.541490 S    
O26   C92   1.282463 A    
O20   C90   1.276600 A    
C114  C116  1.395488 A    
C80   C140  1.518035 S    
C65   C67   1.377620 A    
C43   C47   1.541940 S    
C14   C30   1.537295 S    
O19   Zn7   2.015553 S    
Zn2   O14   2.016079 S    
C105  C116  1.363367 A    
C59   C61   1.425144 A    
C117  C120  1.578677 S    
C151  H73   1.109682 S    
C44   O74   1.398157 S    
C147  H59   1.110328 S    
O10   Zn3   1.997969 S    
C141  H42   1.110018 S    
O39   Zn11  2.023139 S    
C155  H91   1.109657 S    
O26   Zn7   2.003986 S    
O40   Zn12  2.015704 S    
C153  H79   1.109668 S    
O23   C93   1.282819 A    
C145  H53   1.109957 S    
C120  C148  1.543096 S    
C74   C76   1.384351 A    
C163  H123  1.109461 S    
O19   C89   1.276990 A    
C86   O55   1.403625 S    
C87   O58   1.401929 S    
C121  C132  1.370960 A    
O7    C5    1.282206 A    
C146  H57   1.110376 S    
C2    C60   1.432520 S    
C30   C42   1.537368 S    
C156  H94   1.109688 S    
Zn11  O43   2.017335 S    
O3    Zn3   2.016252 S    
C1    C59   1.423110 S    
O64   H40   0.986075 S    
C39   C55   1.446130 S    
C102  C130  1.437309 S    
C72   H8    1.111573 S    
C27   C35   1.541535 S    
O77   H119  0.991099 S    
C42   O72   1.398160 S    
C154  H82   1.109739 S    
C117  C141  1.542198 S    
C28   C36   1.541947 S    
C68   C70   1.493982 S    
O60   H36   0.992548 S    
O15   C7    1.275347 A    
C162  H114  1.109633 S    
C26   C30   1.537183 S    
C62   C64   1.410406 A    
C144  H51   1.109881 S    
C138  H21   1.110504 S    
O79   H121  0.989876 S    
C117  C142  1.542599 S    
C154  H81   1.109882 S    
C10   C38   1.547971 S    
C149  H66   1.110716 S    
O67   H85   0.993088 S    
C143  H49   1.109274 S    
C74   C88   1.498744 S    
Zn10  O42   2.019944 S    
C81   C103  1.439348 S    
C88   O59   1.405444 S    
O25   Zn7   1.996473 S    
C24   C56   1.192466 T    
O73   H103  0.991076 S    
O55   H31   0.992183 S    
C4    C18   1.414137 S    
C111  C113  1.423171 A    
O17   Zn5   2.023456 S    
