data_mof_unit_42966.cif
_audit_creation_date              2012-12-10T17:41:04-0500
_audit_creation_method            fapswitch 2.2
_symmetry_space_group_name_H-M    P1
_symmetry_Int_Tables_number       1
_space_group_crystal_system       triclinic
_cell_length_a                    14.724698
_cell_length_b                    15.647539
_cell_length_c                    9.937506
_cell_angle_alpha                 89.429938
_cell_angle_beta                  87.941449
_cell_angle_gamma                 89.552536
_cell_volume                      2287.99938712

loop_
_atom_site_label
_atom_site_type_symbol
_atom_type_description
_atom_site_fract_x
_atom_site_fract_y
_atom_site_fract_z
_atom_type_partial_charge
C1    C     C_R   0.383842 0.876520 0.502307 0.955764
C2    C     C_R   0.709460 0.231554 0.382155 -0.059737
C3    C     C_R   0.244244 0.298364 0.382161 -0.031306
C4    C     C_R   0.209426 0.731582 0.382179 -0.059788
C5    C     C_R   0.683587 0.807956 0.495846 -0.187360
C6    C     C_R   0.699828 0.173002 0.490030 -0.205031
C7    C     C_R   0.183577 0.307950 0.495844 -0.187342
C8    C     C_R   0.199816 0.673013 0.490033 -0.205014
C9    C     C_R   0.325915 0.977917 0.135458 -0.125292
C10   C     C_R   0.825918 0.477909 0.135462 -0.125278
C11   C     C_R   0.252820 0.944470 0.059980 -0.182312
C12   C     C_R   0.389144 0.126709 0.502618 0.949288
C13   C     C_R   0.752826 0.444456 0.059987 -0.182328
C14   C     C_R   0.265076 0.937462 0.920141 -0.098010
C15   C     C_R   0.765077 0.437456 0.920145 -0.098016
C16   C     C_R   0.341126 0.974196 0.859918 -0.238347
C17   C     C_R   0.841125 0.474195 0.859921 -0.238350
C18   C     C_R   0.419914 0.987403 0.929654 0.150155
C19   C     C_R   0.919914 0.487402 0.929655 0.150172
C20   C     C_R   0.417009 0.987562 0.073834 0.101072
C21   C     C_R   0.917010 0.487560 0.073835 0.101037
C22   C     C_R   0.577199 0.011138 0.067320 -0.019811
C23   C     C_R   0.883843 0.376519 0.502307 0.955783
C24   C     C_R   0.077199 0.511140 0.067320 -0.019808
C25   C     C_R   0.623420 0.116356 0.497217 0.889397
C26   C     C_R   0.617330 0.876933 0.498497 0.845188
C27   C     C_R   0.123416 0.616359 0.497217 0.889392
C28   C     C_R   0.117327 0.376932 0.498497 0.845189
C29   C     C_R   0.577034 0.011234 0.924602 -0.022059
C30   C     C_R   0.077034 0.511236 0.924602 -0.022042
C31   C     C_R   0.309651 0.199398 0.763119 -0.121685
C32   C     C_R   0.375622 0.741256 0.722854 -0.181298
C33   C     C_R   0.809690 0.699427 0.763115 -0.121672
C34   C     C_R   0.889150 0.626712 0.502617 0.949302
C35   C     C_R   0.875580 0.241286 0.722913 -0.181342
C36   C     C_R   0.247772 0.201567 0.872043 -0.175340
C37   C     C_R   0.379174 0.671366 0.810449 -0.179929
C38   C     C_R   0.747818 0.701591 0.872047 -0.175362
C39   C     C_R   0.879099 0.171416 0.810550 -0.179866
C40   C     C_R   0.658526 0.727833 0.853287 0.008732
C41   C     C_R   0.830512 0.097562 0.786168 -0.066436
C42   C     C_R   0.158486 0.227821 0.853275 0.008758
C43   C     C_R   0.330571 0.597519 0.786074 -0.066484
C44   C     C_R   0.634702 0.758203 0.726490 -0.180499
C45   C     C_R   0.319885 0.247233 0.394013 -0.159258
C46   C     C_R   0.773871 0.096789 0.676364 -0.177339
C47   C     C_R   0.134670 0.258190 0.726474 -0.180491
C48   C     C_R   0.273890 0.596772 0.676314 -0.177334
C49   C     C_R   0.699373 0.763026 0.617732 0.088274
C50   C     C_R   0.764013 0.169789 0.592457 0.112857
C51   C     C_R   0.199349 0.263011 0.617724 0.088290
C52   C     C_R   0.264018 0.669784 0.592435 0.112843
C53   C     C_R   0.282774 0.221888 0.631698 0.111521
C54   C     C_R   0.321423 0.740077 0.608099 0.093146
C55   C     C_R   0.782801 0.721909 0.631698 0.111490
C56   C     C_R   0.273911 0.793795 0.389290 -0.166522
C57   C     C_R   0.821411 0.240087 0.608124 0.093147
C58   C     C_R   0.334398 0.203206 0.512668 -0.173565
C59   C     C_R   0.324245 0.803500 0.504511 -0.129110
C60   C     C_R   0.834413 0.703216 0.512663 -0.173548
C61   C     C_R   0.824253 0.303494 0.504511 -0.129117
C62   C     C_2   0.196711 0.898730 0.832463 0.994062
C63   C     C_2   0.696714 0.398723 0.832468 0.994066
C64   C     C_2   0.591473 0.728195 0.967132 0.955464
C65   C     C_2   0.840596 0.020266 0.872642 0.923500
C66   C     C_2   0.091434 0.228206 0.967120 0.955497
C67   C     C_R   0.819891 0.747234 0.394004 -0.159239
C68   C     C_2   0.340684 0.520201 0.872497 0.923471
C69   C     C_2   0.729847 0.833191 0.245255 0.951003
C70   C     C_2   0.653314 0.231720 0.260972 1.004026
C71   C     C_2   0.229849 0.333200 0.245266 0.950974
C72   C     C_2   0.153257 0.731763 0.261021 1.004064
C73   C     C_2   0.289850 0.038368 0.235398 1.008075
C74   C     C_2   0.789851 0.538362 0.235398 1.008108
C75   C     C_2   0.156407 0.943237 0.116636 1.018667
C76   C     C_2   0.656417 0.443204 0.116656 1.018640
C77   C     C_R   0.773945 0.293767 0.389269 -0.166505
C78   C     C_R   0.744249 0.798365 0.382155 -0.031333
H1    H     H_    0.364480 0.236465 0.306425 0.224476
H2    H     H_    0.416953 0.794163 0.748379 0.198322
H3    H     H_    0.879031 0.682945 0.784922 0.185494
H4    H     H_    0.916909 0.294194 0.748439 0.198348
H5    H     H_    0.269899 0.183069 0.970731 0.209201
H6    H     H_    0.423671 0.673631 0.893955 0.169093
H7    H     H_    0.769951 0.683094 0.970731 0.209197
H8    H     H_    0.923560 0.173699 0.894100 0.169123
H9    H     H_    0.565067 0.776238 0.712609 0.161401
H10   H     H_    0.739246 0.037960 0.655173 0.166959
H11   H     H_    0.065037 0.276233 0.712585 0.161394
H12   H     H_    0.281365 0.837924 0.305362 0.216303
H13   H     H_    0.239251 0.537950 0.655124 0.166983
H14   H     H_    0.640452 0.020168 0.117282 0.153105
H15   H     H_    0.140452 0.520172 0.117281 0.153037
H16   H     H_    0.142635 0.893792 0.648821 0.361330
H17   H     H_    0.642629 0.393793 0.648832 0.361328
H18   H     H_    0.482770 0.786108 0.057388 0.355200
H19   H     H_    0.859119 0.085574 0.045376 0.320985
H20   H     H_    0.982759 0.286163 0.057380 0.355187
H21   H     H_    0.359384 0.585455 0.045233 0.320953
H22   H     H_    0.785869 0.883985 0.075914 0.382055
H23   H     H_    0.864477 0.736458 0.306411 0.224474
H24   H     H_    0.528620 0.241478 0.184241 0.356544
H25   H     H_    0.285868 0.384047 0.075963 0.382023
H26   H     H_    0.028546 0.741521 0.184346 0.356532
H27   H     H_    0.223353 0.056508 0.414409 0.344348
H28   H     H_    0.723356 0.556506 0.414409 0.344340
H29   H     H_    0.069829 0.920147 0.274435 0.376973
H30   H     H_    0.569856 0.420099 0.274470 0.376974
H31   H     H_    0.781414 0.337882 0.305325 0.216264
H32   H     H_    0.337247 0.992532 0.757310 0.253651
H33   H     H_    0.837244 0.492531 0.757313 0.253652
H34   H     H_    0.640192 0.020187 0.867914 0.137408
H35   H     H_    0.140193 0.520190 0.867914 0.137424
H36   H     H_    0.378988 0.182913 0.784940 0.185495
N1    N     N_R   0.498810 1.000000 0.142780 -0.121227
N2    N     N_R   0.998810 0.500000 0.142780 -0.121226
N3    N     N_R   0.498740 1.000000 0.857170 -0.123497
N4    N     N_R   0.998740 0.500000 0.857170 -0.123488
O1    O     O_R   0.408390 0.908380 0.614690 -0.660289
O2    O     O_R   0.591620 0.908390 0.614640 -0.622625
O3    O     O_R   0.091620 0.591610 0.614640 -0.622366
O4    O     O_R   0.091620 0.408390 0.614640 -0.622602
O5    O     O_R   0.591610 0.091610 0.385310 -0.616990
O6    O     O_R   0.591610 0.908390 0.385310 -0.589288
O7    O     O_R   0.091610 0.591610 0.385310 -0.617008
O8    O     O_R   0.091610 0.408390 0.385310 -0.589311
O9    O     O_2   0.148615 0.840452 0.875493 -0.572996
O10   O     O_R   0.189832 0.926497 0.698913 -0.805260
O11   O     O_2   0.648628 0.340436 0.875493 -0.573013
O12   O     O_R   0.408390 0.091620 0.614690 -0.660288
O13   O     O_R   0.689825 0.426498 0.698924 -0.805256
O14   O     O_2   0.596065 0.674398 0.056826 -0.554121
O15   O     O_R   0.523853 0.791455 0.973676 -0.824833
O16   O     O_2   0.828747 0.949628 0.825364 -0.590969
O17   O     O_R   0.863599 0.025794 0.007719 -0.722041
O18   O     O_2   0.096009 0.174411 0.056821 -0.554094
O19   O     O_R   0.023840 0.291491 0.973663 -0.824854
O20   O     O_2   0.328748 0.449578 0.825216 -0.590980
O21   O     O_R   0.363818 0.525687 0.007523 -0.721920
O22   O     O_2   0.657110 0.823651 0.192462 -0.586545
O23   O     O_R   0.908390 0.408380 0.614690 -0.660305
O24   O     O_R   0.802510 0.869517 0.171526 -0.765432
O25   O     O_2   0.690266 0.226187 0.149152 -0.633726
O26   O     O_R   0.558929 0.241649 0.274253 -0.785192
O27   O     O_2   0.157121 0.323647 0.192453 -0.586542
O28   O     O_R   0.302507 0.369559 0.171568 -0.765462
O29   O     O_2   0.190188 0.726249 0.149184 -0.633617
O30   O     O_R   0.058873 0.741681 0.274345 -0.785242
O31   O     O_2   0.280962 0.113247 0.202341 -0.663752
O32   O     O_R   0.254960 0.009552 0.360511 -0.753311
O33   O     O_2   0.780961 0.613240 0.202336 -0.663744
O34   O     O_R   0.908390 0.591620 0.614690 -0.660284
O35   O     O_R   0.754962 0.509549 0.360513 -0.753287
O36   O     O_2   0.094593 0.971533 0.049687 -0.544991
O37   O     O_R   0.136698 0.914545 0.247654 -0.788009
O38   O     O_2   0.594593 0.471489 0.049718 -0.544933
O39   O     O_R   0.636724 0.414508 0.247677 -0.788003
O40   O     O_R   0.408370 0.908380 0.385360 -0.608385
O41   O     O_R   0.408370 0.091620 0.385360 -0.596908
O42   O     O_R   0.908370 0.408380 0.385360 -0.608391
O43   O     O_R   0.908370 0.591620 0.385360 -0.596918
O44   O     O_R   0.591620 0.091610 0.614640 -0.622362
Zn1   Zn    Zn3+2 0.500010 1.000000 0.653130 0.951033
Zn2   Zn    Zn3+2 0.000010 0.500000 0.653130 0.951037
Zn3   Zn    Zn3+2 0.499980 1.000000 0.346870 1.009177
Zn4   Zn    Zn3+2 0.999980 0.500000 0.346870 1.009155

loop_
_geom_bond_atom_site_label_1
_geom_bond_atom_site_label_2
_ccdc_geom_bond_type
C44   C49   A    
C33   C55   A    
H17   O13   S    
C22   C29   A    
C73   O32   S    
C10   C74   S    
H26   O30   S    
C29   H34   S    
C36   C42   A    
C4    C8    A    
C34   O43   A    
C5    C49   A    
C27   O3    A    
C16   H32   S    
C39   C41   A    
N3    Zn1   S    
H27   O32   S    
N4    Zn2   S    
C70   O25   D    
C12   O12   A    
C1    O40   A    
C19   C21   A    
C26   O2    A    
C3    C7    A    
C1    C59   S    
C62   O9    D    
C11   C14   A    
C28   O4    A    
C6    C25   S    
C36   H5    S    
C14   C62   S    
O4    Zn2   S    
C1    O1    A    
O2    Zn1   S    
C68   O20   D    
C64   O14   D    
C19   N4    A    
C28   O8    A    
C43   C68   S    
C48   H13   S    
C41   C46   A    
C37   H6    S    
O42   Zn4   S    
N1    Zn3   S    
C44   H9    S    
C43   C48   A    
C8    C52   A    
C31   H36   S    
C65   O16   D    
C12   C58   S    
C69   O22   D    
C56   H12   S    
C38   C40   A    
C55   C60   A    
C4    C56   A    
C34   C60   S    
C47   H11   S    
H21   O21   S    
C69   C78   S    
C2    C6    A    
C67   C78   A    
C26   O6    A    
C11   C75   S    
C21   N2    A    
C17   H33   S    
C32   C54   A    
C35   H4    S    
C52   C54   A    
C46   H10   S    
C54   C59   A    
C10   C21   A    
C76   O39   S    
C45   C58   A    
H20   O19   S    
C60   C67   A    
O1    Zn1   S    
C34   O34   A    
C41   C65   S    
H30   O39   S    
C38   H7    S    
C69   O24   S    
C49   C55   A    
O3    Zn2   S    
C29   N3    A    
C76   O38   D    
C6    C50   A    
C7    C28   S    
O41   Zn3   S    
C74   O35   S    
C51   C53   A    
C37   C43   A    
C3    C71   S    
C32   H2    S    
C9    C11   A    
C9    C20   A    
H24   O26   S    
C13   C76   S    
C23   C61   S    
C25   O44   A    
H28   O35   S    
C23   O42   A    
C45   H1    S    
O34   Zn2   S    
C32   C37   A    
C31   C53   A    
C77   H31   S    
C25   O5    A    
C18   N3    A    
C65   O17   S    
C63   O13   S    
C66   O18   D    
C22   N1    A    
C71   O27   D    
C40   C44   A    
C24   N2    A    
C61   C77   A    
C13   C15   A    
C14   C16   A    
C74   O33   D    
H19   O17   S    
C4    C72   S    
C67   H23   S    
O44   Zn1   S    
C15   C17   A    
C64   O15   S    
C22   H14   S    
C73   O31   D    
C50   C57   A    
C9    C73   S    
O43   Zn4   S    
O8    Zn4   S    
C10   C13   A    
C20   N1    A    
C47   C51   A    
C53   C58   A    
C57   C61   A    
H18   O15   S    
H16   O10   S    
C72   O29   D    
C30   N4    A    
C46   C50   A    
C70   O26   S    
C33   C38   A    
C40   C64   S    
C56   C59   A    
C35   C57   A    
O7    Zn4   S    
C7    C51   A    
C2    C77   A    
C72   O30   S    
C24   H15   S    
C62   O10   S    
C27   O7    A    
C75   O36   D    
C66   O19   S    
O12   Zn1   S    
C35   C39   A    
O6    Zn3   S    
C17   C19   A    
C3    C45   A    
C18   C20   A    
C42   C47   A    
C63   O11   D    
C12   O41   A    
C24   C30   A    
N2    Zn4   S    
C5    C26   S    
O5    Zn3   S    
C75   O37   S    
C48   C52   A    
C71   O28   S    
H25   O28   S    
O23   Zn2   S    
C16   C18   A    
C42   C66   S    
C8    C27   S    
C15   C63   S    
C31   C36   A    
C23   O23   A    
C68   O21   S    
H22   O24   S    
C39   H8    S    
C5    C78   A    
C2    C70   S    
C33   H3    S    
H29   O37   S    
O40   Zn3   S    
C30   H35   S    
