data_mof_unit_23018.cif
_audit_creation_date              2012-10-26T20:02:30-0400
_audit_creation_method            fapswitch 2.2
_symmetry_space_group_name_H-M    P1
_symmetry_Int_Tables_number       1
_space_group_crystal_system       triclinic
_cell_length_a                    19.043593
_cell_length_b                    18.493831
_cell_length_c                    12.417341
_cell_angle_alpha                 89.733825
_cell_angle_beta                  129.880354
_cell_angle_gamma                 90.212307
_cell_volume                      3355.92956649

loop_
_atom_site_label
_atom_site_type_symbol
_atom_type_description
_atom_site_fract_x
_atom_site_fract_y
_atom_site_fract_z
_atom_type_partial_charge
C1    C     C_R   0.613704 0.899479 0.655030 0.532450
C2    C     C_R   0.665197 0.731224 0.026163 0.024732
C3    C     C_R   0.166194 0.766866 0.027790 0.012108
C4    C     C_R   0.165216 0.231258 0.026219 0.024751
C5    C     C_R   0.586876 0.241851 0.900485 -0.110736
C6    C     C_R   0.586212 0.754162 0.896393 -0.085230
C7    C     C_R   0.086956 0.741645 0.900815 -0.110801
C8    C     C_R   0.086226 0.254205 0.896463 -0.085221
C9    C     C_R   0.590196 0.214470 0.799210 0.109693
C10   C     C_R   0.590845 0.782014 0.796874 0.118362
C11   C     C_R   0.090194 0.714368 0.799395 0.109683
C12   C     C_R   0.613038 0.101206 0.653819 0.572866
C13   C     C_R   0.090845 0.282036 0.796915 0.118358
C14   C     C_R   0.320559 0.809988 0.157949 -0.076862
C15   C     C_R   0.322502 0.193986 0.164405 -0.118341
C16   C     C_R   0.820589 0.309929 0.158049 -0.076869
C17   C     C_R   0.822503 0.693991 0.164412 -0.118322
C18   C     C_R   0.234792 0.841313 0.233383 -0.120396
C19   C     C_R   0.232893 0.154736 0.229585 -0.129556
C20   C     C_R   0.734645 0.341511 0.233070 -0.120338
C21   C     C_R   0.732868 0.654698 0.229524 -0.129526
C22   C     C_R   0.683211 0.155210 0.748851 0.004672
C23   C     C_R   0.113701 0.399476 0.655026 0.532455
C24   C     C_R   0.684958 0.846783 0.752058 -0.003849
C25   C     C_R   0.183139 0.655276 0.748742 0.004664
C26   C     C_R   0.184946 0.346772 0.752042 -0.003882
C27   C     C_R   0.685710 0.992259 0.289548 -0.142552
C28   C     C_R   0.185709 0.492260 0.289548 -0.142603
C29   C     C_R   0.343209 0.991698 0.624272 0.051774
C30   C     C_R   0.843209 0.491700 0.624271 0.051792
C31   C     C_R   0.309626 0.976423 0.693365 -0.142508
C32   C     C_R   0.809625 0.476430 0.693364 -0.142504
C33   C     C_R   0.384650 0.099137 0.343127 0.550722
C34   C     C_R   0.113017 0.601223 0.653790 0.572844
C35   C     C_R   0.384394 0.900999 0.342841 0.532229
C36   C     C_R   0.884649 0.599135 0.343125 0.550682
C37   C     C_R   0.884389 0.401004 0.342834 0.532199
C38   C     C_R   0.369329 0.973482 0.839287 -0.088236
C39   C     C_R   0.869327 0.473488 0.839286 -0.088236
C40   C     C_R   0.463044 0.990782 0.919461 0.015354
C41   C     C_R   0.963043 0.490785 0.919461 0.015335
C42   C     C_R   0.495463 0.998302 0.843396 0.177335
C43   C     C_R   0.995463 0.498303 0.843396 0.177315
C44   C     C_R   0.526699 0.995354 0.071507 0.001705
C45   C     C_R   0.250403 0.764178 0.054432 0.045831
C46   C     C_R   0.026698 0.495356 0.071506 0.001694
C47   C     C_R   0.621598 0.994095 0.142406 0.021497
C48   C     C_R   0.121597 0.494097 0.142406 0.021486
C49   C     C_R   0.652164 0.995772 0.066107 -0.163366
C50   C     C_R   0.152163 0.495774 0.066106 -0.163404
C51   C     C_R   0.590657 0.999987 0.920374 -0.089487
C52   C     C_R   0.090657 0.499987 0.920373 -0.089496
C53   C     C_R   0.501274 0.003580 0.157181 0.152276
C54   C     C_R   0.001274 0.503582 0.157181 0.152268
C55   C     C_R   0.656450 0.993527 0.367464 0.037203
C56   C     C_R   0.250897 0.238130 0.058187 0.009991
C57   C     C_R   0.156450 0.493527 0.367464 0.037148
C58   C     C_R   0.660244 0.302306 0.121303 -0.117598
C59   C     C_R   0.658130 0.693311 0.116923 -0.130417
C60   C     C_R   0.160414 0.802046 0.121714 -0.117719
C61   C     C_R   0.158160 0.193363 0.117007 -0.130428
C62   C     C_R   0.313423 0.848311 0.247084 -0.000436
C63   C     C_R   0.313513 0.151756 0.248072 -0.003664
C64   C     C_R   0.813385 0.348348 0.247028 -0.000432
C65   C     C_R   0.813505 0.651747 0.248057 -0.003664
C66   C     C_R   0.766230 0.151507 0.774700 -0.149278
C67   C     C_R   0.750381 0.264185 0.054418 0.045839
C68   C     C_R   0.769627 0.855077 0.784166 -0.160725
C69   C     C_R   0.266093 0.651707 0.774372 -0.149266
C70   C     C_R   0.269605 0.355042 0.784109 -0.160726
C71   C     C_R   0.345960 0.676297 0.900382 -0.165681
C72   C     C_R   0.349259 0.334454 0.914578 -0.097513
C73   C     C_R   0.846088 0.176015 0.900821 -0.165717
C74   C     C_R   0.849276 0.834504 0.914655 -0.097553
C75   C     C_R   0.344397 0.704217 0.003133 0.011980
C76   C     C_R   0.345533 0.304981 0.014826 0.035848
C77   C     C_R   0.844443 0.203997 0.003456 0.011966
C78   C     C_R   0.750889 0.738123 0.058175 0.010007
C79   C     C_R   0.845535 0.805021 0.014881 0.035806
C80   C     C_R   0.758421 0.222314 0.967091 0.019737
C81   C     C_R   0.759218 0.781644 0.972348 -0.013509
C82   C     C_R   0.258402 0.722388 0.966984 0.019711
C83   C     C_R   0.259219 0.281634 0.972335 -0.013513
C84   C     C_R   0.676447 0.197574 0.836753 0.026936
C85   C     C_R   0.677421 0.802927 0.838055 0.035005
C86   C     C_R   0.176413 0.697585 0.836741 0.026927
C87   C     C_R   0.177417 0.302928 0.838059 0.034993
C88   C     C_2   0.407742 0.026576 0.092395 0.260735
C89   C     C_R   0.666096 0.267028 0.027533 0.012136
C90   C     C_2   0.907742 0.526579 0.092397 0.260737
C91   C     C_2   0.432847 0.701787 0.148706 0.201697
C92   C     C_2   0.429317 0.310889 0.164698 0.209137
C93   C     C_2   0.932807 0.201465 0.149125 0.201712
C94   C     C_2   0.929295 0.810952 0.164770 0.209124
Cu1   Cu    Cu3+1 0.526340 0.000000 0.421010 0.940895
Cu2   Cu    Cu3+1 0.026340 0.500000 0.421010 0.940813
Cu3   Cu    Cu3+1 0.473640 0.000000 0.578990 0.927557
Cu4   Cu    Cu3+1 0.973640 0.500000 0.578990 0.927533
H1    H     H_    0.227948 0.870870 0.301324 0.140955
H2    H     H_    0.796960 0.492057 0.510789 0.126436
H3    H     H_    0.340982 0.954011 0.886188 0.104394
H4    H     H_    0.840978 0.454020 0.886185 0.104415
H5    H     H_    0.237669 0.964572 0.633701 0.119385
H6    H     H_    0.737667 0.464581 0.633699 0.119365
H7    H     H_    0.620800 0.002092 0.871786 0.179586
H8    H     H_    0.120799 0.502092 0.871785 0.179599
H9    H     H_    0.521252 0.249986 0.874835 0.113669
H10   H     H_    0.519723 0.742339 0.865806 0.117882
H11   H     H_    0.021367 0.749678 0.875329 0.113762
H12   H     H_    0.224955 0.122350 0.294097 0.128412
H13   H     H_    0.019742 0.242400 0.865905 0.117952
H14   H     H_    0.596651 0.302922 0.103479 0.169048
H15   H     H_    0.593375 0.689533 0.095379 0.091829
H16   H     H_    0.096890 0.802532 0.104092 0.169185
H17   H     H_    0.093415 0.189612 0.095503 0.091802
H18   H     H_    0.379000 0.819908 0.164230 0.134347
H19   H     H_    0.383547 0.187777 0.176409 0.177835
H20   H     H_    0.879136 0.319725 0.164548 0.134380
H21   H     H_    0.883564 0.687804 0.176453 0.177759
H22   H     H_    0.771659 0.121491 0.705579 0.136897
H23   H     H_    0.727745 0.371154 0.300874 0.140877
H24   H     H_    0.775684 0.886433 0.716515 0.122183
H25   H     H_    0.271486 0.621744 0.705165 0.136964
H26   H     H_    0.275656 0.386387 0.716441 0.122187
H27   H     H_    0.410464 0.665266 0.924033 0.099703
H28   H     H_    0.414091 0.349634 0.942368 0.147133
H29   H     H_    0.910623 0.164872 0.924642 0.099739
H30   H     H_    0.914112 0.849705 0.942475 0.147244
H31   H     H_    0.706064 0.990853 0.480808 0.118330
H32   H     H_    0.206065 0.490853 0.480808 0.118337
H33   H     H_    0.365748 0.995123 0.105621 0.122887
H34   H     H_    0.724923 0.622298 0.294014 0.128436
H35   H     H_    0.865746 0.495123 0.105616 0.122918
H36   H     H_    0.496532 0.709483 0.167779 0.092254
H37   H     H_    0.424044 0.311409 0.246655 0.101867
H38   H     H_    0.996578 0.208995 0.168391 0.092291
H39   H     H_    0.923999 0.811427 0.246703 0.101907
H40   H     H_    0.449818 0.221605 0.647582 0.226429
H41   H     H_    0.509492 0.246123 0.596482 0.210455
H42   H     H_    0.520436 0.782991 0.582739 0.252285
H43   H     H_    0.464488 0.820904 0.635260 0.267090
H44   H     H_    0.949794 0.721400 0.647976 0.226477
H45   H     H_    0.724831 0.995413 0.119897 0.126314
H46   H     H_    0.009317 0.746113 0.596708 0.210452
H47   H     H_    0.020407 0.283007 0.582771 0.252278
H48   H     H_    0.964482 0.320928 0.635325 0.267113
H49   H     H_    0.224831 0.495414 0.119897 0.126263
H50   H     H_    0.758412 0.989705 0.344260 0.107013
H51   H     H_    0.258412 0.489706 0.344259 0.106970
H52   H     H_    0.296959 0.992054 0.510790 0.126446
N1    N     N_R   0.566260 1.000000 0.302220 -0.248783
N2    N     N_R   0.066260 0.500000 0.302220 -0.248789
N3    N     N_R   0.434410 0.000000 0.697680 -0.236682
N4    N     N_R   0.934410 0.500000 0.697680 -0.236683
N5    N     N_3   0.506613 0.208253 0.656333 -0.580014
N6    N     N_3   0.507958 0.779446 0.653100 -0.607343
N7    N     N_3   0.006556 0.708160 0.656569 -0.579946
N8    N     N_3   0.007945 0.279467 0.653153 -0.607256
O1    O     O_R   0.608610 0.924520 0.551740 -0.502108
O2    O     O_R   0.435880 0.924530 0.314850 -0.532865
O3    O     O_R   0.935880 0.575470 0.314850 -0.495470
O4    O     O_R   0.935880 0.424530 0.314850 -0.532886
O5    O     O_R   0.391380 0.075460 0.448260 -0.490664
O6    O     O_R   0.391380 0.924540 0.448260 -0.521446
O7    O     O_R   0.891380 0.575460 0.448260 -0.490682
O8    O     O_R   0.891380 0.424540 0.448260 -0.521401
O9    O     O_2   0.375964 0.081504 0.021034 -0.517924
O10   O     O_2   0.875967 0.581510 0.021046 -0.517971
O11   O     O_2   0.435844 0.686837 0.247489 -0.493803
O12   O     O_R   0.608610 0.075480 0.551740 -0.503078
O13   O     O_2   0.505019 0.316748 0.198391 -0.533623
O14   O     O_2   0.935625 0.186606 0.247770 -0.493811
O15   O     O_2   0.005001 0.816891 0.198502 -0.533744
O16   O     O_R   0.108610 0.424520 0.551740 -0.502115
O17   O     O_R   0.108610 0.575480 0.551740 -0.503118
O18   O     O_R   0.564110 0.924510 0.685150 -0.525169
O19   O     O_R   0.564110 0.075490 0.685150 -0.475949
O20   O     O_R   0.064110 0.424510 0.685150 -0.525156
O21   O     O_R   0.064110 0.575490 0.685150 -0.475931
O22   O     O_R   0.435880 0.075470 0.314850 -0.495473

loop_
_geom_bond_atom_site_label_1
_geom_bond_atom_site_label_2
_ccdc_geom_bond_type
H40   N5    S    
C50   H49   S    
C30   C32   A    
Cu4   N4    S    
C93   O14   D    
C8    C13   A    
Cu2   O17   S    
C12   C22   S    
C60   H16   S    
C45   C82   A    
C80   C84   A    
C93   H38   S    
C10   C85   A    
C23   O16   A    
C28   C57   A    
C7    C11   A    
Cu2   O16   S    
C56   C83   A    
Cu1   O1    S    
C33   O5    A    
C21   C59   A    
C38   H3    S    
C3    C7    A    
C27   C55   A    
C43   C52   A    
C19   H12   S    
C69   H25   S    
C11   C86   A    
C68   C74   A    
C14   C62   A    
C57   N2    A    
C30   H2    S    
C67   C89   A    
Cu2   O3    S    
C23   C26   S    
C77   C93   S    
C69   C71   A    
C73   C77   A    
C35   O2    A    
C22   C66   A    
C23   O20   A    
C34   O17   A    
C29   H52   S    
C44   C53   A    
C74   H30   S    
C19   C63   A    
C27   H50   S    
C49   C51   A    
Cu2   Cu4   S    
C61   H17   S    
C50   C52   A    
C41   C46   A    
C32   H6    S    
Cu3   N3    S    
Cu4   O20   S    
C43   N4    A    
C24   C85   A    
C40   C44   A    
C44   C47   A    
C4    C8    A    
C42   C51   A    
C21   C65   A    
C3    C60   A    
C88   O9    D    
C40   C42   A    
C12   O19   A    
C52   H8    S    
C28   H51   S    
C53   N1    A    
Cu3   O18   S    
C66   H22   S    
C4    C56   A    
C33   O22   A    
C41   C43   A    
C13   C87   A    
C34   O21   A    
C2    C6    A    
C76   C83   A    
C58   C89   A    
C14   C45   A    
C46   C48   A    
C71   C75   A    
C91   O11   D    
Cu1   O2    S    
C57   H32   S    
C1    O1    A    
C42   N3    A    
C79   C94   S    
C39   C41   A    
C8    H13   S    
C10   N6    S    
C79   C81   A    
C90   H35   S    
C17   H21   S    
C2    C59   A    
C26   C87   A    
C54   N2    A    
C9    C84   A    
C55   H31   S    
C73   H29   S    
C66   C73   A    
C4    C61   A    
C3    C45   A    
C7    H11   S    
C72   H28   S    
C22   C84   A    
C20   C64   A    
C21   H34   S    
C5    C9    A    
C2    C78   A    
C16   H20   S    
Cu3   O5    S    
Cu3   O19   S    
H41   N5    S    
C33   C63   S    
Cu3   O6    S    
C46   C54   A    
C72   C76   A    
H43   N6    S    
C16   C67   A    
C55   N1    A    
C20   H23   S    
Cu4   O8    S    
C76   C92   S    
C18   C60   A    
H42   N6    S    
C53   C88   S    
C1    O18   A    
C74   C79   A    
C70   H26   S    
C36   O3    A    
C26   C70   A    
C58   H14   S    
C92   H37   S    
C25   C69   A    
C18   H1    S    
H44   N7    S    
C68   H24   S    
C13   N8    S    
C37   C64   S    
C11   N7    S    
C39   H4    S    
C29   N3    A    
C5    H9    S    
C77   C80   A    
C27   C47   A    
C28   C48   A    
C15   C63   A    
C90   O10   D    
C36   C65   S    
C18   C62   A    
C67   C80   A    
C59   H15   S    
C83   C87   A    
C6    C10   A    
C12   O12   A    
Cu1   Cu3   S    
C75   C82   A    
C54   C90   S    
C37   O8    A    
H48   N8    S    
C75   C91   S    
C47   C49   A    
C25   C34   S    
C17   C65   A    
C35   O6    A    
C31   C38   A    
C17   C78   A    
C15   C56   A    
Cu4   O21   S    
C29   C31   A    
C82   C86   A    
C38   C40   A    
H47   N8    S    
C78   C81   A    
C25   C86   A    
C91   H36   S    
C19   C61   A    
C14   H18   S    
C49   H45   S    
C48   C50   A    
C36   O7    A    
Cu2   O4    S    
C35   C62   S    
Cu1   O12   S    
C5    C89   A    
C51   H7    S    
Cu4   O7    S    
C24   C68   A    
C94   O15   D    
C92   O13   D    
C15   H19   S    
Cu1   O22   S    
C30   N4    A    
Cu1   N1    S    
C9    N5    S    
C1    C24   S    
C32   C39   A    
C94   H39   S    
C6    H10   S    
C71   H27   S    
C70   C72   A    
C16   C64   A    
C88   H33   S    
H46   N7    S    
C20   C58   A    
C81   C85   A    
C31   H5    S    
C37   O4    A    
Cu2   N2    S    
