data_mof_unit_44442.cif
_audit_creation_date              2012-12-11T14:07:17-0500
_audit_creation_method            fapswitch 2.2
_symmetry_space_group_name_H-M    P1
_symmetry_Int_Tables_number       1
_space_group_crystal_system       triclinic
_cell_length_a                    20.045791
_cell_length_b                    16.913157
_cell_length_c                    15.697658
_cell_angle_alpha                 89.860879
_cell_angle_beta                  53.012666
_cell_angle_gamma                 89.999235
_cell_volume                      4251.10365025

loop_
_atom_site_label
_atom_site_type_symbol
_atom_type_description
_atom_site_fract_x
_atom_site_fract_y
_atom_site_fract_z
_atom_type_partial_charge
C1    C     C_R   0.348189 0.183893 0.033467 0.452732
C2    C     C_R   0.349001 0.815388 0.032823 0.443750
C3    C     C_R   0.848181 0.683884 0.033483 0.452746
C4    C     C_R   0.849003 0.315386 0.032819 0.443750
C5    C     C_R   0.665617 0.909728 0.055882 -0.099055
C6    C     C_R   0.666161 0.090029 0.054732 -0.105360
C7    C     C_R   0.165625 0.409735 0.055867 -0.099084
C8    C     C_R   0.166161 0.590031 0.054734 -0.105385
C9    C     C_R   0.706131 0.153558 0.982340 -0.179188
C10   C     C_R   0.705658 0.846521 0.983678 -0.185145
C11   C     C_R   0.206131 0.653560 0.982340 -0.179168
C12   C     C_R   0.205674 0.346537 0.983649 -0.185128
C13   C     C_R   0.601537 0.811365 0.702176 -0.133627
C14   C     C_R   0.606004 0.188423 0.702147 -0.146651
C15   C     C_R   0.101504 0.311359 0.702194 -0.133567
C16   C     C_R   0.106003 0.688423 0.702148 -0.146630
C17   C     C_3   0.263856 0.151195 0.508634 -0.676914
C18   C     C_3   0.261097 0.846891 0.500598 -0.687361
C19   C     C_3   0.763922 0.651222 0.508619 -0.676953
C20   C     C_3   0.761100 0.346891 0.500601 -0.687347
C21   C     C_3   0.196269 0.188112 0.616914 0.804017
C22   C     C_3   0.183680 0.815618 0.605913 0.846530
C23   C     C_3   0.696330 0.688137 0.616898 0.804023
C24   C     C_3   0.683685 0.315618 0.605916 0.846525
C25   C     C_3   0.333450 0.285878 0.442367 0.688254
C26   C     C_3   0.342525 0.717518 0.448691 0.652510
C27   C     C_3   0.833482 0.785908 0.442330 0.688251
C28   C     C_3   0.842524 0.217515 0.448687 0.652509
C29   C     C_3   0.728383 0.735210 0.408377 0.891552
C30   C     C_3   0.740231 0.245778 0.401871 0.936930
C31   C     C_3   0.228354 0.235225 0.408380 0.891511
C32   C     C_3   0.240234 0.745771 0.401868 0.936934
C33   C     C_3   0.301171 0.212645 0.415996 -0.433770
C34   C     C_3   0.306713 0.781743 0.413214 -0.411081
C35   C     C_3   0.801213 0.712660 0.415976 -0.433778
C36   C     C_3   0.806713 0.281744 0.413215 -0.411092
C37   C     C_3   0.672856 0.773631 0.597932 -0.521311
C38   C     C_3   0.681551 0.221578 0.598340 -0.544859
C39   C     C_3   0.172818 0.273621 0.597949 -0.521324
C40   C     C_3   0.181551 0.721578 0.598340 -0.544857
C41   C     C_3   0.754198 0.830686 0.537910 0.551815
C42   C     C_3   0.768807 0.185794 0.564657 0.583780
C43   C     C_3   0.254172 0.330663 0.537944 0.551747
C44   C     C_3   0.268806 0.685797 0.564661 0.583773
C45   C     C_R   0.397886 0.801877 0.211628 0.124465
C46   C     C_R   0.394337 0.196651 0.214567 0.118467
C47   C     C_R   0.897885 0.301877 0.211628 0.124480
C48   C     C_R   0.894359 0.696656 0.214551 0.118500
C49   C     C_3   0.648730 0.756708 0.520120 0.259090
C50   C     C_3   0.672517 0.202466 0.505998 0.164816
C51   C     C_3   0.148699 0.256723 0.520121 0.259118
C52   C     C_3   0.172520 0.702461 0.505995 0.164810
C53   C     C_2   0.268487 0.706235 0.966400 0.409812
C54   C     C_2   0.267773 0.293592 0.967720 0.410096
C55   C     C_2   0.768489 0.206232 0.966396 0.409825
C56   C     C_2   0.767757 0.793578 0.967752 0.410064
C57   C     C_2   0.745401 0.280697 0.004628 0.464322
C58   C     C_2   0.744763 0.718599 0.004945 0.468323
C59   C     C_2   0.245396 0.780700 0.004636 0.464325
C60   C     C_2   0.244779 0.218613 0.004913 0.468290
C61   C     C_R   0.341866 0.899562 0.931129 0.837583
C62   C     C_R   0.341640 0.100124 0.931360 0.862650
C63   C     C_R   0.841870 0.399559 0.931123 0.837619
C64   C     C_R   0.841631 0.600117 0.931375 0.862639
C65   C     C_R   0.398301 0.101216 0.307591 -0.068702
C66   C     C_R   0.401708 0.895782 0.305488 -0.088179
C67   C     C_R   0.898329 0.601225 0.307572 -0.068740
C68   C     C_R   0.901707 0.395783 0.305488 -0.088144
C69   C     C_R   0.305102 0.166031 0.994590 -0.346392
C70   C     C_R   0.305714 0.833215 0.994158 -0.336834
C71   C     C_R   0.805088 0.666018 0.994616 -0.346411
C72   C     C_R   0.805719 0.333211 0.994149 -0.336860
C73   C     C_R   0.375654 0.819978 0.311352 0.216711
C74   C     C_R   0.370717 0.176087 0.314741 0.207935
C75   C     C_R   0.875653 0.319979 0.311353 0.216700
C76   C     C_R   0.870757 0.676100 0.314718 0.207959
C77   C     C_R   0.659250 0.177355 0.950964 0.829274
C78   C     C_R   0.659524 0.823346 0.951204 0.835279
C79   C     C_R   0.159250 0.677356 0.950964 0.829266
C80   C     C_R   0.159537 0.323362 0.951179 0.835292
C81   C     C_R   0.590411 0.798978 0.798458 0.530190
C82   C     C_R   0.592858 0.201293 0.798330 0.560270
C83   C     C_R   0.090393 0.298976 0.798467 0.530179
C84   C     C_R   0.092857 0.701293 0.798331 0.560275
C85   C     C_R   0.582621 0.110795 0.706131 0.862141
C86   C     C_R   0.583809 0.891238 0.704766 0.842977
C87   C     C_R   0.082621 0.610795 0.706131 0.862123
C88   C     C_R   0.083795 0.391237 0.704776 0.842913
H1    H     H_    0.238676 0.100274 0.491133 0.255409
H2    H     H_    0.243879 0.898389 0.473239 0.269654
H3    H     H_    0.738752 0.600288 0.491130 0.255403
H4    H     H_    0.743882 0.398391 0.473245 0.269663
H5    H     H_    0.606059 0.705178 0.552106 0.171480
H6    H     H_    0.609899 0.222657 0.532802 0.211193
H7    H     H_    0.106021 0.205197 0.552093 0.171473
H8    H     H_    0.109902 0.722649 0.532797 0.211195
H9    H     H_    0.411434 0.742925 0.179847 0.241342
H10   H     H_    0.402215 0.256329 0.186939 0.239188
H11   H     H_    0.911432 0.242926 0.179849 0.241342
H12   H     H_    0.902246 0.756330 0.186910 0.239173
H13   H     H_    0.400504 0.067189 0.364024 0.139394
H14   H     H_    0.404517 0.928080 0.362492 0.151665
H15   H     H_    0.900536 0.567200 0.364003 0.139395
H16   H     H_    0.904514 0.428083 0.362493 0.151656
H17   H     H_    0.682593 0.934437 0.103753 0.198427
H18   H     H_    0.683669 0.064946 0.101957 0.197328
H19   H     H_    0.182603 0.434443 0.103737 0.198431
H20   H     H_    0.183667 0.564951 0.101963 0.197330
H21   H     H_    0.312494 0.124579 0.512509 0.282186
H22   H     H_    0.306285 0.870865 0.512925 0.271013
H23   H     H_    0.812571 0.624630 0.512483 0.282210
H24   H     H_    0.806292 0.370862 0.512925 0.271015
N1    N     N_R   0.408680 0.130160 0.995800 -0.156831
N2    N     N_R   0.408680 0.869840 0.995800 -0.159569
N3    N     N_R   0.908680 0.630160 0.995800 -0.156830
N4    N     N_R   0.908680 0.369840 0.995800 -0.159580
N5    N     N_R   0.421680 0.867580 0.153120 -0.082715
N6    N     N_R   0.421680 0.132420 0.153120 -0.078277
N7    N     N_R   0.921680 0.367580 0.153120 -0.082714
N8    N     N_R   0.921680 0.632420 0.153120 -0.078276
N9    N     N_R   0.403730 0.921770 0.935950 -0.190113
N10   N     N_R   0.403730 0.078230 0.935950 -0.183667
N11   N     N_R   0.903730 0.421770 0.935950 -0.190117
N12   N     N_R   0.903730 0.578230 0.935950 -0.183657
N13   N     N_R   0.426630 0.075970 0.212960 -0.069393
N14   N     N_R   0.426630 0.924030 0.212960 -0.069848
N15   N     N_R   0.926630 0.575970 0.212960 -0.069382
N16   N     N_R   0.926630 0.424030 0.212960 -0.069845
N17   N     N_R   0.591320 0.134600 0.004200 -0.131946
N18   N     N_R   0.591320 0.865400 0.004200 -0.132364
N19   N     N_R   0.091320 0.634600 0.004200 -0.131957
N20   N     N_R   0.091320 0.365400 0.004200 -0.132359
N21   N     N_R   0.578320 0.867660 0.846880 -0.162035
N22   N     N_R   0.578320 0.132340 0.846880 -0.171819
N23   N     N_R   0.078320 0.367660 0.846880 -0.162019
N24   N     N_R   0.078320 0.632340 0.846880 -0.171820
N25   N     N_R   0.573370 0.074390 0.787040 -0.161024
N26   N     N_R   0.573370 0.925610 0.787040 -0.165656
N27   N     N_R   0.073370 0.574390 0.787040 -0.161021
N28   N     N_R   0.073370 0.425610 0.787040 -0.165649
N29   N     N_R   0.596270 0.927870 0.064040 -0.097479
N30   N     N_R   0.596270 0.072130 0.064040 -0.096823
N31   N     N_R   0.096270 0.427870 0.064040 -0.097477
N32   N     N_R   0.096270 0.572130 0.064040 -0.096826
Ni1   Ni    Ni4+2 0.500000 0.131190 0.000000 0.337611
Ni2   Ni    Ni4+2 0.500000 0.868810 0.000000 0.333214
Ni3   Ni    Ni4+2 0.000000 0.631190 0.000000 0.337602
Ni4   Ni    Ni4+2 0.000000 0.368810 0.000000 0.333216
Ni5   Ni    Ni4+2 0.488650 0.000000 0.862740 0.380069
Ni6   Ni    Ni4+2 0.988650 0.500000 0.862740 0.380081
Ni7   Ni    Ni4+2 0.511350 0.000000 0.137260 0.252762
Ni8   Ni    Ni4+2 0.011350 0.500000 0.137260 0.252756
Cl1   Cl    Cl    0.336744 0.273922 0.096607 -0.426746
Cl2   Cl    Cl    0.340093 0.724849 0.093829 -0.422287
Cl3   Cl    Cl    0.836733 0.773910 0.096631 -0.426738
Cl4   Cl    Cl    0.840092 0.224848 0.093830 -0.422281
Cl5   Cl    Cl    0.736441 0.688014 0.693291 -0.294465
Cl6   Cl    Cl    0.591031 0.359566 0.632465 -0.348554
Cl7   Cl    Cl    0.236381 0.187954 0.693311 -0.294395
Cl8   Cl    Cl    0.091027 0.859561 0.632457 -0.348568
Cl9   Cl    Cl    0.110053 0.118856 0.682368 -0.341415
Cl10  Cl    Cl    0.190930 0.858691 0.705289 -0.270939
Cl11  Cl    Cl    0.610138 0.618859 0.682355 -0.341433
Cl12  Cl    Cl    0.690940 0.358686 0.705291 -0.270922
Cl13  Cl    Cl    0.404159 0.253481 0.471089 -0.358964
Cl14  Cl    Cl    0.428522 0.758871 0.442981 -0.370044
Cl15  Cl    Cl    0.904205 0.753547 0.471037 -0.358956
Cl16  Cl    Cl    0.928525 0.258863 0.442975 -0.370052
Cl17  Cl    Cl    0.774360 0.871444 0.626752 -0.405428
Cl18  Cl    Cl    0.787409 0.207875 0.660991 -0.372437
Cl19  Cl    Cl    0.274335 0.371399 0.626794 -0.405440
Cl20  Cl    Cl    0.287405 0.707885 0.660997 -0.372434
F1    F     F_    0.753013 0.798908 0.339643 -0.555893
F2    F     F_    0.777455 0.193646 0.317006 -0.565081
F3    F     F_    0.253004 0.298932 0.339651 -0.555884
F4    F     F_    0.277462 0.693637 0.317005 -0.565078
Cl21  Cl    Cl    0.702267 0.656038 0.356009 -0.482666
Cl22  Cl    Cl    0.692914 0.319814 0.370818 -0.457267
Cl23  Cl    Cl    0.202233 0.156073 0.355987 -0.482642
Cl24  Cl    Cl    0.192918 0.819803 0.370808 -0.457283
Cl25  Cl    Cl    0.586818 0.824985 0.507219 -0.199033
Cl26  Cl    Cl    0.673504 0.099314 0.473859 -0.211699
Cl27  Cl    Cl    0.086802 0.325017 0.507212 -0.199016
Cl28  Cl    Cl    0.173510 0.599307 0.473860 -0.211721
Cl29  Cl    Cl    0.401815 0.349202 0.327753 -0.284925
Cl30  Cl    Cl    0.392881 0.639967 0.349993 -0.260776
Cl31  Cl    Cl    0.901828 0.849226 0.327705 -0.284928
Cl32  Cl    Cl    0.892876 0.139966 0.349986 -0.260788
Cl33  Cl    Cl    0.736625 0.917689 0.486763 -0.250774
Cl34  Cl    Cl    0.768931 0.079690 0.571548 -0.377494
Cl35  Cl    Cl    0.236615 0.417683 0.486800 -0.250841
Cl36  Cl    Cl    0.268933 0.579694 0.571556 -0.377497
Cl37  Cl    Cl    0.373634 0.678401 0.869162 -0.375335
Cl38  Cl    Cl    0.372685 0.321918 0.870232 -0.353489
Cl39  Cl    Cl    0.873636 0.178395 0.869161 -0.375327
Cl40  Cl    Cl    0.872668 0.821905 0.870259 -0.353509
Cl41  Cl    Cl    0.640046 0.310925 0.096616 -0.395416
Cl42  Cl    Cl    0.639377 0.687833 0.096250 -0.394990
Cl43  Cl    Cl    0.140040 0.810925 0.096624 -0.395429
Cl44  Cl    Cl    0.139393 0.187846 0.096212 -0.395021
F5    F     F_    0.330697 0.925911 0.859089 -0.512079
F6    F     F_    0.330393 0.073833 0.859494 -0.506672
F7    F     F_    0.830705 0.425907 0.859078 -0.512062
F8    F     F_    0.830377 0.573826 0.859516 -0.506677
F9    F     F_    0.670308 0.243727 0.895363 -0.586922
F10   F     F_    0.671888 0.757995 0.894363 -0.588413
F11   F     F_    0.170308 0.743729 0.895365 -0.586921
F12   F     F_    0.171915 0.258021 0.894315 -0.588414
Cl45  Cl    Cl    0.540523 0.715721 0.880819 -0.326306
Cl46  Cl    Cl    0.533097 0.281418 0.880736 -0.338476
Cl47  Cl    Cl    0.040516 0.215719 0.880835 -0.326322
Cl48  Cl    Cl    0.033094 0.781416 0.880738 -0.338482
F13   F     F_    0.533018 0.090371 0.677793 -0.554624
F14   F     F_    0.557817 0.927310 0.652727 -0.524513
F15   F     F_    0.033018 0.590371 0.677793 -0.554624
F16   F     F_    0.057763 0.427300 0.652771 -0.524503

loop_
_geom_bond_atom_site_label_1
_geom_bond_atom_site_label_2
_ccdc_geom_bond_type
C61   C70   A    
C78   N18   A    
C81   Cl45  S    
C80   N20   A    
N4    N11   A    
N28   Ni6   S    
C42   Cl34  S    
N18   Ni2   S    
C53   Cl37  S    
C66   H14   S    
C55   Cl39  S    
C65   H13   S    
C25   C43   S    
C6    C9    A    
C44   Cl20  S    
C53   C59   D    
N8    N15   A    
C67   H15   S    
C48   N8    A    
C31   F3    S    
C46   H10   S    
C68   C75   A    
C32   F4    S    
C63   F7    S    
C54   Cl38  S    
C61   N9    A    
C31   C51   S    
C52   Cl28  S    
C38   C42   S    
N9    Ni5   S    
C51   Cl27  S    
C28   Cl32  S    
C22   Cl10  S    
C24   Cl6   S    
C58   C71   S    
C45   N5    A    
C25   Cl29  S    
C13   C81   A    
C16   C84   A    
C47   H11   S    
C46   N6    A    
C45   C73   A    
C77   N17   A    
C64   C71   A    
N1    Ni1   S    
C19   C35   S    
N18   N29   A    
C48   C76   A    
C88   N28   A    
N13   Ni7   S    
C61   F5    S    
C39   C51   S    
C56   Cl40  S    
N2    N9    A    
N16   Ni8   S    
C62   F6    S    
N1    N10   A    
C20   C24   S    
C59   Cl43  S    
C84   N24   A    
C13   C86   A    
C16   C87   A    
C24   C38   S    
C31   C33   S    
N19   Ni3   S    
C3    N3    A    
C9    C55   S    
N6    N13   A    
C6    N30   A    
C62   N10   A    
C42   Cl18  S    
N5    N14   A    
C68   N16   A    
N17   Ni1   S    
C11   C53   S    
C77   F9    S    
N7    N16   A    
C83   Cl47  S    
N20   N31   A    
C47   N7    A    
C64   F8    S    
N11   Ni6   S    
C79   N19   A    
N21   N26   A    
C2    Cl2   S    
C20   H24   S    
C21   Cl7   S    
N25   Ni5   S    
C50   Cl26  S    
C17   C33   S    
N22   N25   A    
N24   N27   A    
C8    H20   S    
C7    N31   A    
C26   C34   S    
C23   Cl11  S    
C78   F10   S    
N26   Ni5   S    
C6    H18   S    
N23   N28   A    
C48   H12   S    
C35   C76   S    
C21   Cl9   S    
C30   C50   S    
C26   C44   S    
C18   H2    S    
N10   Ni5   S    
C32   C52   S    
C2    N2    A    
C17   H1    S    
N2    Ni2   S    
C87   N27   A    
N4    Ni4   S    
C60   Cl44  S    
C50   H6    S    
C5    H17   S    
N17   N30   A    
C34   C73   S    
C27   C35   S    
N7    Ni4   S    
C40   C52   S    
C66   C73   A    
C41   Cl17  S    
C1    C69   A    
C65   C74   A    
C66   N14   A    
C62   C69   A    
C31   Cl23  S    
N5    Ni2   S    
C32   C34   S    
N30   Ni7   S    
C82   N22   A    
C86   N26   A    
C19   C23   S    
C86   F14   S    
C24   Cl12  S    
C36   C75   S    
C85   F13   S    
N15   Ni8   S    
C14   C38   S    
C26   Cl14  S    
N14   Ni7   S    
C27   C41   S    
C5    N29   A    
C21   C39   S    
C22   C40   S    
C3    Cl3   S    
C30   Cl22  S    
C8    N32   A    
C27   Cl31  S    
C29   C49   S    
C1    Cl1   S    
C18   C34   S    
C46   C74   A    
C15   C39   S    
C37   C49   S    
C11   C79   A    
C16   C40   S    
C49   Cl25  S    
N31   Ni8   S    
C4    Cl4   S    
C55   C57   D    
C67   N15   A    
C7    H19   S    
C7    C12   A    
C20   H4    S    
C14   C82   A    
C85   N25   A    
C4    C72   A    
C10   C56   S    
N29   Ni7   S    
C45   H9    S    
N22   Ni1   S    
N12   Ni6   S    
C58   Cl42  S    
C43   Cl19  S    
N3    N12   A    
C88   F16   S    
C57   Cl41  S    
C18   C22   S    
N20   Ni4   S    
C13   C37   S    
C83   N23   A    
C4    N4    A    
N6    Ni1   S    
C18   H22   S    
C14   C85   A    
C29   F1    S    
C80   F12   S    
C17   H21   S    
C63   N11   A    
C41   Cl33  S    
C84   Cl48  S    
C81   N21   A    
C3    C71   A    
C38   C50   S    
C19   H23   S    
C64   N12   A    
C29   C35   S    
N27   Ni6   S    
C30   C36   S    
C54   C60   D    
N3    Ni3   S    
C25   Cl13  S    
C68   H16   S    
C9    C77   A    
C12   C80   A    
C47   C75   A    
C5    C10   A    
N32   Ni8   S    
C23   C37   S    
C44   Cl36  S    
C26   Cl30  S    
C65   N13   A    
C22   Cl8   S    
C60   C69   S    
C8    C11   A    
C15   C83   A    
C23   Cl5   S    
C28   C42   S    
C56   C58   D    
C10   C78   A    
C52   H8    S    
C79   F11   S    
C57   C72   S    
C37   C41   S    
C17   C21   S    
N24   Ni3   S    
C19   H3    S    
C1    N1    A    
C28   Cl16  S    
C59   C70   S    
C43   Cl35  S    
C20   C36   S    
C33   C74   S    
C40   C44   S    
C63   C72   A    
C28   C36   S    
N8    Ni3   S    
N23   Ni4   S    
C39   C43   S    
C51   H7    S    
C87   F15   S    
C32   Cl24  S    
C29   Cl21  S    
N21   Ni2   S    
C49   H5    S    
C2    C70   A    
C30   F2    S    
C27   Cl15  S    
C12   C54   S    
N19   N32   A    
C67   C76   A    
C25   C33   S    
C15   C88   A    
C82   Cl46  S    
