data_mof_unit_51703.cif
_audit_creation_date              2012-12-10T19:29:28-0500
_audit_creation_method            fapswitch 2.2
_symmetry_space_group_name_H-M    P1
_symmetry_Int_Tables_number       1
_space_group_crystal_system       triclinic
_cell_length_a                    22.239368
_cell_length_b                    22.236713
_cell_length_c                    14.910268
_cell_angle_alpha                 89.977385
_cell_angle_beta                  89.941437
_cell_angle_gamma                 90.000654
_cell_volume                      7373.57702044

loop_
_atom_site_label
_atom_site_type_symbol
_atom_type_description
_atom_site_fract_x
_atom_site_fract_y
_atom_site_fract_z
_atom_type_partial_charge
C1    C     C_R   0.418775 0.918797 0.500005 0.910899
C2    C     C_R   0.581225 0.081202 0.499995 0.910853
C3    C     C_R   0.581221 0.918793 0.500019 0.910836
C4    C     C_R   0.418777 0.081206 0.499981 0.910847
C5    C     C_R   0.918775 0.418797 0.500005 0.910855
C6    C     C_R   0.081225 0.581203 0.499995 0.910896
C7    C     C_R   0.081223 0.418794 0.500019 0.910847
C8    C     C_R   0.918779 0.581208 0.499980 0.910835
C9    C     C_1   0.336874 0.162974 0.499757 0.166612
C10   C     C_1   0.663122 0.837022 0.500256 0.166611
C11   C     C_1   0.663142 0.162958 0.500148 0.166503
C12   C     C_1   0.336859 0.837042 0.499855 0.166504
C13   C     C_1   0.836889 0.662990 0.499735 0.166619
C14   C     C_1   0.163125 0.337025 0.500245 0.166614
C15   C     C_1   0.163136 0.662963 0.500146 0.166509
C16   C     C_1   0.836864 0.337036 0.499851 0.166504
C17   C     C_1   0.500108 0.000015 0.189710 0.049519
C18   C     C_1   0.499892 0.999991 0.810291 0.049546
C19   C     C_1   0.000109 0.500008 0.189709 0.049547
C20   C     C_1   0.999892 0.499985 0.810290 0.049521
C21   C     C_3   0.442572 0.000005 0.970612 0.093434
C22   C     C_3   0.557428 0.000009 0.029392 0.093456
C23   C     C_3   0.471347 0.950300 0.029841 0.080210
C24   C     C_3   0.528652 0.049713 0.970163 0.080204
C25   C     C_3   0.942572 0.499987 0.970611 0.093454
C26   C     C_3   0.057430 0.499997 0.029386 0.093438
C27   C     C_3   0.971352 0.450284 0.029838 0.080209
C28   C     C_3   0.028651 0.549700 0.970159 0.080212
C29   C     C_3   0.700058 0.727908 0.538183 0.373870
C30   C     C_3   0.299869 0.272003 0.461462 0.374016
C31   C     C_3   0.299737 0.728192 0.460880 0.374277
C32   C     C_3   0.700259 0.271812 0.539100 0.374286
C33   C     C_3   0.200129 0.227995 0.538541 0.374011
C34   C     C_3   0.799957 0.772108 0.461801 0.373886
C35   C     C_3   0.799749 0.228180 0.460899 0.374288
C36   C     C_3   0.200256 0.771814 0.539122 0.374223
C37   C     C_3   0.230066 0.202387 0.453539 0.372391
C38   C     C_3   0.769835 0.797516 0.546794 0.372515
C39   C     C_3   0.770100 0.202181 0.545891 0.372130
C40   C     C_3   0.229896 0.797825 0.454130 0.372086
C41   C     C_3   0.730180 0.702499 0.453191 0.372514
C42   C     C_3   0.269932 0.297612 0.546464 0.372400
C43   C     C_3   0.270098 0.702182 0.545872 0.372149
C44   C     C_3   0.729908 0.297811 0.454108 0.372125
C45   C     C_1   0.374441 0.125458 0.499884 -0.096357
C46   C     C_1   0.625555 0.874537 0.500122 -0.096401
C47   C     C_1   0.625570 0.125447 0.500039 -0.096305
C48   C     C_1   0.374430 0.874553 0.499962 -0.096255
C49   C     C_1   0.874451 0.625469 0.499875 -0.096416
C50   C     C_1   0.125559 0.374541 0.500116 -0.096359
C51   C     C_1   0.125567 0.625450 0.500038 -0.096256
C52   C     C_1   0.874433 0.374550 0.499961 -0.096307
C53   C     C_3   0.261743 0.233755 0.585638 -0.162809
C54   C     C_3   0.738445 0.766447 0.414381 -0.162761
C55   C     C_3   0.737978 0.234134 0.414311 -0.162871
C56   C     C_3   0.262032 0.765853 0.585692 -0.162865
C57   C     C_3   0.761570 0.733568 0.585603 -0.162775
C58   C     C_3   0.238256 0.266244 0.414365 -0.162812
C59   C     C_3   0.237961 0.734154 0.414310 -0.162869
C60   C     C_3   0.762030 0.265858 0.585688 -0.162871
C61   C     C_3   0.291507 0.208356 0.500024 -0.234696
C62   C     C_3   0.708494 0.791644 0.499986 -0.234703
C63   C     C_3   0.708504 0.208344 0.499914 -0.234693
C64   C     C_3   0.291496 0.791655 0.500089 -0.234688
C65   C     C_3   0.791521 0.708371 0.499999 -0.234696
C66   C     C_3   0.208491 0.291642 0.499979 -0.234693
C67   C     C_3   0.208496 0.708352 0.499913 -0.234683
C68   C     C_3   0.791503 0.291648 0.500085 -0.234693
C69   C     C_3   0.471352 0.049728 0.029742 0.080212
C70   C     C_3   0.528647 0.950285 0.970263 0.080202
C71   C     C_3   0.971351 0.549712 0.029739 0.080201
C72   C     C_3   0.028651 0.450273 0.970257 0.080211
C73   C     C_3   0.500133 0.000023 0.089154 -0.087522
C74   C     C_3   0.499867 0.999989 0.910849 -0.087524
C75   C     C_3   0.000135 0.500010 0.089152 -0.087528
C76   C     C_3   0.999866 0.499976 0.910847 -0.087524
N1    N     N_1   0.500020 1.000000 0.268010 -0.080237
N2    N     N_1   0.499980 0.000000 0.731990 -0.080236
N3    N     N_1   0.000020 0.500000 0.268010 -0.080236
N4    N     N_1   0.999980 0.500000 0.731990 -0.080237
O1    O     O_R   0.438390 0.938390 0.574460 -0.624203
O2    O     O_R   0.561610 0.061610 0.425540 -0.624205
O3    O     O_R   0.561610 0.938390 0.425540 -0.624095
O4    O     O_R   0.438390 0.061610 0.574460 -0.624106
O5    O     O_R   0.938390 0.438390 0.574460 -0.624204
O6    O     O_R   0.061610 0.561610 0.425540 -0.624201
O7    O     O_R   0.061610 0.438390 0.425540 -0.624105
O8    O     O_R   0.938390 0.561610 0.574460 -0.624093
O9    O     O_R   0.438400 0.938390 0.425520 -0.588630
O10   O     O_R   0.561600 0.061610 0.574480 -0.588634
O11   O     O_R   0.561600 0.938390 0.574480 -0.588729
O12   O     O_R   0.438400 0.061610 0.425520 -0.588726
O13   O     O_R   0.938400 0.438390 0.425520 -0.588634
O14   O     O_R   0.061600 0.561610 0.574480 -0.588631
O15   O     O_R   0.061600 0.438390 0.574480 -0.588727
O16   O     O_R   0.938400 0.561610 0.425520 -0.588728
Zn1   Zn    Zn3+2 0.500000 1.000000 0.599450 1.016613
Zn2   Zn    Zn3+2 0.500000 0.000000 0.400550 1.016613
Zn3   Zn    Zn3+2 1.000000 0.500000 0.599450 1.016612
Zn4   Zn    Zn3+2 0.000000 0.500000 0.400550 1.016613
C77   C     C_3   0.559505 0.896584 0.924593 -0.393558
C78   C     C_3   0.586298 0.851122 0.990766 -0.379774
C79   C     C_3   0.617710 0.800069 0.940830 -0.817787
H1    H     H_    0.585372 0.776239 0.896600 0.281004
H2    H     H_    0.655298 0.817981 0.899575 0.269215
H3    H     H_    0.636246 0.767330 0.989745 0.247211
H4    H     H_    0.619616 0.873241 0.034948 0.229663
H5    H     H_    0.550425 0.831622 0.033400 0.232893
H6    H     H_    0.526155 0.873653 0.881058 0.205526
H7    H     H_    0.595469 0.913956 0.879851 0.213201
C80   C     C_3   0.440501 0.103421 0.075442 -0.393502
C81   C     C_3   0.413697 0.148899 0.009304 -0.380030
C82   C     C_3   0.382307 0.199945 0.059290 -0.817382
H8    H     H_    0.344730 0.182028 0.100562 0.269129
H9    H     H_    0.414662 0.223759 0.103510 0.281076
H10   H     H_    0.363760 0.232701 0.010410 0.247243
H11   H     H_    0.449561 0.168402 0.966657 0.232871
H12   H     H_    0.380363 0.126792 0.965133 0.229689
H13   H     H_    0.404545 0.086042 0.120189 0.213143
H14   H     H_    0.473858 0.126343 0.118976 0.205557
C83   C     C_3   0.059504 0.396581 0.924556 -0.393501
C84   C     C_3   0.086312 0.351103 0.990692 -0.380015
C85   C     C_3   0.117704 0.300059 0.940703 -0.817373
H15   H     H_    0.085349 0.276245 0.896479 0.281073
H16   H     H_    0.155281 0.317979 0.899431 0.269127
H17   H     H_    0.136252 0.267302 0.989580 0.247240
H18   H     H_    0.119646 0.373210 0.034863 0.229686
H19   H     H_    0.050449 0.331597 0.033340 0.232865
H20   H     H_    0.026148 0.373657 0.881022 0.205557
H21   H     H_    0.095460 0.413962 0.879808 0.213144
C86   C     C_3   0.940494 0.603413 0.075411 -0.393558
C87   C     C_3   0.913692 0.648872 0.009241 -0.379763
C88   C     C_3   0.882293 0.699931 0.059182 -0.817738
H22   H     H_    0.844710 0.682025 0.100457 0.269213
H23   H     H_    0.914641 0.723763 0.103394 0.280996
H24   H     H_    0.863750 0.732668 0.010268 0.247212
H25   H     H_    0.949558 0.668366 0.966587 0.232885
H26   H     H_    0.880362 0.626752 0.965077 0.229667
H27   H     H_    0.904536 0.586041 0.120162 0.213195
H28   H     H_    0.973847 0.626348 0.118938 0.205527
S1    S     S_3+6 0.206446 0.136253 0.395296 0.076527
O17   O     O_2   0.256240 0.114684 0.335155 -0.324408
O18   O     O_2   0.191484 0.087875 0.462069 -0.185619
O19   O     O_3   0.145302 0.152261 0.333565 -0.525602
H29   H     H_    0.135643 0.114370 0.301794 0.391393
S2    S     S_3+6 0.793319 0.863518 0.605496 0.076345
O20   O     O_2   0.808434 0.912048 0.539046 -0.185762
O21   O     O_2   0.743385 0.884952 0.665490 -0.324477
O22   O     O_3   0.854319 0.847379 0.667469 -0.525842
H30   H     H_    0.863993 0.885245 0.699294 0.391377
S3    S     S_3+6 0.793932 0.135791 0.603360 0.076872
O23   O     O_2   0.744348 0.113928 0.663675 -0.323753
O24   O     O_2   0.808683 0.087729 0.536035 -0.185968
O25   O     O_3   0.855277 0.151541 0.664772 -0.525380
H31   H     H_    0.865247 0.113420 0.695748 0.391889
S4    S     S_3+6 0.206054 0.864223 0.396687 0.076876
O26   O     O_2   0.191280 0.912265 0.464033 -0.185950
O27   O     O_2   0.255638 0.886116 0.336397 -0.323634
O28   O     O_3   0.144721 0.848472 0.335246 -0.525485
H32   H     H_    0.134678 0.886628 0.304421 0.391902
S5    S     S_3+6 0.706696 0.636499 0.394485 0.076366
O29   O     O_2   0.756629 0.615072 0.334486 -0.324640
O30   O     O_2   0.691584 0.587964 0.460928 -0.185592
O31   O     O_3   0.645693 0.652643 0.332521 -0.525779
H33   H     H_    0.636124 0.614831 0.300481 0.391275
S6    S     S_3+6 0.293553 0.363745 0.604707 0.076520
O32   O     O_2   0.308510 0.412124 0.537935 -0.185627
O33   O     O_2   0.243760 0.385312 0.664853 -0.324411
O34   O     O_3   0.354699 0.347739 0.666433 -0.525602
H34   H     H_    0.364360 0.385631 0.698198 0.391394
S7    S     S_3+6 0.293938 0.635783 0.603311 0.076846
O35   O     O_2   0.244366 0.613912 0.663642 -0.323669
O36   O     O_2   0.308674 0.587730 0.535965 -0.185964
O37   O     O_3   0.355296 0.651521 0.664703 -0.525468
H35   H     H_    0.365343 0.613363 0.695518 0.391903
S8    S     S_3+6 0.706075 0.364200 0.396639 0.076875
O38   O     O_2   0.691323 0.412263 0.463964 -0.185961
O39   O     O_2   0.755660 0.386064 0.336324 -0.323761
O40   O     O_3   0.644731 0.348450 0.335226 -0.525377
H36   H     H_    0.634761 0.386570 0.304249 0.391895
S9    S     S_3+6 0.631028 0.701641 0.585572 0.075973
O41   O     O_2   0.606426 0.748086 0.648954 -0.330214
O42   O     O_2   0.586319 0.690839 0.511827 -0.184261
O43   O     O_3   0.643627 0.637130 0.641262 -0.524679
H37   H     H_    0.604052 0.625768 0.666654 0.394761
S10   S     S_3+6 0.368801 0.298150 0.413608 0.075791
O44   O     O_2   0.413659 0.309155 0.487083 -0.184117
O45   O     O_2   0.393278 0.251537 0.350393 -0.330524
O46   O     O_3   0.356078 0.362509 0.357595 -0.524888
H38   H     H_    0.395579 0.373761 0.331845 0.394591
S11   S     S_3+6 0.368510 0.702291 0.412263 0.075522
O47   O     O_2   0.392742 0.749204 0.349276 -0.331140
O48   O     O_2   0.413634 0.690970 0.485280 -0.183801
O49   O     O_3   0.355609 0.638182 0.355782 -0.525210
H39   H     H_    0.394916 0.627313 0.329040 0.394110
S12   S     S_3+6 0.631482 0.297723 0.587693 0.075483
O50   O     O_2   0.586376 0.309061 0.514657 -0.183833
O51   O     O_2   0.607226 0.250810 0.650659 -0.331103
O52   O     O_3   0.644385 0.361822 0.644195 -0.525330
H40   H     H_    0.605052 0.372750 0.670797 0.394110
S13   S     S_3+6 0.131198 0.201848 0.586396 0.075794
O53   O     O_2   0.106720 0.248462 0.649609 -0.330533
O54   O     O_2   0.086340 0.190842 0.512921 -0.184105
O55   O     O_3   0.143922 0.137491 0.642412 -0.524889
H41   H     H_    0.104423 0.126245 0.668176 0.394582
S14   S     S_3+6 0.868987 0.798373 0.414412 0.075953
O56   O     O_2   0.913694 0.809180 0.488158 -0.184372
O57   O     O_2   0.893592 0.751925 0.351037 -0.330158
O58   O     O_3   0.856389 0.862880 0.358713 -0.524694
H42   H     H_    0.895974 0.874267 0.333381 0.394786
S15   S     S_3+6 0.868527 0.202270 0.412307 0.075483
O59   O     O_2   0.892783 0.249184 0.349341 -0.331108
O60   O     O_2   0.913632 0.190932 0.485343 -0.183827
O61   O     O_3   0.855624 0.138171 0.355804 -0.525330
H43   H     H_    0.894955 0.127247 0.329194 0.394105
S16   S     S_3+6 0.131483 0.797717 0.587741 0.075540
O62   O     O_2   0.086371 0.809075 0.514721 -0.183809
O63   O     O_2   0.107231 0.750790 0.650687 -0.331095
O64   O     O_3   0.144394 0.861803 0.644275 -0.525241
H44   H     H_    0.105081 0.872683 0.670989 0.394115
C89   C     C_3   0.719604 0.790614 0.322087 -0.305645
C90   C     C_3   0.753206 0.761288 0.243760 -0.259696
C91   C     C_3   0.731908 0.786958 0.154263 -0.915057
H45   H     H_    0.682952 0.778980 0.145630 0.270840
H46   H     H_    0.740911 0.836057 0.151081 0.270765
H47   H     H_    0.756246 0.764659 0.098367 0.258104
H48   H     H_    0.802140 0.769458 0.249865 0.276654
H49   H     H_    0.745245 0.712145 0.243492 0.274973
H50   H     H_    0.670527 0.782924 0.313966 0.228216
H51   H     H_    0.727739 0.839926 0.320947 0.226112
C92   C     C_3   0.280765 0.209795 0.677965 -0.305623
C93   C     C_3   0.247333 0.239320 0.756285 -0.259675
C94   C     C_3   0.268758 0.213810 0.845813 -0.915390
H52   H     H_    0.259697 0.164729 0.849260 0.270809
H53   H     H_    0.317740 0.221743 0.854207 0.270954
H54   H     H_    0.244547 0.236259 0.901696 0.258005
H55   H     H_    0.255352 0.288453 0.756296 0.275033
H56   H     H_    0.198379 0.231196 0.750411 0.276602
H57   H     H_    0.272612 0.160489 0.679396 0.226124
H58   H     H_    0.329861 0.217485 0.685824 0.228230
C95   C     C_3   0.281364 0.789377 0.678090 -0.305515
C96   C     C_3   0.248146 0.759519 0.756363 -0.259680
C97   C     C_3   0.269918 0.784541 0.845975 -0.915900
H59   H     H_    0.318910 0.776456 0.853930 0.271322
H60   H     H_    0.260980 0.833625 0.849969 0.270692
H61   H     H_    0.245837 0.761869 0.901810 0.257822
H62   H     H_    0.199187 0.767763 0.750945 0.276369
H63   H     H_    0.256071 0.710371 0.755822 0.275281
H64   H     H_    0.330478 0.781610 0.685534 0.228460
H65   H     H_    0.273255 0.838681 0.680021 0.225907
C98   C     C_3   0.718654 0.210598 0.321917 -0.305519
C99   C     C_3   0.751884 0.240439 0.243641 -0.259683
C100  C     C_3   0.730107 0.215413 0.154033 -0.915927
H66   H     H_    0.739031 0.166326 0.150054 0.270673
H67   H     H_    0.681119 0.223512 0.146071 0.271318
H68   H     H_    0.754198 0.238071 0.098196 0.257831
H69   H     H_    0.743973 0.289589 0.244170 0.275242
H70   H     H_    0.800840 0.232181 0.249065 0.276396
H71   H     H_    0.726758 0.161292 0.320005 0.225887
H72   H     H_    0.669542 0.218369 0.314459 0.228465
C101  C     C_3   0.219232 0.290201 0.322037 -0.305625
C102  C     C_3   0.252671 0.260683 0.243720 -0.259674
C103  C     C_3   0.231234 0.286179 0.154191 -0.915394
H73   H     H_    0.182255 0.278224 0.145799 0.270963
H74   H     H_    0.240273 0.335264 0.150736 0.270802
H75   H     H_    0.255454 0.263737 0.098309 0.258006
H76   H     H_    0.301623 0.268824 0.249588 0.276605
H77   H     H_    0.244670 0.211546 0.243717 0.275032
H78   H     H_    0.170138 0.282504 0.314175 0.228247
H79   H     H_    0.227378 0.339508 0.320607 0.226112
C104  C     C_3   0.780412 0.709405 0.677898 -0.305643
C105  C     C_3   0.746801 0.738724 0.756222 -0.259655
C106  C     C_3   0.768121 0.713078 0.845722 -0.915061
H80   H     H_    0.759148 0.663973 0.848917 0.270730
H81   H     H_    0.817072 0.721087 0.854346 0.270875
H82   H     H_    0.743771 0.735368 0.901614 0.258104
H83   H     H_    0.754733 0.787871 0.756475 0.275030
H84   H     H_    0.697871 0.730526 0.750129 0.276623
H85   H     H_    0.772287 0.660091 0.679039 0.226078
H86   H     H_    0.829487 0.717106 0.686022 0.228254
C107  C     C_3   0.781354 0.289394 0.678082 -0.305519
C108  C     C_3   0.748125 0.259553 0.756359 -0.259682
C109  C     C_3   0.769901 0.284581 0.845966 -0.915924
H87   H     H_    0.818890 0.276484 0.853928 0.271317
H88   H     H_    0.760975 0.333667 0.849943 0.270677
H89   H     H_    0.745811 0.261922 0.901804 0.257831
H90   H     H_    0.699169 0.267808 0.750935 0.276398
H91   H     H_    0.756038 0.210403 0.755832 0.275242
H92   H     H_    0.830467 0.281624 0.685539 0.228463
H93   H     H_    0.773249 0.338700 0.679995 0.225888
C110  C     C_3   0.218615 0.710646 0.321910 -0.305515
C111  C     C_3   0.251892 0.740447 0.243643 -0.259658
C112  C     C_3   0.229982 0.715567 0.154018 -0.915912
H94   H     H_    0.238716 0.666450 0.149951 0.270583
H95   H     H_    0.181021 0.723861 0.146117 0.271424
H96   H     H_    0.254134 0.738174 0.098192 0.257821
H97   H     H_    0.244146 0.789623 0.244275 0.275295
H98   H     H_    0.300824 0.732021 0.248987 0.276343
H99   H     H_    0.226655 0.661330 0.319987 0.225748
H100  H     H_    0.169513 0.718481 0.314451 0.228616
C113  C     C_3   0.440501 0.896630 0.075676 -0.393381
C114  C     C_3   0.413604 0.851158 0.009670 -0.380494
C115  C     C_3   0.382448 0.800014 0.059821 -0.816448
H101  H     H_    0.414982 0.776198 0.103774 0.281118
H102  H     H_    0.344985 0.817835 0.101393 0.269098
H103  H     H_    0.363783 0.767283 0.011045 0.247261
H104  H     H_    0.380100 0.873242 0.965736 0.229798
H105  H     H_    0.449381 0.831763 0.966774 0.232755
H106  H     H_    0.473885 0.873701 0.119183 0.205738
H107  H     H_    0.404592 0.914030 0.120470 0.213009
C116  C     C_3   0.559490 0.103388 0.924328 -0.393382
C117  C     C_3   0.586394 0.148856 0.990335 -0.380509
C118  C     C_3   0.617529 0.200013 0.940185 -0.816445
H108  H     H_    0.654985 0.182205 0.898587 0.269112
H109  H     H_    0.584980 0.223831 0.896259 0.281085
H110  H     H_    0.636200 0.232739 0.988964 0.247260
H111  H     H_    0.550623 0.168238 0.033256 0.232758
H112  H     H_    0.619914 0.126772 0.034243 0.229808
H113  H     H_    0.595395 0.085993 0.879521 0.213017
H114  H     H_    0.526099 0.126319 0.880836 0.205718
C119  C     C_3   0.380447 0.999987 0.925739 -0.423104
C120  C     C_3   0.328244 0.000058 0.992950 -0.358017
C121  C     C_3   0.267887 0.999898 0.944411 -0.815706
H115  H     H_    0.263569 0.040568 0.901581 0.260854
H116  H     H_    0.263644 0.959038 0.902016 0.260909
H117  H     H_    0.230812 0.999970 0.994348 0.262746
H118  H     H_    0.330437 0.959769 0.036513 0.236781
H119  H     H_    0.330349 0.040525 0.036106 0.236858
H120  H     H_    0.377103 0.040022 0.881521 0.199934
H121  H     H_    0.377089 0.959882 0.881711 0.199993
C122  C     C_3   0.619551 0.000037 0.074268 -0.423174
C123  C     C_3   0.671755 0.999955 0.007058 -0.357858
C124  C     C_3   0.732112 0.000157 0.055598 -0.815808
H122  H     H_    0.736343 0.041040 0.097947 0.260865
H123  H     H_    0.736441 0.959511 0.098475 0.260762
H124  H     H_    0.769187 0.000070 0.005662 0.262782
H125  H     H_    0.669665 0.959468 0.963942 0.236902
H126  H     H_    0.669549 0.040224 0.963456 0.236772
H127  H     H_    0.622906 0.040150 0.118279 0.199992
H128  H     H_    0.622898 0.960012 0.118506 0.199918
C125  C     C_3   0.940516 0.396607 0.075672 -0.393381
C126  C     C_3   0.913616 0.351136 0.009666 -0.380499
C127  C     C_3   0.882480 0.299979 0.059817 -0.816439
H129  H     H_    0.915027 0.276163 0.103749 0.281083
H130  H     H_    0.845022 0.317788 0.101412 0.269104
H131  H     H_    0.863811 0.267252 0.011039 0.247260
H132  H     H_    0.880098 0.373217 0.965751 0.229797
H133  H     H_    0.949389 0.331753 0.966749 0.232755
H134  H     H_    0.973909 0.373678 0.119165 0.205716
H135  H     H_    0.904610 0.413999 0.120479 0.213018
C128  C     C_3   0.059494 0.603372 0.924320 -0.393405
C129  C     C_3   0.086390 0.648848 0.990323 -0.380453
C130  C     C_3   0.117549 0.699987 0.940165 -0.816403
H136  H     H_    0.155014 0.682163 0.898600 0.269085
H137  H     H_    0.085017 0.723801 0.896204 0.281117
H138  H     H_    0.136212 0.732722 0.988938 0.247264
H139  H     H_    0.050611 0.668247 0.033212 0.232752
H140  H     H_    0.119892 0.626766 0.034264 0.229797
H141  H     H_    0.095403 0.585972 0.879527 0.213011
H142  H     H_    0.026109 0.626298 0.880812 0.205736
C131  C     C_3   0.880446 0.499957 0.925742 -0.423164
C132  C     C_3   0.828245 0.500027 0.992957 -0.357835
C133  C     C_3   0.767886 0.499851 0.944421 -0.815806
H143  H     H_    0.763561 0.540512 0.901573 0.260748
H144  H     H_    0.763646 0.458981 0.902044 0.260873
H145  H     H_    0.730813 0.499928 0.994362 0.262771
H146  H     H_    0.830446 0.459743 0.036531 0.236760
H147  H     H_    0.830344 0.540500 0.036105 0.236892
H148  H     H_    0.877094 0.539986 0.881512 0.199921
H149  H     H_    0.877092 0.459848 0.881722 0.199983
C134  C     C_3   0.119555 0.500018 0.074258 -0.423102
C135  C     C_3   0.171758 0.499949 0.007046 -0.358027
C136  C     C_3   0.232116 0.500113 0.055586 -0.815683
H150  H     H_    0.236357 0.540976 0.097979 0.260907
H151  H     H_    0.236436 0.459445 0.098419 0.260856
H152  H     H_    0.269190 0.500042 0.005649 0.262746
H153  H     H_    0.169656 0.459480 0.963891 0.236858
H154  H     H_    0.169563 0.540238 0.963482 0.236776
H155  H     H_    0.122911 0.540123 0.118285 0.199983
H156  H     H_    0.122902 0.459983 0.118477 0.199934

loop_
_geom_bond_atom_site_label_1
_geom_bond_atom_site_label_2
_ccdc_geom_bond_type
C17   C73   S    
C110  C111  S    
S16   O64   S    
C32   S12   S    
C130  H138  S    
O43   H37   S    
C91   H47   S    
C99   H70   S    
C115  H102  S    
C132  H147  S    
C124  H122  S    
S7    O36   D    
C108  C109  S    
C126  H132  S    
O15   Zn3   S    
C59   C110  S    
C104  C105  S    
C114  H105  S    
C106  H82   S    
C119  H120  S    
C135  C136  S    
C31   C59   S    
C2    O10   A    
C86   H28   S    
C111  H98   S    
S8    O40   S    
C91   H45   S    
C105  C106  S    
C6    O14   A    
C70   C74   S    
C15   C51   T    
C104  H85   S    
O52   H40   S    
O2    Zn2   S    
C111  H97   S    
C27   C75   S    
C130  H137  S    
C130  H136  S    
S9    O42   D    
C20   N4    T    
C121  H115  S    
C131  H149  S    
C98   C99   S    
C95   H64   S    
C136  H152  S    
C83   H20   S    
C126  C127  S    
O19   H29   S    
C85   H17   S    
C77   H7    S    
C113  C114  S    
C23   C113  S    
C98   H72   S    
C38   C57   S    
C115  H101  S    
C4    O4    A    
C18   N2    T    
C116  H114  S    
C24   C116  S    
O13   Zn4   S    
O25   H31   S    
C136  H150  S    
C28   C128  S    
C34   C54   S    
C58   C101  S    
C3    O3    A    
C28   C71   S    
S2    O20   D    
C124  H124  S    
C103  H74   S    
C105  H84   S    
S12   O50   D    
C1    C48   S    
C2    C47   S    
C3    C46   S    
C25   C76   S    
S4    O27   D    
S11   O49   S    
C44   C55   S    
C122  H127  S    
C14   C50   T    
C90   H48   S    
C39   C60   S    
S3    O24   D    
O8    Zn3   S    
C119  C120  S    
C30   C61   S    
C88   H23   S    
C60   C107  S    
C121  H116  S    
S10   O44   D    
C77   H6    S    
C97   H59   S    
C99   C100  S    
C38   C62   S    
C129  H140  S    
C128  C129  S    
C83   H21   S    
C70   C77   S    
C85   H15   S    
C112  H94   S    
C31   C43   S    
C9    C61   S    
S16   O63   D    
C11   C63   S    
C42   C53   S    
C101  C102  S    
C12   C64   S    
C118  H109  S    
C132  C133  S    
C57   C104  S    
C39   S3    S    
C35   C68   S    
C117  C118  S    
C80   H13   S    
C95   C96   S    
C84   H18   S    
O37   H35   S    
C38   S2    S    
C21   C119  S    
C53   C61   S    
C120  H119  S    
O3    Zn2   S    
C55   C63   S    
C89   H51   S    
C56   C64   S    
C25   C71   S    
C94   H52   S    
C101  H78   S    
C5    O5    A    
S8    O39   D    
C108  H90   S    
C109  H89   S    
S6    O33   D    
S13   O54   D    
C23   C70   S    
S12   O52   S    
C33   C66   S    
C26   C75   S    
C4    C45   S    
C32   C44   S    
C134  H155  S    
C135  H153  S    
C123  C124  S    
C102  H76   S    
C43   S7    S    
C54   C89   S    
C96   H63   S    
C21   C69   S    
C92   H58   S    
C8    O8    A    
C89   C90   S    
O5    Zn3   S    
C125  H135  S    
S3    O23   D    
C97   H61   S    
C15   C67   S    
N2    Zn1   S    
O58   H42   S    
C25   C131  S    
C78   H4    S    
C79   H2    S    
C110  H100  S    
C113  H107  S    
C127  H130  S    
N4    Zn3   S    
C93   H55   S    
C133  H145  S    
C117  H112  S    
C128  H142  S    
O7    Zn4   S    
C29   C41   S    
C44   S8    S    
C7    C50   S    
C123  H125  S    
C100  H68   S    
C91   H46   S    
C102  C103  S    
C6    O6    A    
O9    Zn2   S    
C126  H133  S    
C36   S16   S    
C22   C122  S    
O16   Zn4   S    
C106  H81   S    
C120  C121  S    
C78   C79   S    
C94   H54   S    
C86   H27   S    
C71   C86   S    
S15   O61   S    
O55   H41   S    
C43   C67   S    
C109  H87   S    
C82   H9    S    
C22   C70   S    
C9    C45   T    
C77   C78   S    
C41   S5    S    
C72   C83   S    
C26   C72   S    
C11   C47   T    
C12   C48   T    
S5    O29   D    
C103  H73   S    
S9    O41   D    
C37   S1    S    
O4    Zn1   S    
C131  H148  S    
O31   H33   S    
C112  H96   S    
S1    O18   D    
C81   H11   S    
S14   O57   D    
C85   H16   S    
C1    O1    A    
C134  C135  S    
C31   S11   S    
C3    O11   A    
O34   H34   S    
S5    O30   D    
C114  C115  S    
C7    O7    A    
C80   C81   S    
C116  H113  S    
C133  H143  S    
C69   C73   S    
O6    Zn4   S    
O10   Zn1   S    
C107  H93   S    
O49   H39   S    
C10   C62   S    
C99   H69   S    
C115  H103  S    
S2    O21   D    
C132  H146  S    
C124  H123  S    
S7    O37   S    
N3    Zn4   S    
S12   O51   D    
O64   H44   S    
C54   C62   S    
C114  H104  S    
C33   C37   S    
C119  H121  S    
S11   O47   D    
C35   C39   S    
C122  C123  S    
S11   O48   D    
C36   C56   S    
S2    O22   S    
C5    O13   A    
O28   H32   S    
C90   H49   S    
C17   N1    T    
C96   C97   S    
O11   Zn1   S    
C19   N3    T    
C83   C84   S    
C29   S9    S    
C104  H86   S    
C29   C57   S    
C21   C23   S    
C88   H22   S    
C22   C24   S    
S1    O19   S    
C32   C60   S    
S10   O45   D    
C86   C87   S    
C28   C76   S    
S5    O31   S    
C7    O15   A    
C82   H8    S    
S9    O43   S    
C111  C112  S    
S14   O56   D    
C95   H65   S    
C16   C52   T    
C57   C65   S    
S10   O46   S    
C87   H25   S    
O22   H30   S    
C127  H129  S    
C118  H108  S    
C100  H66   S    
C93   C94   S    
C84   H19   S    
O46   H38   S    
O40   H36   S    
C60   C68   S    
C89   H50   S    
C79   H1    S    
C30   C42   S    
C26   C134  S    
C8    C49   S    
C27   C72   S    
C42   S6    S    
C4    O12   A    
C103  H75   S    
C81   H12   S    
S7    O35   D    
C108  H91   S    
C105  H83   S    
C109  H88   S    
S13   O53   D    
C8    O16   A    
C72   C76   S    
C36   C67   S    
O12   Zn2   S    
C13   C65   S    
C125  C126  S    
C34   S14   S    
C135  H154  S    
C30   S10   S    
C56   C95   S    
S4    O26   D    
C102  H77   S    
C122  H128  S    
C20   C76   S    
C92   H57   S    
S3    O25   S    
C35   S15   S    
C125  H134  S    
C58   C66   S    
S15   O59   D    
C87   C88   S    
C97   H60   S    
C10   C46   T    
C88   H24   S    
C5    C52   S    
C78   H5    S    
C16   C68   S    
C6    C51   S    
C110  H99   S    
C37   C58   S    
C82   H10   S    
C59   C67   S    
C113  H106  S    
C18   C74   S    
C40   C59   S    
C129  H139  S    
C129  C130  S    
C93   H56   S    
C133  H144  S    
C23   C73   S    
C34   C65   S    
C81   C82   S    
C128  H141  S    
C24   C69   S    
C33   C53   S    
C35   C55   S    
C36   C40   S    
S16   O62   D    
C123  H126  S    
C100  H67   S    
O61   H43   S    
C118  H110  S    
C41   C65   S    
C116  C117  S    
C107  C108  S    
C21   C74   S    
C80   H14   S    
C98   H71   S    
C120  H118  S    
C106  H80   S    
C14   C66   S    
N1    Zn2   S    
C94   H53   S    
C101  H79   S    
C53   C92   S    
C13   C49   T    
S8    O38   D    
S15   O60   D    
S6    O32   D    
S13   O55   S    
C55   C98   S    
C44   C68   S    
C87   H26   S    
C27   C125  S    
C29   C62   S    
C1    O9    A    
C134  H156  S    
C34   C38   S    
C31   C64   S    
S4    O28   S    
C32   C63   S    
C37   C61   S    
C25   C27   S    
C39   C63   S    
C131  C132  S    
C26   C28   S    
C96   H62   S    
C40   C64   S    
C121  H117  S    
C19   C75   S    
C112  H95   S    
S1    O17   D    
C71   C75   S    
C69   C80   S    
S14   O58   S    
C24   C74   S    
O1    Zn1   S    
O14   Zn3   S    
C30   C58   S    
C33   S13   S    
C136  H151  S    
C79   H3    S    
C90   C91   S    
C41   C54   S    
C2    O2    A    
C43   C56   S    
S6    O34   S    
C127  H131  S    
C92   C93   S    
C42   C66   S    
C117  H111  S    
C40   S4    S    
C22   C73   S    
C84   C85   S    
C107  H92   S    
