data_mof_unit_62272.cif
_audit_creation_date              2013-03-05T16:51:32-0500
_audit_creation_method            fapswitch 2.2
_symmetry_space_group_name_H-M    P1
_symmetry_Int_Tables_number       1
_space_group_crystal_system       triclinic
_cell_length_a                    15.853019
_cell_length_b                    15.115977
_cell_length_c                    10.595383
_cell_angle_alpha                 90.562879
_cell_angle_beta                  90.107759
_cell_angle_gamma                 89.587404
_cell_volume                      2538.82012772

loop_
_atom_site_label
_atom_site_type_symbol
_atom_site_description
_atom_site_fract_x
_atom_site_fract_y
_atom_site_fract_z
_atom_type_partial_charge
O1    O     O_R   0.378020 0.573650 0.500040 -0.601348
O2    O     O_R   0.621980 0.426350 0.499960 -0.601349
O3    O     O_R   0.621980 0.573650 0.499960 -0.591693
O4    O     O_R   0.378020 0.426350 0.500040 -0.591695
C1    C     C_R   0.339029 0.500351 0.499792 0.935188
C2    C     C_R   0.660971 0.499649 0.500208 0.935188
O5    O     O_R   0.499980 0.573650 0.313960 -0.565887
O6    O     O_R   0.500020 0.426350 0.686040 -0.565887
O7    O     O_R   0.500020 0.573650 0.686040 -0.602386
O8    O     O_R   0.499980 0.426350 0.313960 -0.602386
C3    C     C_R   0.498567 0.499530 0.257471 1.020011
C4    C     C_R   0.501432 0.500470 0.742529 1.020012
Zn1   Zn    Zn3+2 0.500000 0.598370 0.500000 1.134737
Zn2   Zn    Zn3+2 0.500000 0.401630 0.500000 1.134736
C5    C     C_1   0.250816 0.501588 0.499715 -0.006768
C6    C     C_1   0.749184 0.498412 0.500286 -0.006769
C7    C     C_R   0.456012 0.952426 0.404637 -0.110562
C8    C     C_R   0.543988 0.047573 0.595363 -0.110562
C9    C     C_R   0.547370 0.953023 0.591444 -0.111051
C10   C     C_R   0.452630 0.046977 0.408556 -0.111051
C11   C     C_R   0.502850 0.904956 0.496774 0.023099
C12   C     C_R   0.497149 0.095044 0.503226 0.023100
C13   C     C_3   0.433551 0.546428 0.040799 0.182245
C14   C     C_3   0.566449 0.453572 0.959201 0.182245
C15   C     C_3   0.505913 0.583361 0.961816 0.219686
C16   C     C_3   0.494087 0.416639 0.038184 0.219686
C17   C     C_3   0.428328 0.463859 0.955081 -0.282643
C18   C     C_3   0.571672 0.536141 0.044919 -0.282644
C19   C     C_3   0.501408 0.501136 0.875873 -0.264099
C20   C     C_3   0.498592 0.498864 0.124127 -0.264099
C21   C     C_1   0.501107 0.806848 0.498797 0.308287
C22   C     C_1   0.498893 0.193152 0.501203 0.308287
N1    N     N_1   0.500000 0.270550 0.500000 -0.047133
N2    N     N_1   0.500000 0.729450 0.500000 -0.047132
C23   C     C_1   0.823934 0.496315 0.500109 0.168352
C24   C     C_1   0.176066 0.503687 0.499891 0.168353
C25   C     C_R   0.955599 0.503496 0.384171 0.200721
C26   C     C_R   0.044401 0.496511 0.615830 0.200716
C27   C     C_R   0.043602 0.509764 0.384667 0.192747
C28   C     C_R   0.956397 0.490241 0.615334 0.192752
C29   C     C_R   0.913057 0.493935 0.499537 -0.193255
C30   C     C_R   0.086943 0.506070 0.500464 -0.193250
C31   C     C_2   0.404290 0.095279 0.309565 0.451819
H1    H     H_    0.401243 0.069165 0.213943 0.092909
O9    O     O_2   0.365702 0.163436 0.334318 -0.494074
C32   C     C_2   0.595710 0.904721 0.690435 0.451819
H2    H     H_    0.598757 0.930835 0.786057 0.092909
O10   O     O_2   0.634298 0.836564 0.665682 -0.494073
C33   C     C_2   0.592847 0.096312 0.694234 0.426462
H3    H     H_    0.651542 0.068993 0.730043 0.089568
O11   O     O_2   0.567406 0.166350 0.738796 -0.485967
C34   C     C_2   0.407152 0.903688 0.305766 0.426463
H4    H     H_    0.348458 0.931007 0.269957 0.089568
O12   O     O_2   0.432594 0.833650 0.261204 -0.485967
C35   C     C_2   0.347046 0.423886 0.910644 0.635937
H5    H     H_    0.302239 0.399949 0.979330 0.125804
O13   O     O_2   0.330487 0.418538 0.798395 -0.543803
C36   C     C_2   0.652954 0.576114 0.089356 0.635939
H6    H     H_    0.697761 0.600051 0.020670 0.125807
O14   O     O_2   0.669513 0.581462 0.201605 -0.543802
N3    N     N_R   0.359519 0.596652 0.082466 0.258059
O15   O     O_R   0.307935 0.629323 0.999198 -0.251604
O16   O     O_R   0.341278 0.603906 0.201683 -0.330088
N4    N     N_R   0.640481 0.403348 0.917534 0.258059
O17   O     O_R   0.692065 0.370677 0.000802 -0.251606
O18   O     O_R   0.658722 0.396094 0.798317 -0.330089
N5    N     N_R   0.514412 0.674354 0.919262 0.234608
O19   O     O_R   0.458287 0.733917 0.949663 -0.284615
O20   O     O_R   0.581206 0.697488 0.857044 -0.354413
N6    N     N_R   0.485588 0.325646 0.080738 0.234607
O21   O     O_R   0.541713 0.266083 0.050336 -0.284616
O22   O     O_R   0.418795 0.302512 0.142956 -0.354413
N7    N     N_R   0.089027 0.516235 0.267661 0.248637
O23   O     O_R   0.146412 0.576432 0.253532 -0.285616
O24   O     O_R   0.072966 0.462034 0.174640 -0.246566
N8    N     N_R   0.910972 0.483775 0.732339 0.248638
O25   O     O_R   0.853588 0.423575 0.746475 -0.285612
O26   O     O_R   0.927029 0.537983 0.825354 -0.246572
N9    N     N_R   0.909365 0.510592 0.267576 0.256213
O27   O     O_R   0.851451 0.453251 0.238602 -0.298023
O28   O     O_R   0.924898 0.574683 0.190059 -0.253499
N10   N     N_R   0.090635 0.489417 0.732426 0.256211
O29   O     O_R   0.148552 0.546757 0.761394 -0.298024
O30   O     O_R   0.075097 0.425334 0.809951 -0.253495

loop_
_geom_bond_atom_site_label_1
_geom_bond_atom_site_label_2
_geom_bond_distance
_ccdc_geom_bond_type
C35   H5    1.084397 S    
C4    C19   1.412777 S    
C17   C19   1.544795 S    
N7    O23   1.301207 A    
C24   C30   1.413091 S    
C15   N5    1.458904 S    
O3    C2    1.274146 A    
Zn2   N1    1.981404 S    
C9    C32   1.491443 S    
C15   C18   1.539390 S    
O5    C3    1.265359 A    
C11   C21   1.483810 S    
C16   C17   1.539391 S    
C12   C22   1.483810 S    
O1    C1    1.272593 A    
C9    C11   1.422178 A    
N8    O26   1.301411 A    
C26   C30   1.406351 A    
C6    C23   1.185209 T    
C17   C35   1.500169 S    
C36   O14   1.219496 D    
C7    C10   1.430038 A    
C8    C9    1.430038 A    
N3    O16   1.299766 A    
O7    Zn1   2.009872 S    
C14   C19   1.535560 S    
C3    C20   1.412777 S    
C33   O11   1.221136 D    
N6    O21   1.299961 A    
C13   C17   1.538970 S    
O3    Zn1   1.966878 S    
C27   N7    1.439373 S    
C14   N4    1.459864 S    
C26   N10   1.439771 S    
C25   C29   1.406351 A    
N7    O24   1.301419 A    
O2    C2    1.272594 A    
C23   C29   1.413089 S    
C7    C34   1.493358 S    
C34   O12   1.221136 D    
C27   C30   1.406460 A    
C15   C19   1.535536 S    
C32   O10   1.220932 D    
N5    O19   1.299961 A    
C13   C20   1.535562 S    
N8    O25   1.301220 A    
O8    Zn2   2.009873 S    
N9    O28   1.301384 A    
C36   H6    1.084397 S    
C7    C11   1.422202 A    
C28   N8    1.439368 S    
N5    O20   1.300219 A    
N4    O18   1.299765 A    
C31   H1    1.084831 S    
C25   N9    1.439768 S    
C13   N3    1.459863 S    
O6    C4    1.265359 A    
C21   N2    1.170402 T    
C31   O9    1.220932 D    
C28   C29   1.406457 A    
C10   C12   1.422178 A    
C16   C20   1.535537 S    
N10   O30   1.301375 A    
C35   O13   1.219496 D    
C16   N6    1.458902 S    
C33   H3    1.084668 S    
O1    Zn1   1.972166 S    
C5    C24   1.185208 T    
C10   C31   1.491443 S    
C34   H4    1.084667 S    
C32   H2    1.084830 S    
O6    Zn2   2.002660 S    
C8    C12   1.422203 A    
C14   C18   1.538970 S    
C14   C16   1.532969 S    
O4    C1    1.274145 A    
C18   C36   1.500170 S    
C22   N1    1.170402 T    
C18   C20   1.544793 S    
Zn1   N2    1.981404 S    
C25   C27   1.399009 A    
N4    O17   1.300400 A    
C26   C28   1.399026 A    
C13   C15   1.532969 S    
O4    Zn2   1.966881 S    
N3    O15   1.300400 A    
O2    Zn2   1.972163 S    
O7    C4    1.262927 A    
C1    C5    1.398441 S    
O8    C3    1.262927 A    
C2    C6    1.398441 S    
N9    O27   1.301392 A    
O5    Zn1   2.002661 S    
N10   O29   1.301402 A    
N6    O22   1.300219 A    
C8    C33   1.493357 S    
