data_mof_unit_36201.cif
_audit_creation_date              2012-12-11T15:17:37-0500
_audit_creation_method            fapswitch 2.2
_symmetry_space_group_name_H-M    P1
_symmetry_Int_Tables_number       1
_space_group_crystal_system       triclinic
_cell_length_a                    6.924264
_cell_length_b                    19.396771
_cell_length_c                    23.244546
_cell_angle_alpha                 90.020832
_cell_angle_beta                  89.910111
_cell_angle_gamma                 89.991057
_cell_volume                      3121.93283876

loop_
_atom_site_label
_atom_site_type_symbol
_atom_type_description
_atom_site_fract_x
_atom_site_fract_y
_atom_site_fract_z
_atom_type_partial_charge
O1    O     O_R   0.620180 0.810610 0.187990 -0.528853
O2    O     O_R   0.379820 0.189390 0.812010 -0.533533
O3    O     O_R   0.379820 0.189390 0.687990 -0.523587
O4    O     O_R   0.620180 0.810610 0.312010 -0.523899
O5    O     O_R   0.120180 0.689390 0.312010 -0.519292
O6    O     O_R   0.879820 0.310610 0.687990 -0.523229
O7    O     O_R   0.879820 0.310610 0.812010 -0.528820
O8    O     O_R   0.120180 0.689390 0.187990 -0.533043
O9    O     O_R   0.290420 0.818570 0.311590 -0.523881
O10   O     O_R   0.709580 0.181430 0.688410 -0.510685
O11   O     O_R   0.709580 0.181430 0.811590 -0.537075
O12   O     O_R   0.290420 0.818570 0.188410 -0.535728
O13   O     O_R   0.790420 0.681430 0.188410 -0.536906
O14   O     O_R   0.209580 0.318570 0.811590 -0.535607
O15   O     O_R   0.209580 0.318570 0.688410 -0.524046
O16   O     O_R   0.790420 0.681430 0.311590 -0.516900
C1    C     C_R   0.458556 0.835053 0.332139 0.827424
C2    C     C_R   0.542028 0.165816 0.667233 0.840046
C3    C     C_R   0.541068 0.167285 0.833500 0.810477
C4    C     C_R   0.459677 0.834976 0.168223 0.802587
C5    C     C_R   0.958886 0.667460 0.166392 0.813629
C6    C     C_R   0.040326 0.334971 0.831772 0.802530
C7    C     C_R   0.041376 0.335011 0.667839 0.829065
C8    C     C_R   0.958006 0.665744 0.332704 0.830772
O17   O     O_3   0.453640 0.707610 0.250000 -0.365142
O18   O     O_3   0.546360 0.292390 0.750000 -0.370619
O19   O     O_3   0.953640 0.792390 0.250000 -0.370742
O20   O     O_3   0.046360 0.207610 0.750000 -0.366078
V1    V     V_3+5 0.178800 0.757860 0.250000 1.701121
V2    V     V_3+5 0.821200 0.242140 0.750000 1.704132
V3    V     V_3+5 0.678800 0.742140 0.250000 1.698923
V4    V     V_3+5 0.321200 0.257860 0.750000 1.696828
C9    C     C_R   0.893092 0.374463 0.574460 0.415115
C10   C     C_R   0.075803 0.637204 0.433366 0.440049
C11   C     C_R   0.007814 0.644205 0.060279 0.430951
C12   C     C_R   0.999612 0.360937 0.936647 0.432503
C13   C     C_R   0.493077 0.144070 0.939651 0.431465
C14   C     C_R   0.500581 0.860860 0.063319 0.433047
C15   C     C_R   0.605868 0.874685 0.425576 0.419832
C16   C     C_R   0.423692 0.137557 0.566510 0.440264
C17   C     C_R   0.031225 0.385027 0.618537 -0.224126
C18   C     C_R   0.959861 0.620186 0.385124 -0.185627
C19   C     C_R   0.969289 0.619145 0.115982 -0.224969
C20   C     C_R   0.027528 0.385278 0.880376 -0.220824
C21   C     C_R   0.530506 0.118946 0.883883 -0.224486
C22   C     C_R   0.472525 0.885247 0.119592 -0.220772
C23   C     C_R   0.468384 0.885221 0.381355 -0.224567
C24   C     C_R   0.540372 0.120514 0.614632 -0.242521
C25   C     C_R   0.155302 0.443516 0.615132 -0.122976
C26   C     C_R   0.839136 0.561163 0.388209 -0.097636
C27   C     C_R   0.936510 0.548129 0.123147 -0.076520
C28   C     C_R   0.035962 0.456961 0.870252 -0.099293
C29   C     C_R   0.561272 0.047820 0.876577 -0.076391
C30   C     C_R   0.464225 0.956953 0.129681 -0.099534
C31   C     C_R   0.344326 0.943770 0.384603 -0.123390
C32   C     C_R   0.661367 0.061525 0.611352 -0.058075
C33   C     C_R   0.114729 0.497328 0.574924 -0.045272
C34   C     C_R   0.833672 0.519961 0.438689 -0.055515
C35   C     C_R   0.978782 0.501032 0.077942 -0.035218
C36   C     C_R   0.006602 0.504859 0.916532 -0.032438
C37   C     C_R   0.519667 0.000801 0.921899 -0.035182
C38   C     C_R   0.493821 0.004778 0.083380 -0.032404
C39   C     C_R   0.384564 0.997708 0.424790 -0.040434
C40   C     C_R   0.668233 0.020962 0.560525 -0.025515
C41   C     C_R   0.984337 0.484240 0.529337 0.000094
C42   C     C_R   0.964154 0.533199 0.483925 0.026847
C43   C     C_R   0.994198 0.526559 0.021070 -0.023959
C44   C     C_R   0.004651 0.479532 0.973909 -0.018535
C45   C     C_R   0.505633 0.026390 0.978812 -0.023817
C46   C     C_R   0.495388 0.979405 0.026000 -0.018663
C47   C     C_R   0.515609 0.984880 0.470240 0.003666
C48   C     C_R   0.536313 0.033950 0.515571 -0.033432
C49   C     C_R   0.880787 0.420875 0.527354 -0.037971
C50   C     C_R   0.071655 0.595458 0.484105 -0.043056
C51   C     C_R   0.994171 0.599062 0.011615 -0.049103
C52   C     C_R   0.009638 0.407092 0.984242 -0.053092
C53   C     C_R   0.506548 0.098905 0.988283 -0.049513
C54   C     C_R   0.490209 0.906954 0.015703 -0.053123
C55   C     C_R   0.618714 0.921477 0.472372 -0.038865
C56   C     C_R   0.427319 0.095869 0.515709 -0.035180
C57   C     C_R   0.195306 0.564835 0.579758 -0.146134
C58   C     C_R   0.707942 0.462423 0.443226 -0.209175
C59   C     C_R   0.009117 0.429600 0.088228 -0.132066
C60   C     C_R   0.972795 0.576766 0.907571 -0.136270
C61   C     C_R   0.488774 0.929361 0.911710 -0.131587
C62   C     C_R   0.528187 0.076650 0.092329 -0.136218
C63   C     C_R   0.302873 0.065062 0.420121 -0.145295
C64   C     C_R   0.794535 0.963610 0.555658 -0.123555
C65   C     C_R   0.167953 0.613937 0.535667 0.380846
C66   C     C_R   0.757456 0.408257 0.479916 0.452599
C67   C     C_R   0.028912 0.383433 0.041720 0.425382
C68   C     C_R   0.970521 0.623288 0.954482 0.421878
C69   C     C_R   0.470218 0.883223 0.958257 0.425144
C70   C     C_R   0.530769 0.123127 0.045418 0.421464
C71   C     C_R   0.329542 0.114141 0.464326 0.417521
C72   C     C_R   0.742225 0.909033 0.519697 0.432661
C73   C     C_2   0.286984 0.588924 0.633792 0.918086
O21   O     O_2   0.453412 0.610066 0.633148 -0.485123
O22   O     O_R   0.180599 0.589312 0.684860 -0.644173
H1    H     H_    0.256565 0.609113 0.718235 0.359416
C74   C     C_2   0.512776 0.462445 0.415409 0.904758
O23   O     O_2   0.448541 0.410418 0.392950 -0.439758
O24   O     O_R   0.399945 0.522169 0.414583 -0.642102
H2    H     H_    0.459576 0.561711 0.436792 0.279633
C75   C     C_2   0.047457 0.403682 0.147321 0.926627
O25   O     O_2   0.953592 0.355525 0.166639 -0.470963
O26   O     O_R   0.191384 0.434618 0.180635 -0.636956
H3    H     H_    0.203621 0.412863 0.220113 0.341024
C76   C     C_2   0.912239 0.603816 0.850641 0.931700
O27   O     O_2   0.765789 0.581623 0.827844 -0.506863
O28   O     O_R   0.020874 0.655382 0.823789 -0.587676
H4    H     H_    0.964605 0.669682 0.785362 0.347463
C77   C     C_2   0.448459 0.903390 0.852744 0.925527
O29   O     O_2   0.542399 0.855454 0.833029 -0.472890
O30   O     O_R   0.302530 0.934012 0.820017 -0.637380
H5    H     H_    0.289001 0.912246 0.780568 0.335153
C78   C     C_2   0.589022 0.103673 0.149257 0.931839
O31   O     O_2   0.735354 0.081348 0.172029 -0.506941
O32   O     O_R   0.480743 0.155344 0.176143 -0.587028
H6    H     H_    0.537091 0.169578 0.214583 0.348486
C79   C     C_2   0.210549 0.089028 0.366156 0.914439
O33   O     O_2   0.043791 0.109851 0.366889 -0.482139
O34   O     O_R   0.316660 0.089610 0.315036 -0.643987
H7    H     H_    0.240229 0.109273 0.281706 0.360237
C80   C     C_2   0.991278 0.964234 0.582246 0.853141
O35   O     O_2   0.074714 0.910609 0.594285 -0.468314
O36   O     O_R   0.084351 0.027148 0.591635 -0.650216
H8    H     H_    0.214046 0.021147 0.611155 0.304532
C81   C     C_2   0.338780 0.445558 0.648305 0.835040
O37   O     O_2   0.337846 0.442986 0.700804 -0.535457
O38   O     O_R   0.513174 0.453953 0.618806 -0.645510
H9    H     H_    0.628014 0.456914 0.645707 0.311335
C82   C     C_2   0.754783 0.531368 0.335273 0.840000
O39   O     O_2   0.625152 0.560883 0.309502 -0.531259
O40   O     O_R   0.811669 0.464781 0.319233 -0.606046
H10   H     H_    0.726582 0.443746 0.288605 0.330917
C83   C     C_2   0.834568 0.524863 0.175049 0.782774
O41   O     O_2   0.901350 0.537874 0.222283 -0.561226
O42   O     O_R   0.660781 0.488837 0.169275 -0.623147
H11   H     H_    0.593383 0.480342 0.207223 0.329874
C84   C     C_2   0.078780 0.480111 0.811002 0.824572
O43   O     O_2   0.220746 0.515886 0.801763 -0.499873
O44   O     O_R   0.954209 0.461768 0.766230 -0.656172
H12   H     H_    0.990176 0.483875 0.728283 0.322007
C85   C     C_2   0.660375 0.024254 0.824268 0.781813
O45   O     O_2   0.590039 0.036356 0.777314 -0.564673
O46   O     O_R   0.835189 0.988705 0.829378 -0.622452
H13   H     H_    0.900004 0.979551 0.791144 0.328295
C86   C     C_2   0.421278 0.980231 0.188904 0.824967
O47   O     O_2   0.279496 0.016153 0.198063 -0.499673
O48   O     O_R   0.545580 0.961895 0.233737 -0.656283
H14   H     H_    0.509692 0.984188 0.271632 0.322006
C87   C     C_2   0.160936 0.945601 0.351392 0.835872
O49   O     O_2   0.162078 0.943079 0.298891 -0.535923
O50   O     O_R   0.986327 0.953609 0.380860 -0.642893
H15   H     H_    0.871523 0.956386 0.353933 0.311270
C88   C     C_2   0.741636 0.030494 0.664422 0.824974
O51   O     O_2   0.866614 0.059962 0.692191 -0.529139
O52   O     O_R   0.685268 0.963306 0.678720 -0.624445
H16   H     H_    0.766461 0.942029 0.710149 0.327419
Cl1   Cl    Cl    0.217632 0.701679 0.552591 -0.358771
Cl2   Cl    Cl    0.701542 0.323772 0.455735 -0.337088
Cl3   Cl    Cl    0.118448 0.299512 0.057103 -0.358691
Cl4   Cl    Cl    0.893946 0.709254 0.940728 -0.365266
Cl5   Cl    Cl    0.381468 0.799158 0.943003 -0.359062
Cl6   Cl    Cl    0.608183 0.209000 0.059179 -0.364482
Cl7   Cl    Cl    0.277003 0.201737 0.447685 -0.357505
Cl8   Cl    Cl    0.788281 0.824588 0.545694 -0.337801
Cl9   Cl    Cl    0.724797 0.305517 0.581246 -0.509703
Cl10  Cl    Cl    0.246795 0.704835 0.425513 -0.511600
Cl11  Cl    Cl    0.085049 0.730995 0.054655 -0.473558
Cl12  Cl    Cl    0.924971 0.273851 0.944271 -0.476036
Cl13  Cl    Cl    0.416703 0.230969 0.945385 -0.472718
Cl14  Cl    Cl    0.575989 0.773843 0.055715 -0.476591
Cl15  Cl    Cl    0.772708 0.805173 0.419534 -0.512930
Cl16  Cl    Cl    0.251242 0.204642 0.574807 -0.485619

loop_
_geom_bond_atom_site_label_1
_geom_bond_atom_site_label_2
_ccdc_geom_bond_type
O17   V3    S    
C64   C72   A    
O18   V4    S    
C74   O23   D    
O12   V1    S    
C46   C54   A    
C11   Cl11  S    
C45   C53   A    
O46   H13   S    
C10   C18   A    
C9    Cl9   S    
C70   Cl6   S    
C47   C55   A    
C73   O21   D    
C25   C33   A    
O40   H10   S    
C8    C18   S    
O16   V3    S    
C83   O42   S    
O11   C3    A    
C88   O51   D    
C28   C36   A    
C66   Cl2   S    
O8    V1    S    
C50   C65   A    
C23   C31   A    
C35   C59   A    
C49   C66   A    
C81   O37   D    
C86   O48   S    
C14   Cl14  S    
O19   V1    S    
C16   C56   A    
C54   C69   A    
C37   C45   A    
O44   H12   S    
C42   C50   A    
C53   C70   A    
O1    V3    S    
C41   C49   A    
C38   C46   A    
O3    C2    A    
O2    V4    S    
C17   C25   A    
C74   O24   S    
C16   C24   A    
C62   C70   A    
C76   O28   S    
C73   O22   S    
C5    C19   S    
C61   C69   A    
C34   C42   A    
C6    C20   S    
O28   H4    S    
O11   V2    S    
O20   V2    S    
C31   C39   A    
O26   H3    S    
C72   Cl8   S    
C7    C17   S    
C87   O50   S    
C11   C19   A    
C10   Cl10  S    
O9    V1    S    
C35   C43   A    
C68   Cl4   S    
O15   C7    A    
C69   Cl5   S    
C88   O52   S    
O7    V2    S    
O12   C4    A    
C67   Cl3   S    
C45   C46   A    
C29   C37   A    
C28   C84   S    
C65   Cl1   S    
C13   Cl13  S    
C85   O46   S    
C85   O45   D    
C30   C86   S    
O5    V1    S    
O17   V1    S    
O10   C2    A    
C12   Cl12  S    
C14   C22   A    
O19   V3    S    
C43   C44   A    
C26   C34   A    
O34   H7    S    
C34   C58   A    
C15   Cl15  S    
O14   V4    S    
C16   Cl16  S    
C14   C54   A    
C13   C53   A    
C59   C75   S    
C63   C71   A    
C84   O44   S    
C15   C55   A    
C64   C80   S    
C32   C88   S    
C75   O26   S    
O10   V2    S    
O52   H16   S    
O20   V4    S    
O48   H14   S    
C11   C51   A    
C22   C30   A    
C29   C85   S    
O8    C5    A    
O13   C5    A    
C56   C71   A    
C79   O33   D    
C39   C47   A    
C37   C61   A    
C51   C68   A    
C18   C26   A    
O15   V4    S    
O4    C1    A    
C27   C83   S    
C9    C49   A    
O6    V2    S    
C10   C50   A    
O38   H9    S    
O18   V2    S    
C63   C79   S    
C84   O43   D    
C80   O35   D    
C33   C57   A    
C12   C20   A    
C27   C35   A    
C41   C42   A    
C13   C21   A    
O36   H8    S    
O24   H2    S    
C59   C67   A    
C38   C62   A    
C15   C23   A    
C77   O29   D    
C83   O41   D    
O9    C1    A    
C24   C32   A    
O1    C4    A    
C39   C63   A    
O2    C3    A    
O13   V3    S    
C1    C23   S    
C33   C41   A    
C26   C82   S    
C2    C24   S    
O42   H11   S    
C3    C21   S    
C55   C72   A    
C44   C52   A    
O7    C6    A    
C30   C38   A    
C75   O25   D    
C60   C76   S    
C58   C66   A    
O22   H1    S    
C9    C17   A    
O14   C6    A    
C78   O32   S    
C57   C65   A    
C47   C48   A    
C48   C56   A    
C86   O47   D    
C36   C60   A    
C20   C28   A    
C32   C40   A    
C82   O39   D    
O5    C8    A    
C57   C73   S    
C19   C27   A    
C25   C81   S    
O6    C7    A    
C61   C77   S    
C58   C74   S    
C62   C78   S    
C71   Cl7   S    
C40   C48   A    
O3    V4    S    
C4    C22   S    
C79   O34   S    
O4    V3    S    
C52   C67   A    
C21   C29   A    
C12   C52   A    
C43   C51   A    
C36   C44   A    
O16   C8    A    
O32   H6    S    
C76   O27   D    
O50   H15   S    
C80   O36   S    
C82   O40   S    
C60   C68   A    
C81   O38   S    
C87   O49   D    
C78   O31   D    
C40   C64   A    
C31   C87   S    
O30   H5    S    
C77   O30   S    
