data_mof_unit_39207.cif
_audit_creation_date              2012-12-11T21:15:12-0500
_audit_creation_method            fapswitch 2.2
_symmetry_space_group_name_H-M    P1
_symmetry_Int_Tables_number       1
_space_group_crystal_system       triclinic
_cell_length_a                    8.293846
_cell_length_b                    18.789854
_cell_length_c                    26.963226
_cell_angle_alpha                 99.306998
_cell_angle_beta                  92.928649
_cell_angle_gamma                 88.033757
_cell_volume                      4139.77627026

loop_
_atom_site_label
_atom_site_type_symbol
_atom_type_description
_atom_site_fract_x
_atom_site_fract_y
_atom_site_fract_z
_atom_type_partial_charge
Ba1   Ba    Ba6+2 0.160810 0.465630 0.521640 1.750714
Ba2   Ba    Ba6+2 0.649380 0.534380 0.478400 1.778620
C1    C     C_3   0.388677 0.288239 0.703146 -0.205426
C2    C     C_R   0.046139 0.089878 0.442309 0.041988
C3    C     C_R   0.168287 0.060717 0.410398 -0.044058
C4    C     C_3   0.952210 0.270918 0.623347 0.339272
C5    C     C_R   0.232130 0.991226 0.411984 -0.084585
C6    C     C_R   0.168386 0.947785 0.443506 0.047889
C7    C     C_R   0.036122 0.973990 0.472491 0.023988
C8    C     C_R   0.233320 0.878341 0.445675 -0.072640
C9    C     C_R   0.161398 0.831746 0.473747 -0.022155
C10   C     C_R   0.023680 0.856982 0.501369 0.057798
C11   C     C_R   0.964536 0.928857 0.501674 0.042049
C12   C     C_3   0.423922 0.307039 0.651807 0.284122
C13   C     C_R   0.221243 0.760346 0.474755 0.005755
C14   C     C_R   0.132989 0.713369 0.497410 -0.200545
C15   C     C_R   0.994408 0.736273 0.523329 0.028717
C16   C     C_3   0.993046 0.195534 0.635730 -0.215621
C17   C     C_R   0.948531 0.811323 0.530065 -0.055460
C18   C     C_R   0.845195 0.072490 0.501530 0.008991
C19   C     C_R   0.790334 0.145359 0.503323 -0.009934
C20   C     C_R   0.870892 0.192144 0.476666 -0.081246
C21   C     C_R   0.994221 0.162437 0.444755 0.014711
C22   C     C_R   0.837837 0.843489 0.566169 -0.035955
C23   C     C_3   0.435545 0.306963 0.379785 0.619023
C24   C     C_R   0.763559 0.911469 0.561281 0.009338
C25   C     C_R   0.830818 0.955040 0.529977 0.019093
C26   C     C_R   0.770001 0.026549 0.529320 0.016620
C27   C     C_R   0.628166 0.938716 0.588571 -0.043613
C28   C     C_3   0.863671 0.610822 0.629927 0.441428
C29   C     C_R   0.563230 0.007498 0.585758 -0.077327
C30   C     C_R   0.635251 0.052413 0.557158 0.053968
C31   C     C_R   0.653299 0.170719 0.531122 -0.100180
C32   C     C_R   0.575201 0.122955 0.556687 -0.082022
C33   C     C_R   0.597945 0.242956 0.532153 0.028437
C34   C     C_3   0.378817 0.230315 0.357924 -0.152809
C35   C     C_R   0.690766 0.290894 0.511339 0.130371
C36   C     C_R   0.824991 0.266829 0.482920 0.033361
C37   C     C_R   0.296268 0.462349 0.178531 0.600032
C38   C     C_R   0.183975 0.581662 0.178403 0.592070
C39   C     C_2   0.028956 0.536394 0.270164 -0.120773
C40   C     C_3   0.877931 0.624327 0.687345 0.226489
C41   C     C_3   0.987776 0.525530 0.322583 0.003935
C42   C     C_1   0.275117 0.503449 0.339373 -0.010330
C43   C     C_2   0.314056 0.512796 0.293932 -0.142880
C44   C     C_2   0.183765 0.527165 0.255794 0.198355
C45   C     C_3   0.833529 0.727374 0.381456 0.471353
C46   C     C_R   0.303235 0.517009 0.102488 -0.079010
C47   C     C_R   0.338323 0.458226 0.128110 -0.039454
C48   C     C_R   0.415569 0.396464 0.102977 -0.044583
C49   C     C_R   0.225594 0.579183 0.127923 -0.033262
C50   C     C_2   0.136038 0.529252 0.357880 0.086970
C51   C     C_2   0.643213 0.471980 0.639970 -0.307819
C52   C     C_3   0.978126 0.373078 0.366936 0.250131
C53   C     C_R   0.451612 0.444133 0.973997 0.021207
C54   C     C_R   0.362592 0.571088 0.975902 0.019815
C55   C     C_R   0.427993 0.505659 0.949657 0.057223
C56   C     C_3   0.802579 0.802485 0.367669 0.616340
C57   C     C_R   0.507190 0.379018 0.945340 -0.093239
C58   C     C_R   0.544867 0.375303 0.895431 -0.040435
C59   C     C_R   0.528855 0.436229 0.871618 -0.048701
C60   C     C_R   0.470122 0.501529 0.898470 -0.080239
C61   C     C_R   0.453585 0.562518 0.874147 -0.032845
C62   C     C_R   0.498381 0.557574 0.823622 0.608255
C63   C     C_R   0.569264 0.432378 0.821175 0.654411
C64   C     C_3   0.003266 0.348346 0.310849 -0.226906
C65   C     C_2   0.736275 0.453757 0.728075 0.383231
C66   C     C_3   0.749230 0.428295 0.671693 -0.128749
C67   C     C_3   0.307849 0.715896 0.355295 0.249657
C68   C     C_1   0.516996 0.510628 0.658954 -0.023010
C69   C     C_2   0.478052 0.512903 0.706506 -0.208505
C70   C     C_2   0.596117 0.487048 0.744576 0.209341
C71   C     C_R   0.417541 0.449149 0.025720 0.019003
C72   C     C_R   0.345168 0.513395 0.051338 0.053181
C73   C     C_R   0.314182 0.573935 0.026356 0.020640
C74   C     C_R   0.454729 0.391983 0.053076 -0.093843
C75   C     C_R   0.190999 0.637562 0.102390 -0.054011
C76   C     C_3   0.457825 0.698519 0.644224 0.240610
C77   C     C_R   0.348891 0.631589 0.950550 -0.093060
C78   C     C_3   0.327858 0.733097 0.302898 -0.299640
C79   C     C_R   0.393734 0.627321 0.900972 -0.041553
C80   C     C_R   0.234408 0.635190 0.052886 -0.094270
C81   C     C_3   0.454811 0.703564 0.701471 -0.363390
C82   C     C_2   0.845722 0.335518 0.281380 0.969137
C83   C     C_2   0.414987 0.770784 0.628916 0.967521
C84   C     C_2   0.392542 0.212797 0.301192 0.971760
C85   C     C_2   0.469111 0.174388 0.383851 0.792764
C86   C     C_2   0.476858 0.220547 0.713001 0.933852
C87   C     C_2   0.857539 0.823913 0.617397 0.877926
C88   C     C_2   0.921017 0.184111 0.683634 0.915716
C89   C     C_R   0.976211 0.045613 0.472350 0.000731
H1    H     H_    0.372892 0.362159 0.650158 0.070185
H2    H     H_    0.330248 0.715380 0.714359 0.192758
H3    H     H_    0.535430 0.746683 0.720505 0.146971
H4    H     H_    0.499295 0.652527 0.713035 0.094062
H5    H     H_    0.556663 0.306603 0.648016 -0.061028
H6    H     H_    0.422153 0.334328 0.732298 0.076376
H7    H     H_    0.390218 0.321018 0.418542 -0.030335
H8    H     H_    0.249450 0.228060 0.366189 -0.103428
H9    H     H_    0.946875 0.154761 0.604144 0.021612
H10   H     H_    0.730939 0.715027 0.402967 0.062472
H11   H     H_    0.945416 0.726886 0.405762 -0.086499
H12   H     H_    0.784289 0.664549 0.701980 0.080268
H13   H     H_    0.700543 0.799539 0.338789 0.025192
H14   H     H_    0.193853 0.742363 0.369414 0.056365
H15   H     H_    0.300744 0.656583 0.352802 0.008183
H16   H     H_    0.218015 0.717506 0.279041 0.160971
H17   H     H_    0.434317 0.702893 0.285920 0.122038
H18   H     H_    0.995729 0.272665 0.585261 0.055726
H19   H     H_    0.344602 0.791884 0.304736 0.125823
H20   H     H_    0.214785 0.091769 0.384199 0.086162
H21   H     H_    0.330244 0.971157 0.388059 0.087512
H22   H     H_    0.175300 0.658080 0.495991 0.065947
H23   H     H_    0.857462 0.574020 0.702363 -0.028509
H24   H     H_    0.338279 0.861017 0.424427 0.105673
H25   H     H_    0.052055 0.195313 0.421881 0.104038
H26   H     H_    0.568181 0.906756 0.611348 0.141464
H27   H     H_    0.457994 0.026073 0.606900 0.100711
H28   H     H_    0.469838 0.140404 0.577684 0.136831
H29   H     H_    0.818808 0.279167 0.622517 -0.094370
H30   H     H_    0.436445 0.501715 0.282072 0.147975
H31   H     H_    0.446731 0.350887 0.121941 0.143327
H32   H     H_    0.587134 0.323874 0.875445 0.145991
H33   H     H_    0.519800 0.328980 0.959937 0.081157
H34   H     H_    0.094241 0.391580 0.385587 0.036652
H35   H     H_    0.517628 0.343095 0.037407 0.082426
H36   H     H_    0.931628 0.543226 0.242712 0.117039
H37   H     H_    0.130008 0.685890 0.120749 0.128871
H38   H     H_    0.306632 0.683895 0.968294 0.078065
H39   H     H_    0.125572 0.186852 0.639318 0.130786
H40   H     H_    0.380824 0.675457 0.883601 0.132327
H41   H     H_    0.359556 0.533222 0.718101 0.133795
H42   H     H_    0.200563 0.682131 0.036153 0.077817
H43   H     H_    0.656179 0.460370 0.599671 0.149370
H44   H     H_    0.744405 0.589562 0.616600 -0.223773
H45   H     H_    0.887633 0.418240 0.372354 0.076568
H46   H     H_    0.955011 0.569746 0.615883 0.077325
H47   H     H_    0.105444 0.609767 0.703951 0.320788
H48   H     H_    0.630223 0.376667 0.259996 0.343004
H49   H     H_    0.334282 0.873659 0.648726 0.317647
H50   H     H_    0.635236 0.347024 0.407167 0.268756
H51   H     H_    0.168658 0.171852 0.288936 0.278915
H52   H     H_    0.488948 0.125391 0.444707 0.305259
H53   H     H_    0.505426 0.112771 0.693693 0.337080
H54   H     H_    0.717128 0.895114 0.399223 0.293069
H55   H     H_    0.910915 0.869570 0.334068 0.303127
H56   H     H_    0.079132 0.298200 0.306166 0.113501
H57   H     H_    0.013648 0.799164 0.672432 0.358623
H58   H     H_    0.574810 0.369647 0.489652 0.291422
H59   H     H_    0.930897 0.401198 0.745774 0.339546
H60   H     H_    0.199269 0.568372 0.425571 0.307696
H61   H     H_    0.910660 0.214370 0.758699 0.351863
H62   H     H_    0.069898 0.388874 0.295142 0.005450
H63   H     H_    0.579370 0.682769 0.631264 0.002673
H64   H     H_    0.258157 0.280669 0.705967 0.140279
N1    N     N_R   0.221714 0.523981 0.203395 -0.421925
N2    N     N_R   0.555277 0.492763 0.797362 -0.413569
O1    O     O_2   0.106080 0.324280 0.466820 -0.472034
O2    O     O_2   0.656189 0.568217 0.332691 -0.484758
O3    O     O_3   0.848760 0.676780 0.337374 -0.646508
O4    O     O_3   0.859130 0.413620 0.470620 -0.439514
O5    O     O_3   0.459240 0.537930 0.559910 -0.442478
O6    O     O_2   0.583120 0.462390 0.379940 -0.447472
O7    O     O_3   0.372819 0.355361 0.348712 -0.653344
O8    O     O_2   0.559390 0.757546 0.478563 -0.433762
O9    O     O_3   0.440292 0.742097 0.386485 -0.619166
O10   O     O_2   0.324098 0.410539 0.200160 -0.579460
O11   O     O_2   0.616891 0.374652 0.798382 -0.547192
O12   O     O_3   0.341770 0.651002 0.620011 -0.601612
O13   O     O_2   0.114976 0.635323 0.200158 -0.598574
O14   O     O_2   0.488370 0.611240 0.803311 -0.598046
O15   O     O_3   0.376230 0.370290 0.556910 -0.449052
O16   O     O_2   0.261489 0.242292 0.519149 -0.457920
O17   O     O_3   0.925742 0.314621 0.387178 -0.609750
O18   O     O_3   0.350261 0.257096 0.613873 -0.605137
O19   O     O_2   0.227190 0.537650 0.620070 -0.456964
O20   O     O_3   0.971110 0.406970 0.583250 -0.463128
O21   O     O_2   0.085234 0.461514 0.675040 -0.509421
O22   O     O_3   0.029538 0.651769 0.704291 -0.693286
O23   O     O_3   0.029471 0.323807 0.658847 -0.585726
O24   O     O_2   0.818721 0.275956 0.257220 -0.510735
O25   O     O_R   0.731842 0.392027 0.280934 -0.765413
O26   O     O_2   0.418933 0.777391 0.584632 -0.623146
O27   O     O_R   0.367387 0.829574 0.664450 -0.733143
O28   O     O_3   0.603774 0.306852 0.380625 -0.706542
O29   O     O_2   0.518299 0.223603 0.282342 -0.456335
O30   O     O_R   0.264520 0.182736 0.269850 -0.702600
O31   O     O_2   0.568029 0.132551 0.361798 -0.574559
O32   O     O_R   0.435932 0.169754 0.433340 -0.778033
O33   O     O_2   0.576070 0.222727 0.748276 -0.553357
O34   O     O_2   0.704230 0.675760 0.533200 -0.447922
O35   O     O_R   0.441429 0.154870 0.682654 -0.752654
O36   O     O_3   0.761229 0.850545 0.410831 -0.750657
O37   O     O_3   0.942292 0.825310 0.348303 -0.737960
O38   O     O_2   0.741719 0.820867 0.643015 -0.627491
O39   O     O_R   0.013217 0.810930 0.637026 -0.733770
O40   O     O_3   0.648518 0.362725 0.518664 -0.721951
O41   O     O_3   0.854295 0.437293 0.762872 -0.679030
O42   O     O_3   0.112584 0.537927 0.408620 -0.720551
O43   O     O_2   0.826678 0.135389 0.683043 -0.594865
O44   O     O_R   0.964997 0.228072 0.728892 -0.720427
O45   O     O_3   0.951180 0.586390 0.529420 -0.476089
O46   O     O_3   0.434080 0.629720 0.443130 -0.495576
O47   O     O_3   0.884284 0.676269 0.612957 -0.605190
O48   O     O_3   0.351080 0.462080 0.440130 -0.465724
O49   O     O_3   0.839200 0.593040 0.416790 -0.445582
P1    P     P_3+3 0.929380 0.335110 0.452880 1.044911
P2    P     P_3+3 0.398530 0.559060 0.613740 1.025603
P3    P     P_3+3 0.958252 0.408690 0.647679 0.954295
P4    P     P_3+3 0.880940 0.664900 0.547160 1.054887
P5    P     P_3+3 0.829763 0.589577 0.351444 1.014744
P6    P     P_3+3 0.397639 0.277173 0.555371 1.004333
P7    P     P_3+3 0.397000 0.445960 0.376371 1.006168
P8    P     P_3+3 0.412632 0.723407 0.446845 0.982746

loop_
_geom_bond_atom_site_label_1
_geom_bond_atom_site_label_2
_ccdc_geom_bond_type
C47   C48   A    
Ba1   O19   S    
C45   H10   S    
C53   C57   A    
C81   H2    S    
C74   H35   S    
C71   C72   A    
C39   H36   S    
O46   P8    S    
Ba2   O45   S    
C65   O41   S    
C14   H22   S    
Ba2   O5    S    
O12   P2    S    
C38   O13   D    
C5    C6    A    
C43   C44   S    
C54   C55   A    
C86   O33   D    
H51   O30   S    
C63   O11   D    
C24   C25   A    
C12   O18   S    
C54   C77   A    
C61   C79   A    
O1    P1    D    
Ba1   O1    S    
C33   C35   A    
C35   C36   A    
C22   C24   A    
C65   C70   D    
C48   C74   A    
C41   C50   S    
C79   H40   S    
C19   C31   A    
H47   O22   S    
C23   O7    S    
C68   P2    S    
C13   C14   A    
C87   O38   D    
C81   H4    S    
C32   H28   S    
O2    P5    D    
C5    H21   S    
Ba1   Ba2   S    
O20   P3    S    
Ba1   P2    S    
C51   C66   S    
C7    C11   A    
C67   O9    S    
C15   C17   A    
C21   H25   S    
C9    C13   A    
C76   C81   S    
C40   H23   S    
C46   C49   A    
O34   P4    D    
C6    C7    A    
C48   H31   S    
C62   N2    Am   
C39   C44   D    
C68   C69   D    
Ba2   O49   S    
C35   O40   S    
H55   O37   S    
C41   P5    S    
H54   O36   S    
C85   O32   S    
C2    C89   A    
C4    O23   S    
C42   C50   D    
C69   H41   S    
O48   P7    S    
C84   O30   S    
C83   O26   D    
C45   H11   S    
C19   C20   A    
C40   H12   S    
C39   C41   S    
C7    C89   A    
O23   P3    S    
C16   H9    S    
O45   P4    S    
C13   P8    S    
C66   P3    S    
Ba1   O45   S    
O49   P5    S    
Ba2   O4    S    
C12   H5    S    
C18   C89   A    
C22   C87   S    
H57   O39   S    
C45   O3    S    
C34   C85   S    
C4    C16   S    
C52   H34   S    
Ba2   P4    S    
C36   P1    S    
Ba2   O46   S    
C42   P7    S    
C16   C88   S    
H60   O42   S    
C55   C60   A    
Ba2   O34   S    
C63   N2    Am   
C15   P4    S    
C72   C73   A    
C4    H29   S    
C2    C21   A    
C67   H14   S    
C14   C15   A    
H53   O35   S    
C43   H30   S    
C87   O39   S    
C27   H26   S    
C56   O37   S    
C76   O12   S    
C70   N2    S    
C65   C66   S    
O21   P3    D    
C58   C59   A    
C64   C82   S    
C30   C32   A    
C58   H32   S    
C3    H20   S    
C33   P6    S    
C49   C75   A    
C29   H27   S    
C60   C61   A    
C46   C72   A    
C88   O43   D    
C1    H6    S    
C38   N1    Am   
C29   C30   A    
C78   H16   S    
C26   C30   A    
C40   O22   S    
C9    C10   A    
C52   H45   S    
C1    H64   S    
C31   C32   A    
H52   O32   S    
C50   O42   S    
H49   O27   S    
O18   P6    S    
C18   C19   A    
H48   O25   S    
C12   H1    S    
C64   H56   S    
C75   H37   S    
C23   O28   S    
O9    P8    S    
C76   C83   S    
C46   C47   A    
C37   C47   A    
Ba1   O5    S    
C84   O29   D    
C83   O27   S    
C53   C55   A    
O17   P1    S    
O7    P7    S    
C71   C74   A    
H61   O44   S    
C16   H39   S    
O16   P6    D    
C56   H13   S    
C78   H19   S    
C28   O47   S    
C42   C43   D    
C3    C5    A    
O4    P1    S    
C57   H33   S    
C86   O35   S    
O3    P5    S    
C82   O24   D    
Ba1   O15   S    
O5    P2    S    
C1    C86   S    
C76   H63   S    
C51   H43   S    
C51   C68   D    
C2    C3    A    
O15   P6    S    
Ba2   O6    S    
C64   H62   S    
C67   H15   S    
C73   C80   A    
C85   O31   D    
C52   C64   S    
C1    C12   S    
C4    H18   S    
C38   C49   A    
C18   C26   A    
C78   H17   S    
C56   O36   S    
C77   C79   A    
C37   N1    Am   
C34   C84   S    
C88   O44   S    
C62   O14   D    
C82   O25   S    
C17   C22   A    
C69   C70   S    
C27   C29   A    
C45   C56   S    
O6    P7    D    
O19   P2    D    
C75   C80   A    
C80   H42   S    
C52   O17   S    
C28   H46   S    
C10   C17   A    
Ba1   O48   S    
C31   C33   A    
C34   H8    S    
C28   C40   S    
C37   O10   D    
C59   C60   A    
Ba1   P1    S    
C81   H3    S    
C8    C9    A    
C23   C34   S    
Ba1   O4    S    
C61   C62   A    
C53   C71   A    
C59   C63   A    
O8    P8    D    
C57   C58   A    
H50   O28   S    
C10   C11   A    
C24   C27   A    
C6    C8    A    
C28   H44   S    
C23   H7    S    
O47   P4    S    
C25   C26   A    
C54   C73   A    
C20   C21   A    
C11   C25   A    
C67   C78   S    
Ba1   O20   S    
C77   H38   S    
H59   O41   S    
C8    H24   S    
H58   O40   S    
Ba2   O48   S    
C44   N1    S    
C20   C36   A    
