data_mof_unit_31244.cif
_audit_creation_date              2012-12-11T17:35:13-0500
_audit_creation_method            fapswitch 2.2
_symmetry_space_group_name_H-M    P1
_symmetry_Int_Tables_number       1
_space_group_crystal_system       triclinic
_cell_length_a                    24.256159
_cell_length_b                    7.160316
_cell_length_c                    22.089531
_cell_angle_alpha                 89.952532
_cell_angle_beta                  99.557376
_cell_angle_gamma                 89.939022
_cell_volume                      3783.29263392

loop_
_atom_site_label
_atom_site_type_symbol
_atom_type_description
_atom_site_fract_x
_atom_site_fract_y
_atom_site_fract_z
_atom_type_partial_charge
O1    O     O_R   0.801940 0.607920 0.199180 -0.542268
O2    O     O_R   0.198060 0.392080 0.800820 -0.541096
O3    O     O_R   0.698060 0.107920 0.300820 -0.542200
O4    O     O_R   0.301940 0.892080 0.699180 -0.541104
O5    O     O_R   0.687840 0.274940 0.181980 -0.537292
O6    O     O_R   0.312160 0.725060 0.818020 -0.541557
O7    O     O_R   0.812160 0.774940 0.318020 -0.541717
O8    O     O_R   0.187840 0.225060 0.681980 -0.542042
C1    C     C_R   0.668351 0.447125 0.165872 0.672362
C2    C     C_R   0.331391 0.552720 0.834431 0.681387
C3    C     C_R   0.831627 0.946884 0.334150 0.669295
C4    C     C_R   0.168610 0.052959 0.665520 0.681581
O9    O     O_R   0.800890 0.278000 0.191820 -0.510961
O10   O     O_R   0.199110 0.722000 0.808180 -0.514541
O11   O     O_R   0.699110 0.778000 0.308180 -0.511052
O12   O     O_R   0.300890 0.222000 0.691820 -0.514444
O13   O     O_R   0.811910 0.110860 0.310720 -0.539725
O14   O     O_R   0.188090 0.889140 0.689280 -0.535255
O15   O     O_R   0.688090 0.610860 0.189280 -0.538475
O16   O     O_R   0.311910 0.389140 0.810720 -0.535177
C5    C     C_R   0.818023 0.446813 0.178303 0.707983
C6    C     C_R   0.182187 0.553326 0.822341 0.698809
C7    C     C_R   0.682041 0.946869 0.321768 0.706786
C8    C     C_R   0.317840 0.053318 0.677690 0.699078
O17   O     O_3   0.753490 0.442410 0.289000 -0.369447
O18   O     O_3   0.246510 0.557590 0.711000 -0.376014
O19   O     O_3   0.746510 0.942410 0.211000 -0.366867
O20   O     O_3   0.253490 0.057590 0.789000 -0.375798
V1    V     V_3+5 0.749350 0.166330 0.242770 1.448735
V2    V     V_3+5 0.250650 0.833670 0.757230 1.417723
V3    V     V_3+5 0.750650 0.666330 0.257230 1.442051
V4    V     V_3+5 0.249350 0.333670 0.742770 1.417365
C9    C     C_R   0.414616 0.186623 0.563144 -0.206809
C10   C     C_R   0.599074 0.841182 0.450625 -0.229891
C11   C     C_R   0.085635 0.686336 0.937186 -0.206884
C12   C     C_R   0.901173 0.341882 0.049546 -0.227506
H1    H     H_    0.427079 0.310189 0.540495 0.119529
H2    H     H_    0.599336 0.741922 0.487742 0.121028
H3    H     H_    0.073158 0.809834 0.959847 0.119629
H4    H     H_    0.900941 0.243342 0.012294 0.119640
C13   C     C_R   0.373694 0.202121 0.601227 0.422398
C14   C     C_R   0.641844 0.834145 0.414320 0.428856
C15   C     C_R   0.126428 0.701959 0.898946 0.422485
C16   C     C_R   0.858214 0.335339 0.085625 0.430009
C17   C     C_R   0.358784 0.043035 0.633656 -0.159790
C18   C     C_R   0.640088 0.957341 0.363922 -0.130007
C19   C     C_R   0.141349 0.542984 0.866499 -0.159894
C20   C     C_R   0.860185 0.457040 0.136376 -0.132333
C21   C     C_R   0.384145 0.870556 0.623842 -0.224990
C22   C     C_R   0.597844 0.094413 0.354161 -0.224829
C23   C     C_R   0.116145 0.370472 0.876469 -0.224336
C24   C     C_R   0.902752 0.592537 0.146644 -0.226310
H5    H     H_    0.373952 0.745531 0.647220 0.187115
H6    H     H_    0.595985 0.192483 0.316505 0.139198
H7    H     H_    0.126351 0.245516 0.853090 0.187200
H8    H     H_    0.904737 0.689521 0.184556 0.139056
C25   C     C_R   0.423620 0.856406 0.584376 -0.149653
C26   C     C_R   0.557045 0.105096 0.392147 -0.132279
C27   C     C_R   0.076809 0.356191 0.916092 -0.149247
C28   C     C_R   0.943659 0.603123 0.108789 -0.132182
H9    H     H_    0.442315 0.721876 0.577958 0.133165
H10   H     H_    0.525099 0.212168 0.383628 0.123527
H11   H     H_    0.058225 0.221646 0.922609 0.133092
H12   H     H_    0.975822 0.709113 0.117652 0.123379
C29   C     C_R   0.439155 0.014275 0.553931 0.063221
C30   C     C_R   0.557207 0.977810 0.440317 0.068621
C31   C     C_R   0.061255 0.513957 0.946552 0.063043
C32   C     C_R   0.943318 0.477118 0.060302 0.068747
C33   C     C_1   0.480539 0.000263 0.513601 -0.039358
C34   C     C_1   0.515260 0.989637 0.480035 -0.035972
C35   C     C_1   0.019971 0.499826 0.987001 -0.039315
C36   C     C_1   0.985292 0.489082 0.020616 -0.036101
C37   C     C_R   0.921360 0.817177 0.392646 -0.199152
C38   C     C_R   0.080533 0.184966 0.604453 -0.154337
C39   C     C_R   0.578952 0.317570 0.107139 -0.158495
C40   C     C_R   0.420492 0.681408 0.893647 -0.155456
C41   C     C_R   0.881091 0.959565 0.383866 -0.078701
C42   C     C_R   0.119899 0.040235 0.614807 -0.085980
C43   C     C_R   0.619076 0.459964 0.115878 -0.092424
C44   C     C_R   0.380297 0.539489 0.884843 -0.086415
C45   C     C_R   0.889103 0.119168 0.421348 -0.206839
C46   C     C_R   0.111847 0.879507 0.577632 -0.216660
C47   C     C_R   0.611262 0.618730 0.077824 -0.210681
C48   C     C_R   0.387941 0.380575 0.922942 -0.213643
C49   C     C_R   0.937004 0.139584 0.466891 0.015692
C50   C     C_R   0.065785 0.863061 0.529316 0.026953
C51   C     C_R   0.564786 0.635154 0.030081 0.022083
C52   C     C_R   0.434416 0.363731 0.970768 0.023570
C53   C     C_R   0.977216 0.993805 0.475335 0.002561
C54   C     C_R   0.025282 0.007996 0.521241 -0.006144
C55   C     C_R   0.523710 0.492273 0.023271 -0.011126
C56   C     C_R   0.475539 0.506463 0.977605 -0.013405
C57   C     C_R   0.969368 0.833664 0.437808 0.082436
C58   C     C_R   0.032929 0.168257 0.558994 0.059279
C59   C     C_R   0.530880 0.334535 0.062151 0.065638
C60   C     C_R   0.468447 0.664120 0.938691 0.064691
C61   C     C_R   0.945573 0.300088 0.504896 0.271828
C62   C     C_R   0.059009 0.705532 0.489347 0.284762
C63   C     C_R   0.558136 0.791331 0.989603 0.277398
C64   C     C_R   0.441058 0.207387 0.011260 0.280699
C65   C     C_R   0.993203 0.311692 0.550417 -0.189272
C66   C     C_R   0.009983 0.692739 0.444855 -0.188258
C67   C     C_R   0.509401 0.803316 0.944785 -0.193449
C68   C     C_R   0.489942 0.194977 0.055940 -0.197892
H13   H     H_    0.915842 0.694681 0.363447 0.111778
H14   H     H_    0.086132 0.308874 0.632997 0.123580
H15   H     H_    0.584342 0.195590 0.136666 0.119668
H16   H     H_    0.415278 0.803277 0.864058 0.122208
H17   H     H_    0.856748 0.224502 0.415307 0.137527
H18   H     H_    0.141954 0.767615 0.587214 0.135863
H19   H     H_    0.642071 0.728683 0.085990 0.145429
H20   H     H_    0.357162 0.270555 0.914550 0.136439
H21   H     H_    0.999681 0.436324 0.578561 0.149190
H22   H     H_    0.003069 0.573993 0.414364 0.126934
H23   H     H_    0.502945 0.920081 0.913340 0.133988
H24   H     H_    0.496511 0.077551 0.087115 0.133661
O21   O     O_3   0.351805 0.376930 0.609493 -0.578056
C69   C     C_3   0.301390 0.402980 0.567706 0.110009
H25   H     H_    0.275315 0.502534 0.589273 0.156360
H26   H     H_    0.276191 0.272468 0.558675 0.081942
C70   C     C_3   0.312883 0.487807 0.507253 -0.352488
H27   H     H_    0.342015 0.607552 0.517093 0.213493
H28   H     H_    0.332592 0.381354 0.481166 0.186653
C71   C     C_3   0.259142 0.555828 0.467498 -0.831264
H29   H     H_    0.229047 0.438809 0.457309 0.232280
H30   H     H_    0.268739 0.611586 0.423503 0.235855
H31   H     H_    0.239953 0.669214 0.491304 0.222181
O22   O     O_3   0.684662 0.704305 0.427095 -0.566513
C72   C     C_3   0.719186 0.747787 0.483661 0.061398
H32   H     H_    0.736386 0.614735 0.504779 0.131391
H33   H     H_    0.696303 0.813369 0.518007 0.111264
C73   C     C_3   0.768187 0.871967 0.473081 -0.297813
H34   H     H_    0.798077 0.787540 0.451426 0.198810
H35   H     H_    0.752897 0.989004 0.441690 0.179616
C74   C     C_3   0.798342 0.954110 0.533339 -0.836958
H36   H     H_    0.770697 0.055321 0.551904 0.230143
H37   H     H_    0.836621 0.028419 0.525419 0.247406
H38   H     H_    0.810359 0.842208 0.567791 0.223676
O23   O     O_3   0.148146 0.876814 0.890543 -0.578235
C75   C     C_3   0.198679 0.902656 0.932102 0.110498
H39   H     H_    0.224373 0.003540 0.910589 0.156719
H40   H     H_    0.224181 0.772407 0.940598 0.082018
C76   C     C_3   0.187384 0.985101 0.992941 -0.352941
H41   H     H_    0.157756 0.103968 0.983639 0.213254
H42   H     H_    0.168335 0.877012 0.019032 0.186559
C77   C     C_3   0.241114 0.054019 0.032356 -0.831464
H43   H     H_    0.271795 0.938111 0.041805 0.232543
H44   H     H_    0.231730 0.107349 0.076725 0.235947
H45   H     H_    0.259495 0.169425 0.008647 0.221763
O24   O     O_3   0.814827 0.208053 0.072286 -0.567388
C78   C     C_3   0.781040 0.253578 0.015410 0.069360
H46   H     H_    0.759061 0.124473 0.996949 0.137668
H47   H     H_    0.805574 0.300101 0.979743 0.112228
C79   C     C_3   0.736741 0.400047 0.024008 -0.313942
H48   H     H_    0.704486 0.333562 0.047129 0.194843
H49   H     H_    0.755907 0.516342 0.053417 0.183659
C80   C     C_3   0.709185 0.481835 0.962502 -0.848028
H50   H     H_    0.739548 0.570328 0.943064 0.234851
H51   H     H_    0.672920 0.569434 0.969159 0.234461
H52   H     H_    0.694414 0.369216 0.929258 0.226889
N1    N     N_2   0.908406 0.455674 0.496721 -0.517891
H53   H     H_    0.887658 0.487844 0.453464 0.254552
C81   C     C_3   0.880431 0.505202 0.547416 -0.549504
H54   H     H_    0.834554 0.490477 0.533286 0.188974
H55   H     H_    0.890467 0.652296 0.560477 0.214016
H56   H     H_    0.893646 0.414880 0.588235 0.195019
N2    N     N_2   0.101762 0.564407 0.493974 -0.517214
H57   H     H_    0.141972 0.615030 0.503334 0.246800
C82   C     C_3   0.096918 0.411868 0.450328 -0.548938
H58   H     H_    0.132290 0.313306 0.463308 0.193933
H59   H     H_    0.098281 0.466102 0.403468 0.188928
H60   H     H_    0.057840 0.332319 0.450793 0.210348
N3    N     N_2   0.600684 0.932473 0.994287 -0.517749
H61   H     H_    0.641047 0.882133 0.000941 0.248089
C83   C     C_3   0.593538 0.093029 0.953850 -0.549694
H62   H     H_    0.627177 0.194874 0.969315 0.210705
H63   H     H_    0.553287 0.164290 0.955607 0.213955
H64   H     H_    0.595888 0.049935 0.906050 0.186890
N4    N     N_2   0.398241 0.067070 0.006870 -0.516471
H65   H     H_    0.358090 0.118999 0.999772 0.247157
C84   C     C_3   0.404585 0.908591 0.048282 -0.544769
H66   H     H_    0.369609 0.809343 0.034526 0.194450
H67   H     H_    0.403700 0.955621 0.096022 0.187684
H68   H     H_    0.444027 0.832767 0.045964 0.213175

loop_
_geom_bond_atom_site_label_1
_geom_bond_atom_site_label_2
_ccdc_geom_bond_type
C26   H10   S    
C76   C77   S    
C63   C67   A    
O1    C5    A    
C80   H50   S    
C51   C55   A    
O19   V1    S    
C65   H21   S    
C82   H58   S    
C38   C58   A    
O3    C7    A    
C81   H54   S    
C10   C14   A    
C75   C76   S    
C56   C60   A    
C44   C48   A    
O4    V2    S    
O15   V3    S    
O22   C72   S    
C10   C30   A    
C69   H26   S    
N1    H53   S    
C9    C29   A    
C74   H36   S    
C83   H63   S    
N3    H61   S    
O7    C3    A    
C22   H6    S    
C24   C28   A    
C8    C17   S    
C46   H18   S    
O9    V1    S    
C81   H55   S    
C75   H40   S    
C72   H32   S    
C14   C18   A    
O4    C8    A    
C21   H5    S    
C76   H41   S    
O1    V3    S    
O13   V1    S    
O2    V4    S    
C1    C43   S    
C78   C79   S    
O3    V1    S    
C37   C41   A    
C69   H25   S    
C70   C71   S    
C3    C41   S    
C27   C31   A    
C68   H24   S    
C26   C30   A    
C64   C68   A    
C52   C56   A    
C58   C65   A    
C2    O16   A    
C73   H34   S    
C4    C42   S    
O2    C6    A    
C78   H46   S    
C15   O23   S    
O14   V2    S    
C37   C57   A    
C11   C15   A    
O5    V1    S    
C62   N2    S    
C14   O22   S    
C5    C20   S    
O11   C7    A    
C6    C19   S    
C40   H16   S    
C7    C18   S    
C74   H37   S    
C82   H59   S    
O10   V2    S    
N1    C81   S    
C1    O15   A    
C54   C58   A    
C83   H64   S    
C77   H44   S    
N3    C83   S    
O7    V3    S    
C39   C59   A    
O8    V4    S    
C40   C44   A    
C39   H15   S    
C12   H4    S    
C81   H56   S    
C75   H39   S    
C79   C80   S    
N2    C82   S    
C50   C54   A    
C84   H67   S    
C55   C56   A    
C2    C44   S    
O18   V4    S    
C19   C23   A    
C23   H7    S    
C84   H66   S    
C16   O24   S    
C32   C36   S    
C69   C70   S    
C22   C26   A    
C57   C66   A    
C11   H3    S    
O5    C1    A    
C67   H23   S    
C66   H22   S    
C62   C66   A    
C38   H14   S    
C77   H45   S    
C42   C46   A    
C37   H13   S    
C83   H62   S    
C63   N3    S    
C11   C31   A    
O8    C4    A    
C17   C21   A    
C79   H48   S    
O9    C5    A    
C48   H20   S    
O11   V3    S    
C70   H27   S    
C52   C64   A    
C74   H38   S    
C71   H31   S    
C73   H35   S    
O6    V2    S    
C45   H17   S    
C80   H52   S    
C61   N1    S    
C82   H60   S    
C47   H19   S    
C12   C16   A    
C23   C27   A    
N2    H57   S    
C59   C68   A    
C71   H30   S    
C77   H43   S    
O16   V4    S    
C84   H68   S    
C76   H42   S    
C3    O13   A    
C49   C53   A    
C10   H2    S    
C79   H49   S    
O17   V3    S    
C48   C52   A    
C25   C29   A    
C47   C51   A    
O6    C2    A    
C21   C25   A    
C80   H51   S    
O23   C75   S    
C12   C32   A    
C25   H9    S    
O12   V4    S    
C18   C22   A    
C27   H11   S    
C28   H12   S    
C9    C13   A    
C72   C73   S    
O20   V2    S    
C35   C36   T    
C46   C50   A    
O21   C69   S    
C40   C60   A    
C43   C47   A    
O10   C6    A    
C30   C34   S    
C15   C19   A    
C73   C74   S    
C29   C33   S    
C9    H1    S    
C31   C35   S    
C78   H47   S    
C53   C57   A    
C33   C34   T    
C50   C62   A    
C61   C65   A    
C70   H28   S    
C49   C61   A    
C55   C59   A    
N4    H65   S    
C51   C63   A    
C16   C20   A    
C20   C24   A    
C28   C32   A    
O12   C8    A    
C41   C45   A    
C38   C42   A    
C60   C67   A    
C4    O14   A    
C13   C17   A    
O24   C78   S    
N4    C84   S    
C13   O21   S    
C53   C54   A    
C64   N4    S    
C39   C43   A    
C45   C49   A    
C24   H8    S    
C71   H29   S    
C72   H33   S    
