data_mof_unit_35235.cif
_audit_creation_date              2012-12-10T17:35:33-0500
_audit_creation_method            fapswitch 2.2
_symmetry_space_group_name_H-M    P1
_symmetry_Int_Tables_number       1
_space_group_crystal_system       triclinic
_cell_length_a                    10.692215
_cell_length_b                    12.420843
_cell_length_c                    13.301293
_cell_angle_alpha                 117.576991
_cell_angle_beta                  74.432516
_cell_angle_gamma                 100.892188
_cell_volume                      1504.02286344

loop_
_atom_site_label
_atom_site_type_symbol
_atom_type_description
_atom_site_fract_x
_atom_site_fract_y
_atom_site_fract_z
_atom_type_partial_charge
C1    C     C_R   0.514954 0.854953 0.286452 0.748246
C2    C     C_3   0.122688 0.997902 0.496155 0.139659
C3    C     C_3   0.037777 0.026614 0.618877 -0.364087
C4    C     C_3   0.074110 0.871361 0.409256 -0.397137
C5    C     C_R   0.298415 0.293310 0.017264 -0.184984
C6    C     C_R   0.456376 0.227465 0.836745 -0.136885
C7    C     C_R   0.622798 0.807520 0.083354 -0.166439
C8    C     C_R   0.657006 0.724600 0.968126 -0.172494
C9    C     C_R   0.607184 0.603751 0.931807 -0.057670
C10   C     C_R   0.517908 0.563698 0.010075 0.109773
C11   C     C_R   0.469608 0.652858 0.123084 0.062844
C12   C     C_R   0.740014 0.998562 0.497634 0.725384
C13   C     C_R   0.468901 0.439739 0.978132 0.071461
C14   C     C_R   0.356824 0.412199 0.051255 0.090171
C15   C     C_R   0.302192 0.503852 0.156779 -0.201409
C16   C     C_R   0.358364 0.622055 0.192877 -0.184220
C17   C     C_R   0.527219 0.341802 0.876895 0.402925
C18   C     C_R   0.345138 0.202456 0.908747 -0.247606
C19   C     C_R   0.531540 0.772108 0.162314 -0.099428
C20   C     C_R   0.704403 0.329424 0.310239 0.311579
C21   C     C_R   0.361164 0.784096 0.672334 -0.050185
C22   C     C_R   0.391008 0.730657 0.734605 0.379107
C23   C     C_R   0.482551 0.144750 0.713440 0.823825
C24   C     C_R   0.470731 0.633840 0.674472 -0.053063
C25   C     C_R   0.501211 0.576793 0.552691 -0.027696
C26   C     C_R   0.500530 0.653806 0.501199 0.254532
C27   C     C_R   0.553672 0.458422 0.483846 -0.154847
C28   C     C_R   0.640979 0.439207 0.376628 0.008712
C29   C     C_R   0.661337 0.529569 0.337137 -0.245967
C30   C     C_R   0.592469 0.633678 0.397650 -0.160692
C31   C     C_R   0.514441 0.355558 0.511258 0.519116
C32   C     C_R   0.668003 0.234799 0.342983 -0.030785
C33   C     C_R   0.260712 0.998476 0.497653 0.791889
C34   C     C_3   0.962527 0.095346 0.459431 -0.379369
C35   C     C_3   0.105532 0.094850 0.458684 -0.344068
C36   C     C_3   0.893750 0.026885 0.618936 -0.375173
C37   C     C_3   0.929621 0.871382 0.409233 -0.376776
C38   C     C_3   0.878459 0.997930 0.496186 0.159343
Cu1   Cu    Cu3+1 0.529690 0.098270 0.475420 1.000110
Cu2   Cu    Cu3+1 0.470310 0.901730 0.524580 0.918706
H1    H     H_    0.928815 0.187618 0.520683 0.190949
H2    H     H_    0.084615 0.799207 0.433203 0.176569
H3    H     H_    0.834523 0.958133 0.647362 0.177149
H4    H     H_    0.047528 0.957478 0.646941 0.167495
H5    H     H_    0.290984 0.114244 0.878967 0.157182
H6    H     H_    0.215629 0.483998 0.212132 0.146016
H7    H     H_    0.211986 0.272261 0.071932 0.155486
H8    H     H_    0.669896 0.898892 0.111211 0.155225
H9    H     H_    0.635485 0.545385 0.840661 0.210126
H10   H     H_    0.725254 0.753331 0.907015 0.145142
H11   H     H_    0.952890 0.076750 0.371397 0.170477
H12   H     H_    0.309804 0.690016 0.274051 0.160724
H13   H     H_    0.714834 0.150260 0.291432 0.162046
H14   H     H_    0.727534 0.519693 0.256536 0.161159
H15   H     H_    0.305149 0.863291 0.717748 0.123500
H16   H     H_    0.514361 0.608635 0.723430 0.190674
H17   H     H_    0.623065 0.700088 0.364909 0.190877
H18   H     H_    0.164822 0.075056 0.370111 0.168197
H19   H     H_    0.139229 0.187424 0.518268 0.238027
H20   H     H_    0.857740 0.117535 0.682510 0.154869
H21   H     H_    0.070775 0.116850 0.682968 0.172870
H22   H     H_    0.871445 0.799192 0.433144 0.174855
H23   H     H_    0.919315 0.848978 0.320426 0.153377
H24   H     H_    0.133900 0.848919 0.320440 0.156222
N1    N     N_R   0.574690 0.246280 0.438200 -0.272897
N2    N     N_R   0.426100 0.754320 0.561190 -0.225289
O1    O     O_R   0.537340 0.972510 0.318130 -0.585308
O2    O     O_R   0.487200 0.806530 0.359650 -0.598741
O3    O     O_R   0.707380 0.082980 0.479220 -0.594618
O4    O     O_R   0.657240 0.917000 0.520740 -0.596621
O5    O     O_R   0.512800 0.193470 0.640350 -0.478559
O6    O     O_R   0.462660 0.027490 0.681870 -0.598545
O7    O     O_R   0.342760 0.083000 0.479260 -0.513035
O8    O     O_R   0.292620 0.917020 0.520780 -0.597093
O9    O     O_3   0.653984 0.357264 0.821490 -0.755478
H25   H     H_    0.688463 0.276751 0.768066 0.308325
O10   O     O_3   0.800792 0.309717 0.212134 -0.737605
H26   H     H_    0.853999 0.387313 0.223620 0.318702
S1    S     S_3+6 0.380323 0.373227 0.636346 0.006048
O11   O     O_2   0.435560 0.439885 0.743633 -0.351140
O12   O     O_2   0.282487 0.447975 0.639742 -0.317710
O13   O     O_3   0.290610 0.255985 0.654899 -0.535920
H27   H     H_    0.235000 0.291978 0.733595 0.355637
O14   O     O_3   0.351611 0.775219 0.853401 -0.705784
H28   H     H_    0.297679 0.844530 0.882277 0.310014

loop_
_geom_bond_atom_site_label_1
_geom_bond_atom_site_label_2
_ccdc_geom_bond_type
C2    C35   S    
C12   O3    A    
C21   N2    A    
C37   H22   S    
C7    C8    A    
O10   H26   S    
C5    H7    S    
C11   C19   A    
C34   H11   S    
C29   C30   A    
Cu2   O4    S    
C20   O10   S    
C35   H18   S    
C28   C29   A    
C29   H14   S    
C15   C16   A    
C30   H17   S    
C1    O2    A    
C35   H19   S    
C34   C35   S    
C8    C9    A    
C9    C10   A    
Cu2   N2    S    
C21   C22   A    
Cu1   N1    S    
C34   H1    S    
C37   H23   S    
C3    H21   S    
C6    C18   A    
C3    H4    S    
C1    C19   S    
C27   C31   A    
C26   N2    A    
C23   O5    A    
C9    H9    S    
O14   H28   S    
Cu1   Cu2   S    
S1    O12   D    
C5    C18   A    
C20   C28   A    
C25   C26   A    
C22   O14   S    
C2    C4    S    
O9    H25   S    
C37   C38   S    
C11   C16   A    
Cu1   O3    S    
C24   C25   A    
C5    C14   A    
C2    C33   S    
C33   O7    A    
C26   C30   A    
C7    C19   A    
C22   C24   A    
C24   H16   S    
C18   H5    S    
C8    H10   S    
C32   H13   S    
C21   H15   S    
C20   C32   A    
C31   N1    A    
C6    C17   A    
C12   O4    A    
Cu2   O6    S    
C34   C38   S    
Cu1   O1    S    
C23   O6    A    
C16   H12   S    
C36   H20   S    
C10   C13   A    
S1    O13   S    
C31   S1    S    
C25   C27   A    
C4    H24   S    
C13   C17   A    
C7    H8    S    
C36   C38   S    
C2    C3    S    
C4    H2    S    
C3    C36   S    
C6    C23   S    
C1    O1    A    
Cu2   O8    S    
Cu1   O7    S    
C12   C38   S    
C10   C11   A    
S1    O11   D    
C33   O8    A    
C4    C37   S    
O13   H27   S    
Cu2   O2    S    
C27   C28   A    
C17   O9    S    
Cu1   O5    S    
C14   C15   A    
C36   H3    S    
C15   H6    S    
C13   C14   A    
C32   N1    A    
