data_mof_unit_13120.cif
_audit_creation_date              2012-10-26T18:57:58-0400
_audit_creation_method            fapswitch 2.2
_symmetry_space_group_name_H-M    P1
_symmetry_Int_Tables_number       1
_space_group_crystal_system       triclinic
_cell_length_a                    15.137051
_cell_length_b                    13.904221
_cell_length_c                    15.908217
_cell_angle_alpha                 89.824743
_cell_angle_beta                  91.162947
_cell_angle_gamma                 89.84825
_cell_volume                      3347.46734151

loop_
_atom_site_label
_atom_site_type_symbol
_atom_type_description
_atom_site_fract_x
_atom_site_fract_y
_atom_site_fract_z
_atom_type_partial_charge
C1    C     C_R   0.329840 0.500034 0.501324 0.575715
C2    C     C_R   0.449533 0.791194 0.442209 0.361957
C3    C     C_R   0.460755 0.209108 0.434925 0.364552
C4    C     C_R   0.550424 0.789786 0.558394 0.368828
C5    C     C_R   0.499021 0.054453 0.501379 -0.050172
C6    C     C_R   0.499033 0.945170 0.501647 -0.051252
C7    C     C_R   0.499012 0.499951 0.341168 0.529940
C8    C     C_R   0.499469 0.499755 0.658794 0.535963
C9    C     C_R   0.424505 0.547874 0.953595 0.238380
C10   C     C_R   0.530218 0.416828 0.045829 0.248912
C11   C     C_R   0.419745 0.545019 0.041447 0.215841
C12   C     C_R   0.670228 0.499886 0.498068 0.572241
C13   C     C_R   0.527832 0.411734 0.957684 0.250147
C14   C     C_R   0.479106 0.482316 0.911795 -0.055534
C15   C     C_R   0.478054 0.484853 0.087276 -0.063175
C16   C     C_1   0.487652 0.491953 0.822683 -0.008896
C17   C     C_1   0.486314 0.493656 0.176820 -0.006614
C18   C     C_1   0.493038 0.498569 0.251879 -0.031343
C19   C     C_1   0.493937 0.497976 0.747858 -0.029481
C20   C     C_R   0.092418 0.572099 0.463990 -0.127084
C21   C     C_R   0.904925 0.417155 0.464368 -0.135632
C22   C     C_R   0.907691 0.574395 0.528971 -0.123090
C23   C     C_R   0.048355 0.494054 0.498599 -0.050636
C24   C     C_R   0.095766 0.419135 0.537012 -0.131469
C25   C     C_R   0.184135 0.577059 0.468349 0.203774
C26   C     C_R   0.811795 0.418006 0.462062 0.217071
C27   C     C_R   0.816000 0.579030 0.524979 0.206735
C28   C     C_R   0.188672 0.420082 0.539145 0.214679
C29   C     C_R   0.232908 0.499284 0.502981 0.026045
C30   C     C_R   0.767312 0.499058 0.495126 0.024562
C31   C     C_3   0.295226 0.557142 0.121395 0.021223
C32   C     C_3   0.208929 0.613625 0.111118 -0.248878
C33   C     C_3   0.135364 0.568793 0.162303 -0.490995
C34   C     C_R   0.952005 0.494205 0.498695 -0.050159
C35   C     C_3   0.535051 0.281480 0.863275 0.007035
C36   C     C_3   0.448063 0.239115 0.896043 -0.289522
C37   C     C_3   0.408025 0.168221 0.832867 -0.472239
C38   C     C_3   0.410414 0.701821 0.905669 0.030472
C39   C     C_3   0.347733 0.771823 0.860090 -0.252815
C40   C     C_3   0.384415 0.873980 0.859801 -0.501763
C41   C     C_3   0.548809 0.275078 0.117315 0.020889
C42   C     C_3   0.595775 0.237696 0.196852 -0.236380
C43   C     C_3   0.558308 0.141123 0.224531 -0.478457
C44   C     C_3   0.214962 0.736681 0.490698 0.050422
C45   C     C_R   0.535275 0.107646 0.568733 -0.158405
C46   C     C_3   0.170914 0.819790 0.442478 -0.263813
C47   C     C_3   0.170076 0.911565 0.494849 -0.502830
C48   C     C_3   0.796665 0.254781 0.422892 0.009538
C49   C     C_3   0.837330 0.226893 0.338962 -0.256159
C50   C     C_3   0.870519 0.123222 0.340674 -0.497403
C51   C     C_3   0.781058 0.735565 0.492597 0.046330
C52   C     C_3   0.805003 0.829738 0.536638 -0.259641
C53   C     C_3   0.805152 0.914038 0.475023 -0.505423
C54   C     C_3   0.210014 0.257511 0.575037 0.013286
C55   C     C_3   0.170870 0.218344 0.656204 -0.257314
C56   C     C_R   0.444202 0.892505 0.446332 -0.164619
C57   C     C_3   0.144700 0.112956 0.646813 -0.498084
C58   C     C_3   0.669701 0.243152 0.633871 -0.003676
C59   C     C_3   0.713580 0.319299 0.689741 -0.239995
C60   C     C_3   0.814014 0.309122 0.690950 -0.484897
C61   C     C_3   0.421847 0.769032 0.300058 0.025398
C62   C     C_3   0.341931 0.814792 0.254960 -0.269546
C63   C     C_3   0.364181 0.845988 0.165788 -0.489835
C64   C     C_3   0.333410 0.247349 0.362241 0.006840
C65   C     C_3   0.294345 0.322732 0.301898 -0.244920
C66   C     C_3   0.193644 0.317789 0.298380 -0.494909
C67   C     C_R   0.463359 0.107724 0.433292 -0.164373
C68   C     C_3   0.586205 0.762174 0.698927 0.018080
C69   C     C_3   0.670970 0.796964 0.742986 -0.271548
C70   C     C_3   0.659240 0.806410 0.837668 -0.491364
C71   C     C_R   0.554307 0.891403 0.556431 -0.162154
C72   C     C_R   0.539189 0.208998 0.565520 0.369549
Cu1   Cu    Cu3+1 0.500000 0.596430 0.500000 1.049393
Cu2   Cu    Cu3+1 0.500000 0.403570 0.500000 1.067179
H1    H     H_    0.055353 0.630315 0.434559 0.119483
H2    H     H_    0.284084 0.483236 0.095806 0.114132
H3    H     H_    0.219112 0.688983 0.131942 0.167105
H4    H     H_    0.188578 0.614979 0.043589 0.180788
H5    H     H_    0.122118 0.494241 0.140686 0.143449
H6    H     H_    0.073945 0.611883 0.153900 0.148116
H7    H     H_    0.154080 0.567698 0.230221 0.164158
H8    H     H_    0.579987 0.220149 0.850574 0.153397
H9    H     H_    0.524001 0.316364 0.801400 0.173592
H10   H     H_    0.460567 0.200887 0.956333 0.141736
H11   H     H_    0.398954 0.297131 0.906451 0.151182
H12   H     H_    0.941875 0.358754 0.437328 0.109196
H13   H     H_    0.393732 0.204797 0.771867 0.171039
H14   H     H_    0.345274 0.139201 0.857372 0.138226
H15   H     H_    0.454124 0.107263 0.822567 0.145024
H16   H     H_    0.473552 0.698428 0.871026 0.109553
H17   H     H_    0.423877 0.729519 0.970324 0.160703
H18   H     H_    0.336939 0.747637 0.794131 0.165950
H19   H     H_    0.282989 0.772078 0.891869 0.176402
H20   H     H_    0.394945 0.900022 0.925184 0.144991
H21   H     H_    0.336761 0.922795 0.827010 0.144457
H22   H     H_    0.447896 0.876326 0.826296 0.135886
H23   H     H_    0.944438 0.634703 0.554717 0.123886
H24   H     H_    0.555673 0.220478 0.067114 0.152858
H25   H     H_    0.477264 0.284793 0.131306 0.103782
H26   H     H_    0.667303 0.228832 0.184540 0.166645
H27   H     H_    0.588213 0.290787 0.248351 0.211251
H28   H     H_    0.486333 0.147503 0.235575 0.170602
H29   H     H_    0.591954 0.117586 0.283809 0.152296
H30   H     H_    0.569343 0.085790 0.175610 0.129100
H31   H     H_    0.281457 0.759678 0.513259 0.177348
H32   H     H_    0.176091 0.721224 0.548242 0.096088
H33   H     H_    0.207103 0.833739 0.383829 0.177562
H34   H     H_    0.059797 0.362206 0.567527 0.112885
H35   H     H_    0.101893 0.799997 0.425093 0.143104
H36   H     H_    0.133305 0.899797 0.553708 0.145439
H37   H     H_    0.137090 0.970157 0.458363 0.137993
H38   H     H_    0.238705 0.934255 0.510822 0.144622
H39   H     H_    0.740270 0.205546 0.433574 0.140713
H40   H     H_    0.843589 0.242590 0.476786 0.095954
H41   H     H_    0.786611 0.234688 0.287996 0.172039
H42   H     H_    0.893016 0.275311 0.324031 0.157849
H43   H     H_    0.920905 0.113183 0.391728 0.139638
H44   H     H_    0.901017 0.105745 0.279679 0.145423
H45   H     H_    0.560414 0.072181 0.624773 0.097587
H46   H     H_    0.814615 0.073197 0.350662 0.146763
H47   H     H_    0.715722 0.743916 0.460231 0.169910
H48   H     H_    0.830882 0.722096 0.442984 0.094162
H49   H     H_    0.756430 0.844857 0.586040 0.186216
H50   H     H_    0.871497 0.822740 0.567008 0.149532
H51   H     H_    0.854465 0.901683 0.425399 0.144468
H52   H     H_    0.822724 0.981124 0.509109 0.136797
H53   H     H_    0.738597 0.923439 0.445326 0.147509
H54   H     H_    0.269821 0.214156 0.561631 0.143090
H55   H     H_    0.163643 0.246846 0.520464 0.094890
H56   H     H_    0.397028 0.928627 0.405643 0.098962
H57   H     H_    0.220611 0.224802 0.708261 0.173988
H58   H     H_    0.111800 0.260933 0.673259 0.157240
H59   H     H_    0.094348 0.104715 0.595571 0.141206
H60   H     H_    0.116323 0.086693 0.706435 0.143679
H61   H     H_    0.203545 0.068460 0.632511 0.146125
H62   H     H_    0.697721 0.249322 0.570013 0.147565
H63   H     H_    0.685192 0.170715 0.660281 0.102164
H64   H     H_    0.695474 0.392175 0.666118 0.183745
H65   H     H_    0.689499 0.312086 0.754917 0.176271
H66   H     H_    0.833857 0.237240 0.715569 0.140583
H67   H     H_    0.438436 0.072331 0.377435 0.095801
H68   H     H_    0.843652 0.365164 0.732230 0.158922
H69   H     H_    0.839981 0.318460 0.626687 0.143501
H70   H     H_    0.439961 0.703114 0.265116 0.172476
H71   H     H_    0.480086 0.818025 0.296399 0.094804
H72   H     H_    0.286921 0.762116 0.252654 0.183176
H73   H     H_    0.319474 0.878986 0.289808 0.137762
H74   H     H_    0.415050 0.903439 0.167603 0.134566
H75   H     H_    0.303889 0.874501 0.133433 0.139843
H76   H     H_    0.389444 0.784257 0.129339 0.196378
H77   H     H_    0.303589 0.258197 0.424762 0.141839
H78   H     H_    0.601086 0.926664 0.597965 0.094560
H79   H     H_    0.316190 0.174451 0.338457 0.099738
H80   H     H_    0.314457 0.395744 0.323029 0.177203
H81   H     H_    0.320371 0.310968 0.237873 0.147610
H82   H     H_    0.171616 0.245627 0.276919 0.140114
H83   H     H_    0.167487 0.372616 0.253529 0.143068
H84   H     H_    0.166305 0.332542 0.361342 0.147039
H85   H     H_    0.563984 0.695962 0.731235 0.162491
H86   H     H_    0.532674 0.816540 0.706972 0.090003
H87   H     H_    0.725364 0.745118 0.731269 0.202785
H88   H     H_    0.689774 0.868179 0.717303 0.131857
H89   H     H_    0.312282 0.551012 0.189499 0.143283
H90   H     H_    0.606802 0.859794 0.851174 0.138744
H91   H     H_    0.722071 0.831193 0.867486 0.149627
H92   H     H_    0.641535 0.735856 0.865525 0.145772
N1    N     N_R   0.500000 0.258690 0.500000 -0.196308
N2    N     N_R   0.500000 0.741310 0.500000 -0.214775
O1    O     O_R   0.371460 0.581430 0.500010 -0.454556
O2    O     O_3   0.581338 0.343259 0.920133 -0.548420
O3    O     O_3   0.370417 0.610179 0.907923 -0.540915
O4    O     O_3   0.590079 0.360993 0.091463 -0.526071
O5    O     O_3   0.225920 0.657076 0.436113 -0.533589
O6    O     O_3   0.762020 0.349421 0.418107 -0.555220
O7    O     O_3   0.774568 0.661153 0.553474 -0.529670
O8    O     O_3   0.237615 0.353892 0.586965 -0.552682
O9    O     O_3   0.577430 0.258677 0.631913 -0.552611
O10   O     O_3   0.399454 0.741304 0.383013 -0.508361
O11   O     O_3   0.425999 0.258666 0.366474 -0.548085
O12   O     O_R   0.628540 0.418570 0.499990 -0.469374
O13   O     O_3   0.603812 0.738131 0.614157 -0.503677
O14   O     O_R   0.628540 0.581430 0.499990 -0.452389
O15   O     O_R   0.371460 0.418570 0.500010 -0.476537
O16   O     O_R   0.499980 0.581410 0.380310 -0.489204
O17   O     O_R   0.500020 0.418590 0.619690 -0.448991
O18   O     O_R   0.500020 0.581410 0.619690 -0.489479
O19   O     O_R   0.499980 0.418590 0.380310 -0.449372
O20   O     O_3   0.363271 0.608162 0.080992 -0.575248

loop_
_geom_bond_atom_site_label_1
_geom_bond_atom_site_label_2
_ccdc_geom_bond_type
C21   C26   A    
C36   H11   S    
C50   H43   S    
Cu1   Cu2   S    
C63   H74   S    
C37   H14   S    
C35   C36   S    
C5    C67   A    
Cu1   O18   S    
C1    O15   A    
C3    N1    A    
C38   O3    S    
C44   H31   S    
C28   C29   A    
C62   C63   S    
C7    O16   A    
C50   H46   S    
C7    O19   A    
C36   C37   S    
C69   H87   S    
C10   C15   A    
C70   H92   S    
C60   H69   S    
C38   C39   S    
C35   O2    S    
C52   H49   S    
C20   C25   A    
C26   O6    S    
C10   O4    S    
C47   H38   S    
C15   C17   S    
C41   C42   S    
C54   O8    S    
C3    O11   S    
C43   H30   S    
C63   H75   S    
C61   H71   S    
C53   H53   S    
C60   H68   S    
C32   H3    S    
C46   C47   S    
C11   C15   A    
C12   O14   A    
C71   H78   S    
C68   C69   S    
C31   O20   S    
C23   C24   A    
C41   H25   S    
C24   H34   S    
C4    O13   S    
C68   H85   S    
Cu2   O17   S    
C23   C34   S    
C61   O10   S    
C22   H23   S    
C13   C14   A    
C27   C30   A    
C57   H59   S    
C61   C62   S    
C72   O9    S    
C40   H22   S    
Cu1   N2    S    
C39   H19   S    
Cu2   N1    S    
C35   H8    S    
C44   C46   S    
C48   O6    S    
C25   C29   A    
C6    C71   A    
C22   C34   A    
C41   O4    S    
C31   H89   S    
C68   O13   S    
C8    C19   S    
C64   H77   S    
C11   O20   S    
C69   H88   S    
C70   H91   S    
C6    C56   A    
C39   C40   S    
C64   O11   S    
C35   H9    S    
C33   H5    S    
Cu2   O15   S    
C59   H64   S    
C8    O18   A    
C58   C59   S    
C54   H54   S    
C38   H17   S    
C4    N2    A    
C20   H1    S    
C9    C14   A    
C12   O12   A    
C63   H76   S    
C65   H80   S    
C42   H26   S    
C61   H70   S    
C31   C32   S    
C55   H58   S    
C20   C23   A    
C59   H65   S    
C7    C18   S    
C46   H33   S    
C1    C29   S    
C17   C18   T    
C44   O5    S    
C51   O7    S    
C9    C11   A    
C53   H51   S    
C60   H66   S    
C58   H63   S    
C28   O8    S    
C13   O2    S    
C49   H41   S    
C65   C66   S    
C55   H57   S    
C22   C27   A    
C55   C57   S    
C51   H47   S    
C72   N1    A    
C14   C16   S    
C57   H60   S    
C9    O3    S    
C42   C43   S    
C40   H21   S    
Cu1   O1    S    
C67   H67   S    
C42   H27   S    
C2    N2    A    
C39   H18   S    
C66   H84   S    
C52   C53   S    
C48   H40   S    
Cu2   O19   S    
Cu1   O16   S    
C54   H55   S    
C54   C55   S    
C48   C49   S    
C12   C30   S    
C50   H44   S    
C37   H13   S    
C3    C67   A    
C24   C28   A    
C40   H20   S    
C10   C13   A    
C70   H90   S    
C21   H12   S    
C33   H6    S    
C26   C30   A    
C21   C34   A    
C44   H32   S    
C8    O17   A    
C47   H36   S    
C38   H16   S    
C37   H15   S    
C62   H73   S    
C58   H62   S    
C64   C65   S    
C43   H28   S    
C51   C52   S    
C65   H81   S    
C2    C56   A    
C32   C33   S    
C66   H82   S    
Cu1   O14   S    
C52   H50   S    
C45   H45   S    
C31   H2    S    
C5    C6    S    
C5    C45   A    
C36   H10   S    
C16   C19   T    
C47   H37   S    
C64   H79   S    
C1    O1    A    
C58   O9    S    
C4    C71   A    
C27   O7    S    
C69   C70   S    
C43   H29   S    
C53   H52   S    
C32   H4    S    
C25   O5    S    
C59   C60   S    
C49   H42   S    
Cu2   O12   S    
C49   C50   S    
C62   H72   S    
C46   H35   S    
C51   H48   S    
C41   H24   S    
C57   H61   S    
C2    O10   S    
C68   H86   S    
C33   H7    S    
C66   H83   S    
C56   H56   S    
C48   H39   S    
C45   C72   A    
