data_mof_unit_47371.cif
_audit_creation_date              2012-12-10T17:29:22-0500
_audit_creation_method            fapswitch 2.2
_symmetry_space_group_name_H-M    P1
_symmetry_Int_Tables_number       1
_space_group_crystal_system       triclinic
_cell_length_a                    11.99204
_cell_length_b                    12.84824
_cell_length_c                    13.134059
_cell_angle_alpha                 87.201958
_cell_angle_beta                  112.869538
_cell_angle_gamma                 93.790577
_cell_volume                      1859.90883215

loop_
_atom_site_label
_atom_site_type_symbol
_atom_type_description
_atom_site_fract_x
_atom_site_fract_y
_atom_site_fract_z
_atom_type_partial_charge
C1    C     C_R   0.476555 0.299424 0.497613 0.926723
C2    C     C_R   0.612683 0.531115 0.825568 -0.253437
C3    C     C_R   0.537297 0.811798 0.502512 -0.042718
C4    C     C_R   0.567339 0.507188 0.707563 0.897076
C5    C     C_R   0.459993 0.187925 0.492967 -0.171750
C6    C     C_R   0.336544 0.030945 0.426081 -0.319239
C7    C     C_R   0.344743 0.138398 0.438837 0.519338
C8    C     C_R   0.563953 0.130997 0.538394 -0.355990
C9    C     C_R   0.555856 0.024859 0.525861 0.191417
C10   C     C_R   0.441308 0.974588 0.469198 0.107275
C11   C     C_R   0.433146 0.868323 0.456980 -0.241961
C12   C     C_R   0.562531 0.547435 0.985630 0.114578
C13   C     C_R   0.651533 0.861339 0.556040 -0.218852
C14   C     C_R   0.660821 0.968417 0.567909 -0.193174
C15   C     C_R   0.003114 0.585245 0.383478 -0.345009
C16   C     C_R   0.522653 0.700512 0.500711 0.863281
C17   C     C_R   0.124614 0.578811 0.396638 0.018156
C18   C     C_R   0.161704 0.465255 0.552773 -0.058519
C19   C     C_R   0.040140 0.469462 0.542886 0.085810
C20   C     C_R   0.959854 0.530325 0.456970 0.091638
C21   C     C_R   0.838316 0.534652 0.447163 -0.062178
C22   C     C_R   0.875333 0.420913 0.603147 0.032670
C23   C     C_R   0.532377 0.563699 0.871688 0.011901
C24   C     C_R   0.996820 0.414411 0.616258 -0.355476
C25   C     C_R   0.433573 0.502299 0.291282 0.893120
C26   C     C_R   0.256484 0.572100 0.992266 -0.287101
C27   C     C_R   0.394982 0.512576 0.171555 -0.198006
C28   C     C_R   0.734701 0.515352 0.895208 0.542563
C29   C     C_R   0.769901 0.516992 0.009501 -0.238374
C30   C     C_R   0.684633 0.529929 0.054664 -0.290327
C31   C     C_3   0.148310 0.420706 0.148348 0.113264
C32   C     C_3   0.079710 0.366644 0.038188 -0.420590
C33   C     C_3   0.031137 0.257496 0.056105 -0.892256
C34   C     C_R   0.468334 0.547012 0.025069 0.104860
C35   C     C_3   0.168724 0.183689 0.447594 -0.296552
C36   C     C_3   0.883141 0.585658 0.843214 -0.343634
C37   C     C_R   0.351743 0.579031 0.955048 0.094877
C38   C     C_R   0.331958 0.616157 0.848462 -0.231879
C39   C     C_R   0.421991 0.610056 0.807592 -0.165681
C40   C     C_R   0.485835 0.510344 0.130848 -0.334776
C41   C     C_R   0.276017 0.535029 0.099359 0.497118
H1    H     H_    0.732271 0.817105 0.591660 0.152355
H2    H     H_    0.245728 0.646686 0.795467 0.146449
H3    H     H_    0.224075 0.417918 0.617818 0.133339
H4    H     H_    0.166586 0.593976 0.937880 0.147390
H5    H     H_    0.571010 0.479403 0.183746 0.183580
H6    H     H_    0.717615 0.528877 0.143713 0.153872
H7    H     H_    0.862947 0.504209 0.063574 0.167673
H8    H     H_    0.404000 0.642390 0.725530 0.179103
H9    H     H_    0.345174 0.829196 0.414029 0.153957
H10   H     H_    0.088654 0.418714 0.195443 0.175930
H11   H     H_    0.228231 0.375531 0.199091 0.157812
H12   H     H_    0.249135 0.992199 0.380803 0.154631
H13   H     H_    0.003066 0.413638 0.986380 0.281658
H14   H     H_    0.140849 0.360370 0.993530 0.215068
H15   H     H_    0.106876 0.208595 0.107701 0.276481
H16   H     H_    0.982843 0.220177 0.975029 0.261485
H17   H     H_    0.966593 0.261832 0.097537 0.265017
H18   H     H_    0.218773 0.205772 0.535365 0.157694
H19   H     H_    0.128792 0.102586 0.443095 0.152269
H20   H     H_    0.092844 0.236571 0.410758 0.190683
H21   H     H_    0.938119 0.617854 0.926006 0.174064
H22   H     H_    0.821494 0.644963 0.789527 0.167247
H23   H     H_    0.749093 0.006719 0.610864 0.134194
H24   H     H_    0.946470 0.568194 0.803993 0.188231
H25   H     H_    0.652052 0.169755 0.581740 0.176780
H26   H     H_    0.775956 0.581981 0.382086 0.128444
H27   H     H_    0.842810 0.378938 0.660460 0.159418
H28   H     H_    0.943530 0.632456 0.316196 0.149160
H29   H     H_    0.056338 0.367046 0.683417 0.148936
H30   H     H_    0.157125 0.620662 0.339252 0.155951
N1    N     N_R   0.798200 0.480260 0.519790 -0.098952
N2    N     N_R   0.201820 0.519740 0.480210 -0.100258
O1    O     O_R   0.579910 0.341070 0.505280 -0.627415
O2    O     O_3   0.243473 0.196097 0.386904 -0.610268
O3    O     O_3   0.818469 0.492361 0.852420 -0.617029
O4    O     O_R   0.388440 0.353740 0.492580 -0.582300
O5    O     O_R   0.643280 0.490550 0.663120 -0.565070
O6    O     O_R   0.451810 0.503220 0.650420 -0.636093
O7    O     O_R   0.611560 0.646260 0.507420 -0.625983
O8    O     O_R   0.420090 0.658930 0.494720 -0.633815
O9    O     O_R   0.548190 0.496780 0.349580 -0.624696
O10   O     O_R   0.356720 0.509450 0.336880 -0.592746
O11   O     O_3   0.179129 0.527143 0.132360 -0.659119
Zn1   Zn    Zn3+2 0.627850 0.491540 0.508480 0.948488
Zn2   Zn    Zn3+2 0.372150 0.508460 0.491520 0.948199

loop_
_geom_bond_atom_site_label_1
_geom_bond_atom_site_label_2
_ccdc_geom_bond_type
C8    H25   S    
C33   H17   S    
C34   C37   A    
C1    O4    A    
C19   C20   A    
C31   H11   S    
N1    Zn1   S    
C24   H29   S    
C40   H5    S    
C12   C23   A    
C35   O2    S    
C37   C38   A    
C1    C5    S    
C1    O1    A    
C28   C29   A    
C38   C39   A    
C35   H18   S    
C18   C19   A    
C32   H13   S    
C36   O3    S    
C26   H4    S    
C8    C9    A    
C29   C30   A    
C9    C10   A    
C32   H14   S    
O8    Zn2   S    
C3    C13   A    
C33   H15   S    
C13   C14   A    
C21   H26   S    
C17   N2    A    
C36   H21   S    
C22   N1    A    
C13   H1    S    
C15   C20   A    
C15   H28   S    
C21   N1    A    
C30   H6    S    
C4    O6    A    
C5    C7    A    
C36   H24   S    
C7    O2    S    
C29   H7    S    
C41   O11   S    
C31   O11   S    
C35   H19   S    
C16   O7    A    
C2    C4    S    
C9    C14   A    
C4    O5    A    
O7    Zn1   S    
C18   H3    S    
C27   C41   A    
C31   C32   S    
C27   C40   A    
C14   H23   S    
C35   H20   S    
C22   H27   S    
O5    Zn1   S    
C39   H8    S    
O4    Zn2   S    
C17   H30   S    
C18   N2    A    
C25   O9    A    
C34   C40   A    
C6    H12   S    
C12   C34   A    
C36   H22   S    
C15   C17   A    
C33   H16   S    
C12   C30   A    
C31   H10   S    
C6    C10   A    
C5    C8    A    
C26   C37   A    
C6    C7    A    
C25   C27   S    
O9    Zn1   S    
C32   C33   S    
C19   C24   A    
C38   H2    S    
C11   H9    S    
C23   C39   A    
C16   O8    A    
C22   C24   A    
O1    Zn1   S    
N2    Zn2   S    
C3    C11   A    
C10   C11   A    
O10   Zn2   S    
C20   C21   A    
C2    C23   A    
C25   O10   A    
C2    C28   A    
O6    Zn2   S    
C3    C16   S    
C26   C41   A    
C28   O3    S    
