data_mof_unit_41031.cif
_audit_creation_date              2012-12-10T18:09:36-0500
_audit_creation_method            fapswitch 2.2
_symmetry_space_group_name_H-M    P1
_symmetry_Int_Tables_number       1
_space_group_crystal_system       triclinic
_cell_length_a                    15.171679
_cell_length_b                    15.163557
_cell_length_c                    9.434056
_cell_angle_alpha                 89.985271
_cell_angle_beta                  89.98197
_cell_angle_gamma                 89.971298
_cell_volume                      2170.36657826

loop_
_atom_site_label
_atom_site_type_symbol
_atom_type_description
_atom_site_fract_x
_atom_site_fract_y
_atom_site_fract_z
_atom_type_partial_charge
C1    C     C_R   0.120042 0.379778 0.499788 0.748063
C2    C     C_R   0.879899 0.619993 0.499792 0.748124
C3    C     C_R   0.379994 0.879878 0.500222 0.786989
C4    C     C_R   0.379903 0.119997 0.499792 0.748115
C5    C     C_3   0.785728 0.285481 0.655308 -0.294097
C6    C     C_3   0.844840 0.227047 0.424064 -0.355536
C7    C     C_3   0.845053 0.773080 0.574249 -0.383153
C8    C     C_3   0.784789 0.713329 0.344608 -0.373394
C9    C     C_3   0.285597 0.785613 0.655311 -0.294095
C10   C     C_3   0.344882 0.727005 0.424285 -0.355652
C11   C     C_3   0.345035 0.273062 0.574350 -0.383141
C12   C     C_R   0.120140 0.620109 0.500186 0.744232
C13   C     C_3   0.284847 0.213387 0.344606 -0.373406
C14   C     C_3   0.214237 0.714325 0.655320 -0.405883
C15   C     C_3   0.272927 0.655058 0.424299 -0.392635
C16   C     C_3   0.273051 0.345028 0.574330 -0.382970
C17   C     C_3   0.213455 0.284727 0.344605 -0.373998
C18   C     C_3   0.714374 0.214189 0.655317 -0.405880
C19   C     C_3   0.772883 0.155103 0.424065 -0.392652
C20   C     C_3   0.773069 0.845045 0.574231 -0.382981
C21   C     C_3   0.713397 0.784669 0.344607 -0.373989
C22   C     C_3   0.727180 0.344878 0.424324 -0.355488
C23   C     C_R   0.620038 0.879774 0.499788 0.748072
C24   C     C_3   0.727453 0.655300 0.577358 -0.371313
C25   C     C_3   0.227219 0.844839 0.424100 -0.355368
C26   C     C_3   0.227434 0.155280 0.577259 -0.371343
C27   C     C_3   0.810985 0.310865 0.500942 0.083727
C28   C     C_3   0.810827 0.688887 0.499044 0.156923
C29   C     C_3   0.310970 0.810880 0.500942 0.083738
C30   C     C_3   0.310834 0.188894 0.499044 0.156950
C31   C     C_3   0.189107 0.689066 0.500903 0.166022
C32   C     C_3   0.188956 0.310726 0.499040 0.157138
C33   C     C_3   0.689122 0.189052 0.500903 0.166017
C34   C     C_R   0.620148 0.120101 0.500186 0.744232
C35   C     C_3   0.688950 0.810720 0.499040 0.157112
C36   C     C_3   0.155258 0.772897 0.424052 -0.392703
C37   C     C_3   0.155435 0.227263 0.577275 -0.371660
C38   C     C_3   0.655215 0.272940 0.424288 -0.392688
C39   C     C_3   0.655454 0.727282 0.577373 -0.371632
C40   C     C_3   0.913801 0.525304 0.083583 0.582943
C41   C     C_3   0.913805 0.525324 0.916482 0.581048
C42   C     C_3   0.025364 0.412125 0.083628 0.583208
C43   C     C_3   0.025398 0.412132 0.916417 0.581234
C44   C     C_3   0.413804 0.025315 0.083583 0.582961
C45   C     C_3   0.066005 0.563888 0.083702 -0.540240
C46   C     C_3   0.413805 0.025325 0.916483 0.581019
C47   C     C_3   0.525353 0.912121 0.083628 0.583182
C48   C     C_3   0.525397 0.912131 0.916417 0.581256
C49   C     C_3   0.065998 0.563890 0.916215 -0.542307
C50   C     C_3   0.566012 0.063881 0.083702 -0.540233
C51   C     C_3   0.565999 0.063889 0.916215 -0.542294
C52   C     C_R   0.880003 0.379869 0.500222 0.786989
Cu1   Cu    Cu3+1 0.000100 0.500000 0.642410 0.983493
Cu2   Cu    Cu3+1 0.000100 0.500000 0.357590 0.985250
Cu3   Cu    Cu3+1 0.500100 1.000000 0.642410 0.983493
Cu4   Cu    Cu3+1 0.500100 1.000000 0.357590 0.985249
F1    F     F_    0.848142 0.470294 0.134410 -0.591428
F2    F     F_    0.848148 0.470346 0.865777 -0.595820
F3    F     F_    0.969467 0.347206 0.134422 -0.591962
F4    F     F_    0.969557 0.347204 0.865718 -0.596447
F5    F     F_    0.348136 0.970319 0.134423 -0.591457
F6    F     F_    0.348149 0.970340 0.865789 -0.595823
F7    F     F_    0.469441 0.847211 0.134410 -0.591932
F8    F     F_    0.469563 0.847201 0.865705 -0.596446
H1    H     H_    0.760853 0.344383 0.713298 0.229899
H2    H     H_    0.905063 0.201652 0.477731 0.145838
H3    H     H_    0.904963 0.798157 0.519307 0.143117
H4    H     H_    0.843408 0.737915 0.285530 0.157571
H5    H     H_    0.344445 0.760599 0.713210 0.230252
H6    H     H_    0.405069 0.701652 0.478110 0.145869
H7    H     H_    0.404964 0.298157 0.519482 0.143115
H8    H     H_    0.343487 0.237992 0.285601 0.157553
H9    H     H_    0.238999 0.655342 0.713358 0.171921
H10   H     H_    0.298209 0.594844 0.478242 0.143496
H11   H     H_    0.298089 0.404994 0.519429 0.143139
H12   H     H_    0.863149 0.242983 0.312744 0.239000
H13   H     H_    0.237966 0.343417 0.285562 0.157510
H14   H     H_    0.739183 0.155159 0.713177 0.171847
H15   H     H_    0.798202 0.094842 0.477826 0.143479
H16   H     H_    0.798089 0.904994 0.519258 0.143139
H17   H     H_    0.737890 0.843338 0.285492 0.157528
H18   H     H_    0.155262 0.739248 0.713139 0.171587
H19   H     H_    0.257075 0.636599 0.312992 0.174647
H20   H     H_    0.257624 0.363978 0.685602 0.161706
H21   H     H_    0.154232 0.259577 0.287818 0.186999
H22   H     H_    0.655446 0.239062 0.713313 0.171662
H23   H     H_    0.864015 0.757698 0.685527 0.161852
H24   H     H_    0.756946 0.136739 0.312750 0.174707
H25   H     H_    0.757677 0.864032 0.685499 0.161690
H26   H     H_    0.654155 0.759502 0.287893 0.186987
H27   H     H_    0.701888 0.405099 0.478208 0.145829
H28   H     H_    0.743040 0.363301 0.313019 0.238432
H29   H     H_    0.743924 0.637418 0.688700 0.188177
H30   H     H_    0.701920 0.594812 0.524648 0.153806
H31   H     H_    0.201884 0.905097 0.477828 0.145796
H32   H     H_    0.243161 0.863184 0.312790 0.238579
H33   H     H_    0.243868 0.137360 0.688600 0.188171
H34   H     H_    0.759726 0.654030 0.287851 0.187584
H35   H     H_    0.201917 0.094811 0.524474 0.153804
H36   H     H_    0.095034 0.798276 0.477782 0.143462
H37   H     H_    0.136921 0.756964 0.312725 0.174535
H38   H     H_    0.137528 0.243699 0.688622 0.187638
H39   H     H_    0.095008 0.201683 0.524520 0.153875
H40   H     H_    0.595039 0.298281 0.478199 0.143480
H41   H     H_    0.636782 0.257092 0.312972 0.174478
H42   H     H_    0.637584 0.743754 0.688721 0.187644
H43   H     H_    0.595010 0.701685 0.524692 0.153878
H44   H     H_    0.896564 0.593030 0.119216 -0.003339
H45   H     H_    0.260684 0.844562 0.713141 0.229721
H46   H     H_    0.896547 0.593056 0.880760 -0.000170
H47   H     H_    0.092799 0.393944 0.119295 -0.003461
H48   H     H_    0.092850 0.393944 0.880665 -0.000240
H49   H     H_    0.396578 0.093046 0.119208 -0.003353
H50   H     H_    0.396543 0.093055 0.880752 -0.000153
H51   H     H_    0.592783 0.893929 0.119304 -0.003448
H52   H     H_    0.592853 0.893947 0.880674 -0.000262
H53   H     H_    0.050854 0.631573 0.122255 0.206250
H54   H     H_    0.050826 0.631574 0.877670 0.205956
H55   H     H_    0.133423 0.547855 0.122391 0.205885
H56   H     H_    0.363268 0.742861 0.312966 0.238853
H57   H     H_    0.133415 0.547858 0.877495 0.205640
H58   H     H_    0.550873 0.131568 0.122262 0.206269
H59   H     H_    0.550824 0.131575 0.877677 0.205937
H60   H     H_    0.633429 0.047837 0.122384 0.205862
H61   H     H_    0.633416 0.047860 0.877488 0.205653
H62   H     H_    0.363959 0.257643 0.685632 0.161869
H63   H     H_    0.259803 0.154108 0.287774 0.187596
H64   H     H_    0.844622 0.260432 0.713044 0.230073
N1    N     N_3   0.001260 0.500000 0.143650 -0.242384
N2    N     N_3   0.001260 0.500000 0.856350 -0.241342
N3    N     N_3   0.501260 1.000000 0.143650 -0.242384
N4    N     N_3   0.501260 1.000000 0.856350 -0.241342
O1    O     O_R   0.091250 0.408820 0.620260 -0.583771
O2    O     O_R   0.908940 0.408800 0.379740 -0.475287
O3    O     O_R   0.908940 0.591200 0.620260 -0.583560
O4    O     O_R   0.908940 0.591200 0.379740 -0.585018
O5    O     O_R   0.408940 0.908800 0.620260 -0.484060
O6    O     O_R   0.408940 0.908800 0.379740 -0.475287
O7    O     O_R   0.408940 0.091200 0.620260 -0.583571
O8    O     O_R   0.408940 0.091200 0.379740 -0.585000
O9    O     O_R   0.091250 0.408820 0.379740 -0.585197
O10   O     O_R   0.091250 0.591180 0.620260 -0.602814
O11   O     O_R   0.091250 0.591180 0.379740 -0.602140
O12   O     O_R   0.591250 0.908820 0.620260 -0.583760
O13   O     O_R   0.591250 0.908820 0.379740 -0.585215
O14   O     O_R   0.591250 0.091180 0.620260 -0.602815
O15   O     O_R   0.591250 0.091180 0.379740 -0.602140
O16   O     O_R   0.908940 0.408800 0.620260 -0.484059

loop_
_geom_bond_atom_site_label_1
_geom_bond_atom_site_label_2
_ccdc_geom_bond_type
C39   H42   S    
C40   N1    S    
C45   N1    S    
C16   H11   S    
C51   H59   S    
C50   H58   S    
C14   C31   S    
C42   H47   S    
Cu3   O7    S    
Cu1   Cu2   S    
C44   N3    S    
C47   H51   S    
C6    C19   S    
C23   O13   A    
C18   H22   S    
C46   F6    S    
C17   H21   S    
C9    H5    S    
C41   F2    S    
C10   C15   S    
C47   F7    S    
C37   H38   S    
Cu4   O8    S    
C11   H7    S    
C48   F8    S    
Cu2   O2    S    
C16   H20   S    
C24   C39   S    
C52   O2    A    
Cu1   O10   S    
C11   C16   S    
Cu4   O13   S    
C3    C29   S    
C8    H34   S    
C38   H40   S    
C5    C27   S    
C20   C35   S    
C7    H23   S    
C6    C27   S    
C11   C30   S    
Cu1   O3    S    
C22   H27   S    
C3    O5    A    
C9    C29   S    
C26   H35   S    
C48   H52   S    
C45   H55   S    
Cu2   O11   S    
C49   H57   S    
C52   O16   A    
Cu4   O15   S    
C9    H45   S    
C1    O1    A    
C44   C46   S    
C8    C21   S    
C21   H26   S    
C25   C29   S    
C33   C34   S    
C20   H16   S    
C51   H61   S    
C14   H9    S    
C13   C30   S    
C11   H62   S    
C50   H60   S    
C5    H1    S    
C19   H24   S    
C19   C33   S    
C37   H39   S    
C46   H50   S    
Cu3   O14   S    
C15   H19   S    
C5    C18   S    
C26   H33   S    
C15   C31   S    
C7    C20   S    
Cu1   O16   S    
C2    O4    A    
C7    C28   S    
C2    O3    A    
C47   N3    S    
C36   H37   S    
C35   C39   S    
C9    C14   S    
C24   H30   S    
C4    O8    A    
Cu4   O6    S    
C34   O15   A    
C47   C48   S    
C45   C49   S    
C18   H14   S    
Cu2   O4    S    
Cu2   O9    S    
Cu3   Cu4   S    
C17   H13   S    
C50   C51   S    
Cu1   O1    S    
C36   H36   S    
C3    O6    A    
C32   C37   S    
C19   H15   S    
C43   F4    S    
C10   H6    S    
C40   C41   S    
C21   H17   S    
C44   H49   S    
C25   H31   S    
C23   C35   S    
C41   H46   S    
C12   C31   S    
C8    C28   S    
C23   O12   A    
C42   C43   S    
C14   H18   S    
C40   F1    S    
C27   C52   S    
C20   H25   S    
C45   H53   S    
Cu2   N1    S    
Cu3   O12   S    
C43   N2    S    
C24   C28   S    
C42   F3    S    
C39   H43   S    
C51   N4    S    
C26   C37   S    
C6    H12   S    
C21   C35   S    
C13   H8    S    
C44   F5    S    
C16   C32   S    
C49   N2    S    
C33   C38   S    
Cu3   O5    S    
C12   O11   A    
C13   C17   S    
C22   C27   S    
C8    H4    S    
C24   H29   S    
C4    O7    A    
C46   N4    S    
C34   O14   A    
C10   C29   S    
C41   N2    S    
C38   H41   S    
C5    H64   S    
C12   O10   A    
C42   N1    S    
C1    C32   S    
C18   C33   S    
Cu4   N3    S    
C1    O9    A    
C50   N3    S    
C25   C36   S    
C7    H3    S    
C13   H63   S    
C49   H54   S    
C40   H44   S    
C6    H2    S    
C15   H10   S    
C25   H32   S    
Cu3   N4    S    
C43   H48   S    
C17   C32   S    
C22   H28   S    
C31   C36   S    
C48   N4    S    
C2    C28   S    
Cu1   N2    S    
C10   H56   S    
C4    C30   S    
C26   C30   S    
C22   C38   S    
