data_mof_unit_36685.cif
_audit_creation_date              2012-12-10T20:28:39-0500
_audit_creation_method            fapswitch 2.2
_symmetry_space_group_name_H-M    P1
_symmetry_Int_Tables_number       1
_space_group_crystal_system       triclinic
_cell_length_a                    10.862653
_cell_length_b                    10.788251
_cell_length_c                    9.891087
_cell_angle_alpha                 89.635444
_cell_angle_beta                  88.708585
_cell_angle_gamma                 90.337644
_cell_volume                      1158.78786032

loop_
_atom_site_label
_atom_site_type_symbol
_atom_type_description
_atom_site_fract_x
_atom_site_fract_y
_atom_site_fract_z
_atom_type_partial_charge
C1    C     C_R   0.511582 0.260032 0.499127 0.931772
C2    C     C_R   0.061331 0.536649 0.627915 0.116447
C3    C     C_R   0.129210 0.532422 0.505129 -0.214994
C4    C     C_R   0.069125 0.523499 0.383105 -0.301885
C5    C     C_R   0.944881 0.500257 0.380712 0.480828
C6    C     C_R   0.876069 0.490065 0.503069 -0.281848
C7    C     C_R   0.537550 0.060459 0.617645 0.009876
C8    C     C_R   0.540317 0.128154 0.496227 -0.164613
C9    C     C_R   0.567669 0.060992 0.374176 -0.013681
C10   C     C_R   0.557469 0.932047 0.377514 -0.339485
C11   C     C_R   0.531349 0.869701 0.498724 -0.040928
C12   C     C_R   0.261230 0.513967 0.501650 0.928469
C13   C     C_R   0.538482 0.934026 0.618614 0.034793
C14   C     C_3   0.467700 0.921499 0.748514 -0.558894
C15   C     C_3   0.462512 0.062910 0.749262 0.452553
C16   C     C_R   0.394162 0.475940 0.073983 0.047891
C17   C     C_R   0.598965 0.541770 0.068398 0.499608
C18   C     C_R   0.599010 0.540930 0.924725 -0.268903
C19   C     C_R   0.394126 0.476791 0.931721 0.103043
C20   C     C_3   0.318398 0.362175 0.928485 -0.549382
C21   C     C_3   0.315036 0.362388 0.082568 0.327244
C22   C     C_R   0.505578 0.739661 0.499571 0.863578
C23   C     C_R   0.740989 0.493608 0.499895 0.851585
C24   C     C_R   0.112024 0.578428 0.750210 -0.133141
C25   C     C_R   0.050083 0.557851 0.872998 -0.188010
C26   C     C_R   0.939284 0.493094 0.875301 -0.198077
C27   C     C_R   0.885037 0.459450 0.754775 -0.140358
C28   C     C_R   0.938593 0.495097 0.628503 0.076121
H1    H     H_    0.119484 0.526899 0.287307 0.175142
H2    H     H_    0.524873 0.881167 0.829470 0.209557
H3    H     H_    0.679541 0.572480 0.868415 0.175780
H4    H     H_    0.226945 0.376014 0.883534 0.192894
H5    H     H_    0.373059 0.286417 0.884901 0.254318
H6    H     H_    0.223967 0.382287 0.129942 0.061533
H7    H     H_    0.198336 0.628754 0.752056 0.149135
H8    H     H_    0.090627 0.587525 0.966491 0.136303
H9    H     H_    0.893480 0.470938 0.970190 0.180904
H10   H     H_    0.803132 0.402683 0.763110 0.154781
H11   H     H_    0.563831 0.881011 0.283901 0.135561
H12   H     H_    0.377774 0.873217 0.735995 0.168590
N1    N     N_R   0.499160 0.499140 0.142800 -0.110479
N2    N     N_R   0.499160 0.499180 0.857150 -0.113990
O1    O     O_R   0.500020 0.316790 0.614690 -0.622840
O2    O     O_R   0.500000 0.316760 0.385350 -0.521267
O3    O     O_R   0.316770 0.500020 0.614690 -0.607663
O4    O     O_R   0.316760 0.499980 0.385350 -0.629891
O5    O     O_R   0.500000 0.683240 0.614650 -0.621508
O6    O     O_R   0.499980 0.683210 0.385310 -0.654091
O7    O     O_R   0.683240 0.500020 0.614650 -0.653244
O8    O     O_R   0.683230 0.499980 0.385310 -0.537721
Zn1   Zn    Zn3+2 0.500010 0.500020 0.653130 0.943236
Zn2   Zn    Zn3+2 0.499990 0.499980 0.346870 1.027155
C29   C     C_2   0.329779 0.103270 0.738500 0.361690
H13   H     H_    0.267323 0.088833 0.824321 0.042978
O9    O     O_2   0.290209 0.149094 0.635151 -0.606210
O10   O     O_3   0.518879 0.109399 0.868305 -0.689402
C30   C     C_3   0.636438 0.165932 0.848882 0.121864
H14   H     H_    0.648590 0.233256 0.932134 0.184979
H15   H     H_    0.645369 0.221429 0.754966 0.151423
C31   C     C_3   0.739973 0.070330 0.856393 -0.402055
H16   H     H_    0.739902 0.029569 0.959283 0.222832
H17   H     H_    0.725387 0.993804 0.784348 0.235731
C32   C     C_3   0.865284 0.129251 0.823377 -0.950933
H18   H     H_    0.869495 0.160631 0.716158 0.267745
H19   H     H_    0.939040 0.060146 0.839105 0.274145
H20   H     H_    0.881943 0.210028 0.889481 0.269876
O11   O     O_3   0.704847 0.573471 0.132378 -0.607530
C33   C     C_3   0.715947 0.703223 0.143231 0.160724
H21   H     H_    0.718172 0.724795 0.252814 0.193228
H22   H     H_    0.638827 0.757274 0.099093 0.051728
C34   C     C_3   0.837198 0.744713 0.075568 -0.350623
H23   H     H_    0.908443 0.672731 0.088405 0.273799
H24   H     H_    0.823263 0.758877 0.965532 0.203405
C35   C     C_3   0.885085 0.863384 0.137688 -0.999377
H25   H     H_    0.809685 0.931538 0.148802 0.259639
H26   H     H_    0.959812 0.902001 0.071489 0.272382
H27   H     H_    0.922402 0.843909 0.239277 0.281731
O12   O     O_3   0.376902 0.260956 0.140525 -0.559658
C36   C     C_3   0.308077 0.149661 0.126887 0.071697
H28   H     H_    0.369521 0.080677 0.077895 0.188509
H29   H     H_    0.226937 0.158019 0.060694 0.107886
C37   C     C_3   0.266012 0.099810 0.266065 -0.311629
H30   H     H_    0.338192 0.114907 0.340612 0.261505
H31   H     H_    0.184639 0.150908 0.303652 0.228175
C38   C     C_3   0.235266 0.961587 0.262026 -0.961201
H32   H     H_    0.162754 0.943133 0.187468 0.260247
H33   H     H_    0.201578 0.930046 0.363424 0.279625
H34   H     H_    0.318603 0.907554 0.233924 0.261946
O13   O     O_3   0.894200 0.485856 0.255470 -0.627910
C39   C     C_3   0.868952 0.359306 0.233001 0.216360
H35   H     H_    0.801043 0.355141 0.151335 0.222273
H36   H     H_    0.827769 0.311762 0.323845 0.156422
C40   C     C_3   0.982912 0.289895 0.183699 -0.497174
H37   H     H_    0.014977 0.327174 0.084201 0.222715
H38   H     H_    0.057175 0.301619 0.257089 0.226994
C41   C     C_3   0.953595 0.152761 0.170501 -0.947486
H39   H     H_    0.944924 0.108772 0.272161 0.282746
H40   H     H_    0.027568 0.106737 0.111395 0.267917
H41   H     H_    0.866112 0.139858 0.116991 0.288709
C42   C     C_2   0.596006 0.113909 0.238127 0.450225
H42   H     H_    0.581914 0.057852 0.149008 0.068427
O14   O     O_2   0.641069 0.216172 0.222098 -0.602896

loop_
_geom_bond_atom_site_label_1
_geom_bond_atom_site_label_2
_ccdc_geom_bond_type
C22   O6    A    
C32   H19   S    
C40   H37   S    
C1    C8    S    
C19   C20   S    
C39   H35   S    
C7    C8    A    
C38   H32   S    
C26   C27   A    
C16   C21   S    
C35   H26   S    
C31   C32   S    
C15   C29   S    
C18   N2    A    
C5    C6    A    
C23   O7    A    
O3    Zn1   S    
C27   H10   S    
C41   H41   S    
O4    Zn2   S    
O10   C30   S    
C31   H17   S    
C3    C12   S    
C33   H21   S    
C1    O1    A    
C6    C28   A    
C8    C9    A    
O7    Zn1   S    
C35   H27   S    
C41   H40   S    
C21   O12   S    
O8    Zn2   S    
C9    C10   A    
N1    Zn2   S    
C4    H1    S    
C19   N2    A    
N2    Zn1   S    
O2    Zn2   S    
C29   O9    D    
C22   O5    A    
C32   H20   S    
C40   H38   S    
C13   C14   S    
C14   H2    S    
C38   H33   S    
C17   O11   S    
C24   H7    S    
C35   H25   S    
O11   C33   S    
C24   C25   A    
C12   O4    A    
C34   H24   S    
O12   C36   S    
C12   O3    A    
C30   C31   S    
O5    Zn1   S    
C21   H6    S    
C25   C26   A    
C29   H13   S    
C32   H18   S    
C10   H11   S    
C36   C37   S    
C1    O2    A    
C39   H36   S    
C7    C13   A    
C41   H39   S    
C42   O14   D    
C17   C18   A    
C20   H5    S    
C9    C42   S    
C37   H31   S    
C2    C24   A    
C3    C4    A    
C39   C40   S    
C36   H29   S    
C20   H4    S    
C38   H34   S    
C4    C5    A    
C23   O8    A    
C34   C35   S    
C26   H9    S    
C33   C34   S    
C40   C41   S    
C37   C38   S    
C11   C22   S    
C15   O10   S    
C2    C3    A    
C34   H23   S    
C11   C13   A    
O1    Zn1   S    
C30   H14   S    
C16   C19   A    
C6    C23   S    
C7    C15   S    
C42   H42   S    
C17   N1    A    
C30   H15   S    
C10   C11   A    
C25   H8    S    
C14   H12   S    
C36   H28   S    
O6    Zn2   S    
C20   C21   S    
C33   H22   S    
C37   H30   S    
C27   C28   A    
C14   C15   S    
C31   H16   S    
C2    C28   A    
C18   H3    S    
O13   C39   S    
C16   N1    A    
C5    O13   S    
