data_mof_unit_38400.cif
_audit_creation_date              2012-10-26T20:19:31-0400
_audit_creation_method            fapswitch 2.2
_symmetry_space_group_name_H-M    P1
_symmetry_Int_Tables_number       1
_space_group_crystal_system       triclinic
_cell_length_a                    10.889962
_cell_length_b                    10.84986
_cell_length_c                    9.776457
_cell_angle_alpha                 90.783003
_cell_angle_beta                  91.827348
_cell_angle_gamma                 93.991597
_cell_volume                      1151.59876898

loop_
_atom_site_label
_atom_site_type_symbol
_atom_type_description
_atom_site_fract_x
_atom_site_fract_y
_atom_site_fract_z
_atom_type_partial_charge
C1    C     C_R   0.506169 0.263010 0.499928 0.594704
C2    C     C_R   0.535810 0.063260 0.623460 -0.053155
C3    C     C_R   0.508841 0.127543 0.500414 0.047043
C4    C     C_R   0.260568 0.493508 0.497546 0.571984
C5    C     C_R   0.465960 0.060675 0.380702 0.219559
C6    C     C_R   0.447023 0.931426 0.383994 0.237143
C7    C     C_R   0.469721 0.869872 0.506542 0.004437
C8    C     C_R   0.695917 0.632303 0.149803 0.038784
C9    C     C_R   0.808886 0.648415 0.087338 0.147837
C10   C     C_R   0.807845 0.657480 0.947175 0.214002
C11   C     C_R   0.695975 0.635181 0.872203 0.341722
C12   C     C_3   0.877465 0.485763 0.500412 0.027432
C13   C     C_R   0.594859 0.565740 0.930737 0.092593
C14   C     C_R   0.593839 0.566835 0.078847 -0.002535
C15   C     C_R   0.413785 0.432436 0.071759 0.443730
C16   C     C_R   0.487312 0.735855 0.501353 0.596955
C17   C     C_R   0.412280 0.433468 0.924098 0.342827
C18   C     C_R   0.738523 0.490337 0.500989 0.631144
C19   C     C_3   0.073330 0.404572 0.612732 0.096925
C20   C     C_3   0.928113 0.393791 0.610197 0.169273
C21   C     C_3   0.080802 0.624221 0.517962 0.125806
C22   C     C_3   0.060042 0.430616 0.353532 0.143099
C23   C     C_3   0.935282 0.621812 0.519108 0.394859
C24   C     C_3   0.121728 0.488796 0.492981 -0.003181
C25   C     C_1   0.128402 0.708206 0.410915 0.315606
C26   C     C_1   0.682029 0.740944 0.231954 0.390874
C27   C     C_1   0.882804 0.265042 0.572797 0.399651
C28   C     C_1   0.102852 0.493185 0.227739 0.314026
C29   C     C_3   0.918022 0.438510 0.357516 -0.244072
C30   C     C_R   0.604009 0.116053 0.740330 0.230158
C31   C     C_R   0.610192 0.048858 0.863781 0.186686
C32   C     C_R   0.533713 0.940320 0.876686 0.321074
C33   C     C_R   0.468767 0.889734 0.762174 0.289718
C34   C     C_R   0.490719 0.939218 0.630486 -0.149037
Cu1   Cu    Cu3+1 0.499990 0.499990 0.640660 1.104707
Cu2   Cu    Cu3+1 0.500010 0.500010 0.359340 1.108904
H1    H     H_    0.108384 0.446298 0.711936 0.170819
H2    H     H_    0.352416 0.914242 0.211191 0.369420
H3    H     H_    0.275062 0.307793 0.077731 0.360851
H4    H     H_    0.111411 0.248392 0.695495 0.352347
H5    H     H_    0.936116 0.779360 0.126259 0.366567
H6    H     H_    0.984984 0.684493 0.933496 0.359541
H7    H     H_    0.730564 0.777842 0.759465 0.348546
H8    H     H_    0.346709 0.337345 0.768370 0.379292
H9    H     H_    0.928614 0.492031 0.780878 0.355200
H10   H     H_    0.096145 0.637517 0.721283 0.356576
H11   H     H_    0.926086 0.759157 0.646811 0.369463
H12   H     H_    0.884742 0.498294 0.276182 0.199945
H13   H     H_    0.173450 0.298289 0.338491 0.385420
H14   H     H_    0.869818 0.347295 0.330174 0.160707
H15   H     H_    0.909940 0.781509 0.431010 0.347431
H16   H     H_    0.473670 0.074870 0.183536 0.349800
H17   H     H_    0.671912 0.271429 0.819909 0.351865
H18   H     H_    0.760717 0.134816 0.937961 0.358724
H19   H     H_    0.575015 0.922406 0.070177 0.364716
H20   H     H_    0.320996 0.794205 0.703259 0.362825
N1    N     N_R   0.501200 0.501210 0.147910 -0.233442
N2    N     N_R   0.501250 0.501290 0.852040 -0.245662
N3    N     N_1   0.163865 0.774925 0.327447 -0.217600
N4    N     N_1   0.679654 0.832093 0.294444 -0.259296
N5    N     N_1   0.849273 0.164542 0.542116 -0.233960
N6    N     N_1   0.135413 0.541383 0.129013 -0.217213
O1    O     O_R   0.499990 0.319640 0.618810 -0.528452
O2    O     O_3   0.443891 0.122873 0.261031 -0.649271
O3    O     O_3   0.671866 0.227160 0.730478 -0.656949
O4    O     O_3   0.687074 0.088441 0.973164 -0.718390
O5    O     O_3   0.522169 0.878537 0.998541 -0.640652
O6    O     O_3   0.377806 0.798074 0.784244 -0.583977
O7    O     O_3   0.403910 0.863213 0.269751 -0.636072
O8    O     O_3   0.330025 0.358424 0.142168 -0.633555
O9    O     O_3   0.123448 0.288148 0.605501 -0.669628
O10   O     O_3   0.911125 0.696517 0.162165 -0.675208
O11   O     O_3   0.909705 0.711834 0.886546 -0.694921
O12   O     O_R   0.500000 0.319660 0.381240 -0.427289
O13   O     O_3   0.680866 0.697639 0.753612 -0.585771
O14   O     O_3   0.317828 0.364086 0.857078 -0.727878
O15   O     O_3   0.884084 0.416778 0.741393 -0.688137
O16   O     O_3   0.135446 0.675175 0.640838 -0.727563
O17   O     O_3   0.896388 0.670407 0.641216 -0.635311
O18   O     O_3   0.083060 0.304795 0.339793 -0.637823
O19   O     O_R   0.317680 0.499970 0.618790 -0.475084
O20   O     O_R   0.317700 0.499990 0.381210 -0.489254
O21   O     O_R   0.500000 0.680340 0.618760 -0.429893
O22   O     O_R   0.500010 0.680360 0.381190 -0.451059
O23   O     O_R   0.682300 0.500010 0.618790 -0.386951
O24   O     O_R   0.682320 0.500030 0.381210 -0.545850
O25   O     O_3   0.886885 0.692416 0.413159 -0.659230

loop_
_geom_bond_atom_site_label_1
_geom_bond_atom_site_label_2
_ccdc_geom_bond_type
C31   O4    S    
H4    O9    S    
C12   C29   S    
C6    O7    S    
C8    C26   S    
C19   O9    S    
C19   C20   S    
C9    O10   S    
H11   O17   S    
Cu1   O19   S    
C12   C23   S    
C18   O24   A    
C20   O15   S    
Cu1   N2    S    
C1    O12   A    
C22   C29   S    
C5    C6    A    
C4    C24   S    
C10   O11   S    
C16   O22   A    
H8    O14   S    
C19   H1    S    
C4    O19   A    
Cu1   Cu2   S    
Cu2   O20   S    
C8    C9    A    
C21   O16   S    
C17   O14   S    
H17   O3    S    
C9    C10   A    
C17   N2    A    
C2    C34   A    
Cu1   O1    S    
H2    O7    S    
C23   O25   S    
C13   C14   A    
C15   N1    A    
C1    O1    A    
C29   H14   S    
H7    O13   S    
C18   O23   A    
C29   H12   S    
C15   O8    S    
Cu2   N1    S    
H16   O2    S    
H15   O25   S    
H10   O16   S    
Cu1   O21   S    
C13   N2    A    
Cu2   O24   S    
H20   O6    S    
C16   O21   A    
C5    O2    S    
C1    C3    S    
C27   N5    T    
C31   C32   A    
C12   C20   S    
C33   C34   A    
Cu2   O12   S    
C32   O5    S    
C7    C16   S    
C21   C23   S    
C7    C34   A    
C22   C24   S    
C15   C17   A    
C14   N1    A    
C21   C25   S    
Cu1   O23   S    
H6    O11   S    
C8    C14   A    
C3    C5    A    
H19   O5    S    
C6    C7    A    
H18   O4    S    
C20   C27   S    
H5    O10   S    
H13   O18   S    
C2    C30   A    
C23   O17   S    
C32   C33   A    
C2    C3    A    
C22   O18   S    
C11   O13   S    
C11   C13   A    
C30   C31   A    
Cu2   O22   S    
H3    O8    S    
C19   C24   S    
C30   O3    S    
C10   C11   A    
C4    O20   A    
C21   C24   S    
C12   C18   S    
C22   C28   S    
C25   N3    T    
H9    O15   S    
C26   N4    T    
C33   O6    S    
C28   N6    T    
