data_mof_unit_51733.cif
_audit_creation_date              2013-03-05T15:52:18-0500
_audit_creation_method            fapswitch 2.2
_symmetry_space_group_name_H-M    P1
_symmetry_Int_Tables_number       1
_space_group_crystal_system       triclinic
_cell_length_a                    21.43328
_cell_length_b                    7.243588
_cell_length_c                    14.753686
_cell_angle_alpha                 90.003326
_cell_angle_beta                  74.441892
_cell_angle_gamma                 89.999271
_cell_volume                      2206.63773858

loop_
_atom_site_label
_atom_site_type_symbol
_atom_site_description
_atom_site_fract_x
_atom_site_fract_y
_atom_site_fract_z
_atom_type_partial_charge
O1    O     O_R   0.464160 0.506670 0.130070 -0.557979
O2    O     O_R   0.535840 0.006670 0.869930 -0.558006
O3    O     O_R   0.589710 0.179080 0.006710 -0.569023
O4    O     O_R   0.410290 0.679080 0.993290 -0.568970
C1    C     C_R   0.615873 0.344685 0.004004 0.908634
C2    C     C_R   0.384127 0.844686 0.995998 0.908589
O5    O     O_R   0.467940 0.177220 0.138010 -0.598703
O6    O     O_R   0.532060 0.677220 0.861990 -0.598654
O7    O     O_R   0.413200 0.002810 0.002170 -0.603012
O8    O     O_R   0.586800 0.502810 0.997830 -0.603022
C3    C     C_R   0.456381 0.345498 0.174433 0.929602
C4    C     C_R   0.543618 0.845485 0.825567 0.929516
O9    O     O_3   0.482180 0.337850 0.955280 -0.286342
O10   O     O_3   0.517820 0.837850 0.044720 -0.286382
V1    V     V_3+5 0.503310 0.064600 0.008300 1.215758
V2    V     V_3+5 0.496690 0.564600 0.991700 1.215824
C5    C     C_R   0.571448 0.853486 0.723916 -0.091641
C6    C     C_R   0.428553 0.353556 0.276083 -0.091652
C7    C     C_R   0.927793 0.863928 0.276015 -0.079639
C8    C     C_R   0.072208 0.363847 0.723987 -0.079648
C9    C     C_R   0.558879 0.882444 0.566978 -0.166883
C10   C     C_R   0.441109 0.383243 0.432998 -0.166856
C11   C     C_R   0.531629 0.874676 0.663815 -0.187352
C12   C     C_R   0.468360 0.375263 0.336166 -0.187416
C13   C     C_R   0.638543 0.840386 0.687499 -0.138357
C14   C     C_R   0.361467 0.340164 0.312514 -0.138221
C15   C     C_R   0.667809 0.853245 0.589580 0.090905
C16   C     C_R   0.332195 0.353267 0.410424 0.090888
C17   C     C_R   0.626356 0.872080 0.529477 0.176178
C18   C     C_R   0.373638 0.372613 0.470510 0.176161
C19   C     C_R   0.736479 0.849006 0.549627 0.057116
C20   C     C_R   0.263527 0.348810 0.450382 0.057148
C21   C     C_R   0.762383 0.858741 0.449650 0.060440
C22   C     C_R   0.237619 0.358861 0.550351 0.060423
C23   C     C_R   0.718753 0.873284 0.393066 -0.176764
C24   C     C_R   0.281243 0.373876 0.606922 -0.176776
C25   C     C_R   0.652328 0.880871 0.432425 -0.227079
C26   C     C_R   0.347664 0.381664 0.567555 -0.227067
C27   C     C_R   0.780095 0.838377 0.606370 -0.143789
C28   C     C_R   0.219916 0.337653 0.393650 -0.143794
C29   C     C_R   0.846562 0.837135 0.567297 -0.244514
C30   C     C_R   0.153450 0.336175 0.432727 -0.244501
C31   C     C_R   0.872584 0.846038 0.470299 0.178427
C32   C     C_R   0.127424 0.345383 0.529718 0.178427
C33   C     C_R   0.831100 0.855823 0.409789 0.107635
C34   C     C_R   0.168904 0.355746 0.590216 0.107632
C35   C     C_R   0.940189 0.845957 0.433355 -0.170366
C36   C     C_R   0.059820 0.345004 0.566666 -0.170355
C37   C     C_R   0.967623 0.855497 0.336670 -0.177628
C38   C     C_R   0.032382 0.354798 0.663344 -0.177636
C39   C     C_R   0.860439 0.863189 0.311706 -0.226684
C40   C     C_R   0.139562 0.363438 0.688292 -0.226704
H1    H     H_    0.620890 0.894180 0.386151 0.138672
H2    H     H_    0.379095 0.395344 0.613818 0.138620
H3    H     H_    0.832782 0.868241 0.260651 0.100084
H4    H     H_    0.167217 0.368945 0.739340 0.100101
H5    H     H_    0.019848 0.855664 0.309089 0.109219
H6    H     H_    0.980157 0.354668 0.690929 0.109240
H7    H     H_    0.878015 0.829811 0.613806 0.139854
H8    H     H_    0.122000 0.328417 0.386227 0.139819
H9    H     H_    0.527167 0.897601 0.521250 0.125672
H10   H     H_    0.472813 0.398804 0.478712 0.125680
H11   H     H_    0.479556 0.884161 0.691873 0.115608
H12   H     H_    0.520425 0.384998 0.308097 0.115702
H13   H     H_    0.666091 0.820207 0.737921 0.143702
H14   H     H_    0.333928 0.319637 0.262108 0.143498
H15   H     H_    0.734131 0.881328 0.317519 0.133454
H16   H     H_    0.265863 0.382129 0.682463 0.133460
H17   H     H_    0.764727 0.833092 0.681970 0.169075
H18   H     H_    0.235286 0.332100 0.318055 0.168823
H19   H     H_    0.971899 0.838902 0.479461 0.124135
H20   H     H_    0.028114 0.337479 0.520569 0.124140
C41   C     C_3   0.224907 0.710702 0.927633 -0.053048
C42   C     C_3   0.775111 0.210546 0.072279 -0.053094
H21   H     H_    0.203135 0.573852 0.951974 0.127637
H22   H     H_    0.796893 0.073743 0.047841 0.127668
C43   C     C_3   0.297635 0.704212 0.927297 -0.370066
C44   C     C_3   0.702382 0.204080 0.072625 -0.370019
H23   H     H_    0.329996 0.724800 0.855155 0.142702
H24   H     H_    0.670025 0.224557 0.144782 0.142747
H25   H     H_    0.309305 0.563637 0.947819 0.199277
H26   H     H_    0.690718 0.063542 0.052040 0.199270
H27   H     H_    0.173556 0.681034 0.118850 0.200059
H28   H     H_    0.826465 0.181295 0.881038 0.199980
C45   C     C_3   0.195415 0.818381 0.096022 -0.529980
C46   C     C_3   0.804587 0.318593 0.903956 -0.530053
C47   C     C_3   0.221646 0.053505 0.965702 -0.391298
C48   C     C_3   0.778330 0.553438 0.034430 -0.391382
C49   C     C_3   0.188007 0.863517 0.996635 0.011363
C50   C     C_3   0.811992 0.363515 0.003371 0.011451
H29   H     H_    0.198396 0.162078 0.017175 0.176636
H30   H     H_    0.801571 0.662135 0.983034 0.176572
H31   H     H_    0.213817 0.095750 0.896966 0.159564
H32   H     H_    0.786149 0.595514 0.103199 0.159529
C51   C     C_3   0.313168 0.852948 0.994811 -0.137668
C52   C     C_3   0.686831 0.352947 0.005193 -0.137603
C53   C     C_3   0.267995 0.823562 0.096686 0.289990
C54   C     C_3   0.732006 0.323764 0.903300 0.289975
C55   C     C_3   0.294962 0.046525 0.961184 -0.118377
C56   C     C_3   0.705017 0.546460 0.038929 -0.118318
H33   H     H_    0.304451 0.155086 0.009211 0.159311
H34   H     H_    0.695523 0.655115 0.990958 0.159131
H35   H     H_    0.167741 0.920558 0.147797 0.143047
H36   H     H_    0.832245 0.420890 0.852245 0.143131
H37   H     H_    0.274303 0.946200 0.139110 0.061269
H38   H     H_    0.725681 0.446488 0.860948 0.061368
O11   O     O_R   0.913210 0.208550 0.002110 -0.595325
O12   O     O_R   0.086790 0.708550 0.997890 -0.595325
O13   O     O_R   0.032060 0.539960 0.861980 -0.586862
O14   O     O_R   0.967940 0.039960 0.138020 -0.586861
C57   C     C_R   0.043989 0.372518 0.825478 0.913192
C58   C     C_R   0.956010 0.872532 0.174522 0.913202
O15   O     O_R   0.910290 0.538020 0.993280 -0.598012
O16   O     O_R   0.089710 0.038020 0.006720 -0.598017
O17   O     O_R   0.964160 0.712340 0.130090 -0.586687
O18   O     O_R   0.035840 0.212340 0.869910 -0.586676
C59   C     C_R   0.883753 0.370276 0.999860 0.891488
C60   C     C_R   0.116247 0.870275 0.000145 0.891508
O19   O     O_3   0.017820 0.379210 0.044690 -0.285881
O20   O     O_3   0.982180 0.879210 0.955310 -0.285883
V3    V     V_3+5 0.996690 0.652500 0.991710 1.159264
V4    V     V_3+5 0.003310 0.152500 0.008290 1.159277
C61   C     C_1   0.218454 0.737344 0.831239 0.021213
N1    N     N_1   0.213372 0.758617 0.755799 -0.077475
C62   C     C_1   0.781569 0.236948 0.168687 0.021323
N2    N     N_1   0.786655 0.258029 0.244140 -0.077475
N3    N     N_R   0.285300 0.659515 0.143191 0.233975
O21   O     O_R   0.275019 0.493796 0.116304 -0.474609
O22   O     O_R   0.307770 0.679568 0.216223 -0.433474
N4    N     N_R   0.714720 0.159808 0.856697 0.233910
O23   O     O_R   0.724983 0.994030 0.883522 -0.474650
O24   O     O_R   0.692276 0.180010 0.783650 -0.433540
C63   C     C_1   0.334786 0.094972 0.865812 0.076257
N5    N     N_1   0.365934 0.133051 0.791200 -0.105512
C64   C     C_1   0.665181 0.594739 0.134323 0.076058
N6    N     N_1   0.634023 0.632688 0.208953 -0.105623

loop_
_geom_bond_atom_site_label_1
_geom_bond_atom_site_label_2
_geom_bond_distance
_ccdc_geom_bond_type
C32   C36   1.404631 A    
C3    C6    1.458924 S    
O17   V3    2.019530 S    
C47   H29   1.113767 S    
C15   C17   1.420194 A    
C21   C33   1.432092 A    
O1    C3    1.326920 A    
O12   V3    1.999229 S    
C53   N3    1.468662 S    
O2    C4    1.326932 A    
C2    O7    1.318691 A    
C61   N1    1.157351 T    
C27   C29   1.386138 A    
C7    C58   1.458102 S    
O5    C3    1.328327 A    
C18   C26   1.391620 A    
C5    C11   1.394344 A    
C28   H18   1.075624 S    
C6    C12   1.394336 A    
C23   C25   1.386959 A    
H28   C46   1.112745 S    
O13   C57   1.323833 A    
C44   H24   1.113649 S    
C42   C62   1.478009 S    
C33   C39   1.415702 A    
C51   C55   1.571136 S    
C34   C40   1.415702 A    
C37   H5    1.083607 S    
C55   C63   1.478998 S    
C7    C37   1.393950 A    
C8    C38   1.393944 A    
C48   H30   1.113777 S    
C44   C52   1.562585 S    
C16   C18   1.420186 A    
C41   C61   1.477997 S    
C52   C54   1.568836 S    
C4    C5    1.458919 S    
C19   C21   1.431655 A    
C57   O18   1.321027 A    
C22   C34   1.432092 A    
C23   H15   1.075768 S    
C9    H9    1.084082 S    
C45   H35   1.113544 S    
C56   C64   1.478995 S    
C25   H1    1.084525 S    
C11   H11   1.083453 S    
C46   H36   1.113563 S    
C12   H12   1.083448 S    
C29   C31   1.391067 A    
C30   C32   1.391070 A    
C36   H20   1.084088 S    
C16   C20   1.431524 A    
C32   C34   1.420694 A    
C47   C55   1.555658 S    
C43   H23   1.113642 S    
C48   H32   1.114256 S    
C15   C19   1.431522 A    
C14   H14   1.076578 S    
C50   C59   1.525779 S    
O12   C60   1.335412 A    
C64   N6    1.157314 T    
C13   H13   1.076582 S    
C29   H7    1.084557 S    
C35   C37   1.391188 A    
C46   C50   1.551523 S    
C30   H8    1.084551 S    
C45   C49   1.551500 S    
O5    V1    2.030765 S    
C9    C17   1.405049 A    
C43   C51   1.562560 S    
C38   H6    1.083609 S    
O4    V2    2.023400 S    
N4    O24   1.300919 A    
N3    O22   1.300912 A    
C10   H10   1.084073 S    
C8    C57   1.458099 S    
C44   H26   1.109851 S    
C26   H2    1.084519 S    
C43   H25   1.109846 S    
O6    C4    1.328306 A    
C6    C14   1.396864 A    
C54   N4    1.468681 S    
C56   H34   1.113148 S    
C27   H17   1.075622 S    
O1    V2    2.016522 S    
O16   C60   1.334051 A    
O2    V1    2.016471 S    
C31   C33   1.420699 A    
C35   H19   1.084091 S    
C48   C56   1.555682 S    
O18   V4    2.019585 S    
O15   C59   1.334069 A    
O4    C2    1.320233 A    
H27   C45   1.112725 S    
C48   C50   1.563871 S    
C9    C11   1.392070 A    
C62   N2    1.157364 T    
C10   C12   1.392065 A    
C41   H21   1.113345 S    
N3    O21   1.301431 A    
C1    C52   1.526829 S    
O3    V1    2.023418 S    
O20   V3    1.780901 S    
O19   V4    1.780851 S    
C10   C18   1.405043 A    
C55   H33   1.113133 S    
C28   C30   1.386135 A    
O3    C1    1.320242 A    
C51   C53   1.568828 S    
C13   C15   1.415313 A    
C52   C56   1.571158 S    
C14   C16   1.415318 A    
C54   H38   1.115597 S    
C5    C13   1.396866 A    
C42   C50   1.566918 S    
C24   C26   1.386953 A    
N4    O23   1.301448 A    
O7    V1    2.008073 S    
C53   H37   1.115584 S    
C1    O8    1.318694 A    
C8    C40   1.397706 A    
O8    V2    2.008060 S    
O14   V4    2.030877 S    
C42   H22   1.113362 S    
O13   V3    2.030780 S    
C63   N5    1.157312 T    
C47   H31   1.114245 S    
C36   C38   1.391190 A    
C21   C23   1.414687 A    
C22   C24   1.414678 A    
C19   C27   1.414397 A    
C39   H3    1.076862 S    
C20   C28   1.414396 A    
C46   C54   1.558726 S    
O14   C58   1.323808 A    
C45   C53   1.558724 S    
C41   C49   1.566890 S    
O16   V4    2.023471 S    
C7    C39   1.397710 A    
O15   V3    2.023492 S    
C49   C60   1.525772 S    
O6    V2    2.030863 S    
C2    C51   1.526827 S    
C42   C44   1.558158 S    
O9    V2    1.781222 S    
C17   C25   1.391622 A    
C47   C49   1.563852 S    
C41   C43   1.558175 S    
O10   V1    1.781270 S    
O11   V4    1.999221 S    
C31   C35   1.404634 A    
C24   H16   1.075761 S    
O11   C59   1.335405 A    
C58   O17   1.321047 A    
C40   H4    1.076854 S    
C20   C22   1.431655 A    
