data_mof_unit_68065.cif
_audit_creation_date              2012-12-11T14:39:34-0500
_audit_creation_method            fapswitch 2.2
_symmetry_space_group_name_H-M    P1
_symmetry_Int_Tables_number       1
_space_group_crystal_system       triclinic
_cell_length_a                    7.334416
_cell_length_b                    14.069325
_cell_length_c                    16.644982
_cell_angle_alpha                 90.0
_cell_angle_beta                  97.290041
_cell_angle_gamma                 89.999981
_cell_volume                      1703.71619359

loop_
_atom_site_label
_atom_site_type_symbol
_atom_type_description
_atom_site_fract_x
_atom_site_fract_y
_atom_site_fract_z
_atom_type_partial_charge
O1    O     O_R   0.525340 0.338340 0.164530 -0.534384
O2    O     O_R   0.474660 0.661660 0.835470 -0.537755
O3    O     O_R   0.974660 0.838340 0.835470 -0.534384
O4    O     O_R   0.025340 0.161660 0.164530 -0.537755
O5    O     O_R   0.253520 0.352000 0.336710 -0.533783
O6    O     O_R   0.746480 0.648000 0.663290 -0.519243
O7    O     O_R   0.246480 0.852000 0.663290 -0.533783
O8    O     O_R   0.753520 0.148000 0.336710 -0.519243
O9    O     O_R   0.083330 0.168380 0.337300 -0.514328
O10   O     O_R   0.916670 0.831620 0.662700 -0.500132
O11   O     O_R   0.416670 0.668380 0.662700 -0.514328
O12   O     O_R   0.583330 0.331620 0.337300 -0.500132
C1    C     C_R   0.433279 0.365620 0.365870 0.817881
C2    C     C_R   0.567865 0.631450 0.636222 0.800650
C3    C     C_R   0.066721 0.865620 0.634130 0.817880
C4    C     C_R   0.932135 0.131450 0.363778 0.800648
O13   O     O_R   0.195840 0.349670 0.165140 -0.526450
O14   O     O_R   0.804160 0.650330 0.834860 -0.522522
O15   O     O_R   0.304160 0.849670 0.834860 -0.526450
O16   O     O_R   0.695840 0.150330 0.165140 -0.522522
C5    C     C_R   0.356724 0.368601 0.136289 0.754392
C6    C     C_R   0.643337 0.632630 0.864635 0.766631
C7    C     C_R   0.143276 0.868601 0.863711 0.754392
C8    C     C_R   0.856663 0.132630 0.135365 0.766631
O17   O     O_3   0.387830 0.193120 0.250910 -0.382161
O18   O     O_3   0.612170 0.806880 0.749090 -0.385938
O19   O     O_3   0.112170 0.693120 0.749090 -0.382161
O20   O     O_3   0.887830 0.306880 0.250910 -0.385938
V1    V     V_3+5 0.113010 0.264540 0.250910 1.544739
V2    V     V_3+5 0.886990 0.735460 0.749090 1.556053
V3    V     V_3+5 0.386990 0.764540 0.749090 1.544739
V4    V     V_3+5 0.613010 0.235460 0.250910 1.556052
H1    H     H_    0.901006 0.808234 0.256705 0.184410
H2    H     H_    0.059724 0.185663 0.740636 0.170552
H3    H     H_    0.598992 0.308234 0.743295 0.184411
H4    H     H_    0.440274 0.685664 0.259364 0.170551
C9    C     C_R   0.017805 0.199913 0.535955 -0.049676
C10   C     C_R   0.994292 0.794493 0.460684 -0.057198
C11   C     C_R   0.482195 0.699913 0.464045 -0.049676
C12   C     C_R   0.505707 0.294493 0.539316 -0.057198
C13   C     C_R   0.051325 0.228924 0.617904 -0.068477
C14   C     C_R   0.979135 0.765166 0.378635 -0.063291
C15   C     C_R   0.448674 0.728924 0.382096 -0.068477
C16   C     C_R   0.520864 0.265166 0.621365 -0.063292
C17   C     C_R   0.048516 0.162518 0.677984 -0.194210
C18   C     C_R   0.925490 0.830781 0.319451 -0.176445
C19   C     C_R   0.451483 0.662518 0.322016 -0.194210
C20   C     C_R   0.574508 0.330781 0.680549 -0.176448
C21   C     C_R   0.021251 0.067018 0.660941 0.234568
C22   C     C_R   0.903234 0.926107 0.336179 0.253049
C23   C     C_R   0.478747 0.567018 0.339059 0.234568
C24   C     C_R   0.596764 0.426107 0.663821 0.253045
C25   C     C_R   0.015320 0.031502 0.579915 0.067938
C26   C     C_R   0.951168 0.962953 0.416746 0.050402
C27   C     C_R   0.484680 0.531502 0.420085 0.067937
C28   C     C_R   0.548831 0.462953 0.583254 0.050401
C29   C     C_R   0.001171 0.099056 0.514837 0.033284
C30   C     C_R   0.990298 0.895503 0.481772 0.019549
C31   C     C_R   0.498829 0.599056 0.485163 0.033284
C32   C     C_R   0.509702 0.395503 0.518228 0.019549
C33   C     C_R   0.023703 0.931440 0.563805 -0.113754
C34   C     C_R   0.964533 0.063640 0.432892 -0.128932
C35   C     C_R   0.476297 0.431440 0.436196 -0.113754
C36   C     C_R   0.535467 0.563640 0.567108 -0.128931
C37   C     C_2   0.146083 0.942613 0.927762 -0.374518
C38   C     C_2   0.853947 0.061149 0.069002 -0.385889
C39   C     C_2   0.353917 0.442613 0.072238 -0.374518
C40   C     C_2   0.646053 0.561149 0.930998 -0.385888
C41   C     C_2   0.006666 0.956717 0.974196 -0.048444
C42   C     C_2   0.996942 0.045635 0.024869 -0.046112
C43   C     C_2   0.493334 0.456717 0.025804 -0.048444
C44   C     C_2   0.503059 0.545635 0.975131 -0.046112
H5    H     H_    0.735808 0.014709 0.061599 0.178078
H6    H     H_    0.259467 0.992216 0.930180 0.177151
H7    H     H_    0.764191 0.514708 0.938401 0.178077
H8    H     H_    0.240533 0.492217 0.069820 0.177152
C45   C     C_2   0.987642 0.279368 0.477923 0.813200
O21   O     O_2   0.835286 0.293078 0.443012 -0.562641
O22   O     O_R   0.121236 0.349007 0.475053 -0.647684
H9    H     H_    0.071454 0.407887 0.444600 0.328746
C46   C     C_2   0.012694 0.715498 0.519315 0.827518
O23   O     O_2   0.157067 0.702333 0.561303 -0.559390
O24   O     O_R   0.877934 0.645447 0.515374 -0.646219
H10   H     H_    0.919113 0.587479 0.549141 0.328436
C47   C     C_2   0.512358 0.779368 0.522077 0.813199
O25   O     O_2   0.664713 0.793078 0.556988 -0.562640
O26   O     O_R   0.378764 0.849008 0.524947 -0.647686
H11   H     H_    0.428545 0.907887 0.555399 0.328746
C48   C     C_2   0.487306 0.215498 0.480685 0.827518
O27   O     O_2   0.342933 0.202333 0.438696 -0.559389
O28   O     O_R   0.622066 0.145447 0.484626 -0.646219
H12   H     H_    0.580888 0.087479 0.450859 0.328436
C49   C     C_2   0.082682 0.329130 0.645638 0.747710
O29   O     O_2   0.001009 0.395109 0.609386 -0.566600
O30   O     O_R   0.201791 0.347157 0.716490 -0.663603
H13   H     H_    0.222369 0.417449 0.727387 0.281321
C50   C     C_2   0.026669 0.667888 0.349434 0.746179
O31   O     O_2   0.060931 0.601205 0.395860 -0.571052
O32   O     O_R   0.042801 0.654252 0.267247 -0.665162
H14   H     H_    0.081561 0.587240 0.254653 0.284917
C51   C     C_2   0.417321 0.829130 0.354363 0.747706
O33   O     O_2   0.499001 0.895109 0.390614 -0.566600
O34   O     O_R   0.298208 0.847158 0.283511 -0.663602
H15   H     H_    0.277631 0.917450 0.272615 0.281320
C52   C     C_2   0.473330 0.167888 0.650566 0.746179
O35   O     O_2   0.439067 0.101206 0.604140 -0.571052
O36   O     O_R   0.457198 0.154252 0.732753 -0.665162
H16   H     H_    0.418437 0.087240 0.745347 0.284916
N1    N     N_2   0.986118 0.009608 0.727212 -0.549397
H17   H     H_    0.081332 0.021653 0.777141 0.233020
C53   C     C_3   0.800733 0.019854 0.747026 -0.433465
H18   H     H_    0.778818 0.974047 0.798872 0.218513
H19   H     H_    0.700157 0.999131 0.694379 0.222391
H20   H     H_    0.777261 0.094188 0.765428 0.191374
N2    N     N_2   0.835235 0.982387 0.268159 -0.551513
H21   H     H_    0.917501 0.975793 0.222639 0.235121
C54   C     C_3   0.643523 0.964176 0.238543 -0.401457
H22   H     H_    0.607613 0.989475 0.175919 0.188240
H23   H     H_    0.554638 0.002050 0.277048 0.228934
H24   H     H_    0.613187 0.886959 0.235787 0.182436
N3    N     N_2   0.513880 0.509608 0.272788 -0.549397
H25   H     H_    0.418667 0.521654 0.222859 0.233020
C55   C     C_3   0.699266 0.519854 0.252974 -0.433466
H26   H     H_    0.721181 0.474048 0.201128 0.218513
H27   H     H_    0.799841 0.499131 0.305621 0.222391
H28   H     H_    0.722738 0.594188 0.234572 0.191374
N4    N     N_2   0.664765 0.482387 0.731841 -0.551513
H29   H     H_    0.582499 0.475793 0.777361 0.235121
C56   C     C_3   0.856477 0.464175 0.761456 -0.401462
H30   H     H_    0.892387 0.489475 0.824080 0.188241
H31   H     H_    0.945361 0.502049 0.722951 0.228935
H32   H     H_    0.886811 0.386958 0.764213 0.182437
C57   C     C_2   0.141464 0.119483 0.023148 0.812965
O37   O     O_2   0.302375 0.100641 0.046259 -0.557219
O38   O     O_R   0.091141 0.211143 0.996563 -0.656206
H33   H     H_    0.200726 0.255028 0.996899 0.315159
C58   C     C_2   0.867034 0.880839 0.978913 0.801225
O39   O     O_2   0.705156 0.895963 0.954717 -0.558997
O40   O     O_R   0.923112 0.791298 0.008900 -0.653913
H34   H     H_    0.816532 0.745534 0.009363 0.311436
C59   C     C_2   0.358537 0.619483 0.976852 0.812963
O41   O     O_2   0.197626 0.600643 0.953742 -0.557219
O42   O     O_R   0.408861 0.711143 0.003437 -0.656206
H35   H     H_    0.299277 0.755029 0.003102 0.315159
C60   C     C_2   0.632966 0.380839 0.021087 0.801224
O43   O     O_2   0.794843 0.395963 0.045283 -0.558997
O44   O     O_R   0.576889 0.291298 0.991099 -0.653913
H36   H     H_    0.683468 0.245534 0.990637 0.311436

loop_
_geom_bond_atom_site_label_1
_geom_bond_atom_site_label_2
_ccdc_geom_bond_type
O26   H11   S    
O1    C5    A    
C49   O29   D    
C12   C32   A    
C27   C31   A    
O13   V1    S    
C52   O35   D    
O3    C7    A    
O30   H13   S    
O15   V3    S    
C15   C51   S    
C50   O31   D    
C55   H26   S    
C47   O25   D    
C40   H7    S    
C58   O40   S    
C31   C36   A    
C51   O33   D    
C32   C35   A    
O20   V1    S    
O9    C4    A    
C10   C14   A    
O10   C3    A    
C54   H23   S    
C60   O43   D    
O4    C8    A    
O11   C2    A    
C37   C41   D    
C55   H27   S    
C39   C43   D    
N2    H21   S    
H4    C19   S    
C22   N2    S    
C14   C18   A    
C51   O34   S    
O44   H36   S    
C50   O32   S    
C10   C30   A    
C25   C33   A    
C13   C49   S    
O16   C8    A    
N2    C54   S    
C27   C35   A    
O2    C6    A    
C42   C57   S    
O36   H16   S    
C28   C36   A    
O14   V2    S    
C12   C48   S    
C48   O28   S    
C12   C16   A    
O5    C1    A    
O4    V1    S    
C8    C38   S    
C56   H32   S    
C30   C33   A    
O7    C3    A    
O11   V3    S    
O18   V3    S    
C49   O30   S    
C5    C39   S    
O19   V2    S    
H1    C18   S    
C4    C34   S    
H3    C20   S    
C60   O44   S    
C24   N4    S    
C46   O23   D    
O5    V1    S    
C47   O26   S    
C41   C58   S    
C44   C59   S    
O7    V3    S    
O8    V4    S    
O38   H33   S    
C14   C50   S    
O28   H12   S    
C25   C29   A    
C55   H28   S    
C19   C23   A    
C26   C34   A    
C29   C34   A    
C45   O21   D    
C38   H5    S    
C9    C45   S    
O1    V4    S    
O13   C5    A    
C37   H6    S    
C28   C32   A    
O2    V3    S    
O3    V2    S    
O15   C7    A    
N4    C56   S    
O6    C2    A    
C52   O36   S    
O10   V2    S    
O24   H10   S    
C1    C35   S    
C17   C21   A    
C40   C44   D    
C11   C31   A    
C26   C30   A    
C3    C33   S    
C45   O22   S    
C53   H19   S    
H2    C17   S    
C22   C26   A    
C6    C40   S    
N3    H25   S    
C2    C36   S    
C43   C60   S    
C59   O41   D    
C10   C46   S    
C57   O37   D    
C23   N3    S    
C54   H24   S    
O12   V4    S    
C11   C47   S    
N4    H29   S    
C16   C52   S    
C21   N1    S    
C56   H30   S    
O16   V4    S    
C53   H18   S    
O6    V2    S    
O14   C6    A    
C46   O24   S    
C11   C15   A    
O40   H34   S    
O9    V1    S    
C58   O39   D    
C18   C22   A    
O32   H14   S    
C7    C37   S    
C59   O42   S    
O42   H35   S    
C43   C44   S    
C54   H22   S    
C38   C42   D    
O17   V4    S    
C21   C25   A    
N1    C53   S    
C53   H20   S    
C23   C27   A    
C9    C13   A    
C41   C42   S    
N3    C55   S    
O22   H9    S    
C16   C20   A    
C20   C24   A    
O12   C1    A    
O8    C4    A    
O34   H15   S    
C57   O38   S    
C13   C17   A    
C39   H8    S    
C48   O27   D    
N1    H17   S    
C15   C19   A    
C9    C29   A    
C24   C28   A    
C56   H31   S    
