data_mof_unit_33774.cif
_audit_creation_date              2012-12-11T17:23:09-0500
_audit_creation_method            fapswitch 2.2
_symmetry_space_group_name_H-M    P1
_symmetry_Int_Tables_number       1
_space_group_crystal_system       triclinic
_cell_length_a                    22.396809
_cell_length_b                    7.079739
_cell_length_c                    19.653915
_cell_angle_alpha                 89.999702
_cell_angle_beta                  98.730741
_cell_angle_gamma                 89.999637
_cell_volume                      3080.28382333

loop_
_atom_site_label
_atom_site_type_symbol
_atom_type_description
_atom_site_fract_x
_atom_site_fract_y
_atom_site_fract_z
_atom_type_partial_charge
O1    O     O_R   0.443980 0.494320 0.557430 -0.543419
O2    O     O_R   0.556020 0.994320 0.442570 -0.543420
O3    O     O_R   0.441210 0.822520 0.414610 -0.543906
O4    O     O_R   0.558790 0.322520 0.585390 -0.543886
C1    C     C_R   0.426314 0.654434 0.389726 0.765855
C2    C     C_R   0.573687 0.154431 0.610272 0.765956
O5    O     O_R   0.436920 0.823940 0.555180 -0.526211
O6    O     O_R   0.563080 0.323940 0.444820 -0.526202
O7    O     O_R   0.551700 0.995760 0.584140 -0.535758
O8    O     O_R   0.448300 0.495760 0.415860 -0.535756
C3    C     C_R   0.423000 0.655760 0.576644 0.700872
C4    C     C_R   0.576999 0.155760 0.423355 0.700847
O9    O     O_3   0.537660 0.661290 0.509340 -0.373756
O10   O     O_3   0.462340 0.161290 0.490660 -0.373772
V1    V     V_3+5 0.493010 0.935560 0.498270 1.473747
V2    V     V_3+5 0.506990 0.435560 0.501730 1.473775
C5    C     C_R   0.785455 0.943658 0.249643 -0.157079
C6    C     C_R   0.214537 0.443667 0.750348 -0.157079
H1    H     H_    0.813318 0.818370 0.250376 0.145336
H2    H     H_    0.186675 0.318379 0.749615 0.145336
C7    C     C_R   0.793074 0.092165 0.204428 0.088558
C8    C     C_R   0.206920 0.592170 0.795565 0.088556
C9    C     C_R   0.756422 0.253045 0.204027 -0.124088
C10   C     C_R   0.243571 0.753052 0.795964 -0.124093
H3    H     H_    0.761488 0.369190 0.169468 0.143884
H4    H     H_    0.238505 0.869194 0.830524 0.143885
C11   C     C_R   0.712899 0.265520 0.248319 -0.138584
C12   C     C_R   0.287092 0.765528 0.751671 -0.138567
H5    H     H_    0.684984 0.390856 0.246877 0.156949
H6    H     H_    0.315007 0.890864 0.753112 0.156937
C13   C     C_R   0.705471 0.117947 0.294073 0.084345
C14   C     C_R   0.294520 0.617957 0.705917 0.084353
C15   C     C_R   0.742059 0.955536 0.294291 0.156696
C16   C     C_R   0.257932 0.455547 0.705698 0.156707
C17   C     C_1   0.838586 0.079904 0.158894 -0.014728
C18   C     C_1   0.161410 0.579905 0.841101 -0.014729
C19   C     C_1   0.660222 0.134585 0.339844 0.003498
C20   C     C_1   0.339771 0.634593 0.660147 0.003497
C21   C     C_1   0.622368 0.146103 0.377951 -0.137459
C22   C     C_1   0.377627 0.646107 0.622043 -0.137478
C23   C     C_1   0.876735 0.070637 0.121066 -0.142069
C24   C     C_1   0.123263 0.570637 0.878931 -0.142069
C25   C     C_R   0.626959 0.096218 0.799822 0.109942
C26   C     C_R   0.373049 0.596322 0.200170 0.110006
H7    H     H_    0.705131 0.172399 0.912724 0.182983
H8    H     H_    0.294870 0.672507 0.087269 0.182987
C27   C     C_R   0.615864 0.139073 0.675700 -0.260427
C28   C     C_R   0.384140 0.639091 0.324296 -0.260445
C29   C     C_R   0.908155 0.020990 0.767744 -0.156332
C30   C     C_R   0.091858 0.520930 0.232253 -0.156326
C31   C     C_R   0.872422 0.990654 0.704792 -0.136684
C32   C     C_R   0.127597 0.490563 0.295200 -0.136676
C33   C     C_R   0.810326 0.015295 0.697713 -0.088062
C34   C     C_R   0.189692 0.515228 0.302276 -0.088050
C35   C     C_R   0.782049 0.083206 0.752105 0.112574
C36   C     C_R   0.217960 0.583198 0.247885 0.112587
C37   C     C_R   0.818524 0.110036 0.818104 0.022217
C38   C     C_R   0.181481 0.610048 0.181890 0.022214
C39   C     C_R   0.717614 0.109165 0.743917 -0.021969
C40   C     C_R   0.282393 0.609191 0.256073 -0.021959
C41   C     C_R   0.690107 0.110972 0.804199 -0.067227
C42   C     C_R   0.309900 0.611046 0.195792 -0.067252
C43   C     C_R   0.725962 0.142145 0.867793 -0.100337
C44   C     C_R   0.274042 0.642227 0.132200 -0.100345
C45   C     C_R   0.788268 0.162863 0.873404 0.073098
C46   C     C_R   0.211735 0.662912 0.126591 0.073101
C47   C     C_R   0.680146 0.137113 0.678763 0.300288
C48   C     C_R   0.319858 0.637136 0.321228 0.300298
C49   C     C_R   0.590096 0.110930 0.735867 0.324492
C50   C     C_R   0.409910 0.610986 0.264128 0.324482
C51   C     C_R   0.882505 0.074452 0.825462 -0.073866
C52   C     C_R   0.117502 0.574441 0.174535 -0.073875
H9    H     H_    0.956194 0.992869 0.772344 0.111411
H10   H     H_    0.043821 0.492792 0.227655 0.111413
H11   H     H_    0.784681 0.966311 0.650727 0.140719
H12   H     H_    0.215346 0.466221 0.349255 0.140701
H13   H     H_    0.892731 0.938996 0.661769 0.132281
H14   H     H_    0.107294 0.438865 0.338220 0.132280
O11   O     O_R   0.051730 0.724670 0.084120 -0.528308
O12   O     O_R   0.948270 0.224670 0.915880 -0.528309
O13   O     O_R   0.063080 0.393540 0.944820 -0.536542
O14   O     O_R   0.936920 0.893540 0.055180 -0.536542
C53   C     C_R   0.077544 0.561723 0.924004 0.737881
C54   C     C_R   0.922455 0.061723 0.075996 0.737884
O15   O     O_R   0.058800 0.395030 0.085390 -0.538222
O16   O     O_R   0.941200 0.895030 0.914610 -0.538223
O17   O     O_R   0.943980 0.223310 0.057440 -0.525920
O18   O     O_R   0.056020 0.723310 0.942560 -0.525921
C55   C     C_R   0.075950 0.564980 0.108247 0.718180
C56   C     C_R   0.924052 0.064982 0.891751 0.718186
O19   O     O_3   0.962360 0.556290 0.990650 -0.358645
O20   O     O_3   0.037640 0.056290 0.009350 -0.358643
V3    V     V_3+5 0.006980 0.281990 0.001730 1.510724
V4    V     V_3+5 0.993020 0.781990 0.998270 1.510723
I1    I     I_    0.733918 0.723593 0.360633 -0.507806
I2    I     I_    0.266071 0.223609 0.639354 -0.507817
I3    I     I_    0.824168 0.329222 0.959044 -0.380492
I4    I     I_    0.175824 0.829264 0.040952 -0.380485
O21   O     O_3   0.528213 0.088602 0.731639 -0.539867
C57   C     C_3   0.501590 0.266354 0.740111 0.109715
H15   H     H_    0.507259 0.363072 0.696968 0.115454
H16   H     H_    0.521449 0.334319 0.789493 0.155546
C58   C     C_3   0.434380 0.238904 0.740885 -0.624997
H17   H     H_    0.427183 0.139199 0.782513 0.239497
H18   H     H_    0.413196 0.376250 0.750244 0.184729
H19   H     H_    0.412617 0.181220 0.690642 0.232224
O22   O     O_3   0.471794 0.588644 0.268352 -0.539866
C59   C     C_3   0.498425 0.766400 0.259909 0.109741
H20   H     H_    0.492872 0.862900 0.303151 0.115549
H21   H     H_    0.478482 0.834646 0.210609 0.155397
C60   C     C_3   0.565602 0.738872 0.258924 -0.624987
H22   H     H_    0.572681 0.639542 0.217139 0.239522
H23   H     H_    0.586801 0.876272 0.249675 0.184721
H24   H     H_    0.587443 0.680698 0.309056 0.232273
I5    I     I_    0.585006 0.037239 0.888412 -0.324902
I6    I     I_    0.415010 0.537490 0.111574 -0.324890
O23   O     O_3   0.706905 0.208184 0.624575 -0.547818
C61   C     C_3   0.695925 0.092126 0.565446 0.082478
H25   H     H_    0.652299 0.128333 0.534942 0.115724
H26   H     H_    0.696329 0.938570 0.578108 0.110995
C62   C     C_3   0.743414 0.132523 0.519419 -0.651788
H27   H     H_    0.789659 0.108701 0.547296 0.216709
H28   H     H_    0.736203 0.038211 0.473913 0.209189
H29   H     H_    0.739669 0.281464 0.501478 0.238359
O24   O     O_3   0.293090 0.708218 0.375410 -0.547813
C63   C     C_3   0.304081 0.592213 0.434551 0.082488
H30   H     H_    0.347695 0.628527 0.465059 0.115742
H31   H     H_    0.303707 0.438649 0.421907 0.110983
C64   C     C_3   0.256573 0.632558 0.480560 -0.651781
H32   H     H_    0.210336 0.608652 0.452674 0.216708
H33   H     H_    0.263791 0.538270 0.526074 0.209179
H34   H     H_    0.260290 0.781512 0.498489 0.238362

loop_
_geom_bond_atom_site_label_1
_geom_bond_atom_site_label_2
_ccdc_geom_bond_type
C43   C45   A    
C63   H30   S    
O14   V4    S    
C35   C39   A    
C11   H5    S    
C18   C24   T    
C60   H22   S    
O1    C3    A    
C54   O17   A    
C29   H9    S    
O2    C4    A    
C2    O7    A    
O5    C3    A    
C16   I2    S    
C64   H32   S    
C50   O22   S    
C30   H10   S    
C59   H20   S    
C40   C42   A    
C41   C43   A    
C30   C52   A    
C61   H25   S    
C27   C49   A    
C62   H29   S    
C42   C44   A    
O16   V4    S    
C25   I5    S    
O15   V3    S    
C38   C46   A    
C36   C38   A    
C29   C31   A    
C30   C32   A    
O22   C59   S    
C13   C15   A    
C26   C50   A    
C9    C11   A    
C58   H19   S    
C64   H34   S    
C39   C47   A    
O5    V1    S    
C53   O18   A    
C25   C49   A    
C33   H11   S    
C5    C15   A    
C32   H14   S    
C15   I1    S    
C27   C47   A    
O13   C53   A    
C32   C34   A    
O18   V4    S    
C33   C35   A    
C1    C28   S    
C34   C36   A    
C39   C41   A    
C62   H28   S    
C2    C27   S    
C11   C13   A    
C12   C14   A    
O11   V4    S    
O4    C2    A    
O16   C56   A    
C37   C45   A    
O15   C55   A    
C63   C64   S    
C26   C42   A    
C23   C54   S    
H7    C43   S    
C57   C58   S    
C5    C7    A    
C36   C40   A    
H8    C44   S    
C31   C33   A    
C61   C62   S    
C14   C16   A    
O4    V2    S    
C31   H13   S    
O19   V3    S    
O13   V3    S    
O21   C57   S    
O6    C4    A    
O20   V4    S    
C60   H23   S    
O1    V2    S    
C37   C51   A    
O2    V1    S    
C47   O23   S    
C26   I6    S    
C62   H27   S    
C34   H12   S    
C49   O21   S    
C14   C20   S    
C7    C9    A    
O24   C63   S    
C58   H18   S    
C8    C10   A    
O3    V1    S    
C25   C41   A    
C57   H16   S    
C63   H31   S    
C6    C8    A    
C24   C53   S    
C10   C12   A    
C28   C50   A    
O3    C1    A    
C7    C17   S    
C8    C18   S    
O14   C54   A    
C59   C60   S    
C28   C48   A    
C46   I4    S    
C4    C21   S    
C35   C37   A    
O7    V1    S    
C45   I3    S    
C1    O8    A    
C19   C21   T    
O8    V2    S    
O23   C61   S    
O19   V4    S    
C20   C22   T    
C52   C55   S    
C10   H4    S    
C38   C52   A    
C51   C56   S    
C6    C16   A    
O17   V3    S    
C12   H6    S    
O20   V3    S    
C5    H1    S    
C59   H21   S    
C60   H24   S    
C6    H2    S    
C9    H3    S    
O12   C56   A    
C3    C22   S    
C17   C23   T    
C61   H26   S    
O11   C55   A    
C13   C19   S    
C40   C48   A    
O6    V2    S    
C29   C51   A    
O9    V2    S    
C58   H17   S    
O10   V1    S    
C57   H15   S    
O12   V3    S    
C48   O24   S    
C44   C46   A    
C64   H33   S    
