data_mof_unit_68499.cif
_audit_creation_date              2012-12-10T20:52:12-0500
_audit_creation_method            fapswitch 2.2
_symmetry_space_group_name_H-M    P1
_symmetry_Int_Tables_number       1
_space_group_crystal_system       triclinic
_cell_length_a                    10.687854
_cell_length_b                    8.905379
_cell_length_c                    8.112025
_cell_angle_alpha                 90.126537
_cell_angle_beta                  89.790029
_cell_angle_gamma                 90.131192
_cell_volume                      772.088518517

loop_
_atom_site_label
_atom_site_type_symbol
_atom_type_description
_atom_site_fract_x
_atom_site_fract_y
_atom_site_fract_z
_atom_type_partial_charge
Br1   Br    Br    0.156541 0.446717 0.045610 -0.536954
Br2   Br    Br    0.843384 0.553504 0.954299 -0.537014
C1    C     C_R   0.500107 0.218060 0.499862 0.931564
C2    C     C_R   0.740327 0.496418 0.500162 0.873202
C3    C     C_R   0.195429 0.953628 0.210903 -0.095000
C4    C     C_R   0.804756 0.046434 0.789477 -0.094975
C5    C     C_R   0.138216 0.851174 0.317656 -0.249385
C6    C     C_R   0.861908 0.148849 0.682620 -0.249371
C7    C     C_R   0.124205 0.700146 0.271022 0.059393
C8    C     C_R   0.875810 0.299934 0.729089 0.059437
C9    C     C_R   0.167894 0.652633 0.114948 0.375879
C10   C     C_R   0.832092 0.347539 0.885118 0.375936
C11   C     C_R   0.224803 0.756292 0.008756 -0.172885
C12   C     C_R   0.499892 0.781940 0.500138 0.931625
C13   C     C_R   0.775243 0.243920 0.991414 -0.172885
C14   C     C_R   0.238508 0.906283 0.056579 -0.142045
C15   C     C_R   0.761631 0.093877 0.943744 -0.142120
C16   C     C_R   0.933374 0.589715 0.389769 -0.186288
C17   C     C_R   0.066629 0.410299 0.610250 -0.186310
C18   C     C_R   0.872438 0.495597 0.501318 -0.079051
C19   C     C_R   0.127563 0.504406 0.498692 -0.079029
C20   C     C_R   0.938035 0.405498 0.613784 0.043418
C21   C     C_R   0.061968 0.594524 0.386247 0.043446
C22   C     C_1   0.500046 0.065254 0.499822 -0.200254
C23   C     C_1   0.499953 0.934746 0.500178 -0.200209
C24   C     C_R   0.259674 0.503580 0.499840 0.873195
H1    H     H_    0.282822 0.985802 0.974086 0.160571
H2    H     H_    0.119483 0.338585 0.692395 0.186132
H3    H     H_    0.717371 0.014389 0.026324 0.160569
H4    H     H_    0.206329 0.069818 0.247827 0.167671
H5    H     H_    0.793954 0.930197 0.752685 0.167795
H6    H     H_    0.104981 0.889351 0.436891 0.146672
H7    H     H_    0.895196 0.110590 0.563440 0.146676
H8    H     H_    0.259089 0.720484 0.889279 0.171837
H9    H     H_    0.740949 0.279791 0.110864 0.171893
H10   H     H_    0.880521 0.661452 0.307645 0.186108
N1    N     N_1   0.500020 0.500030 0.073640 -0.006780
N2    N     N_1   0.499980 0.499970 0.926360 -0.006763
O1    O     O_R   0.499990 0.285340 0.636850 -0.611152
O2    O     O_R   0.500010 0.714660 0.363150 -0.611140
O3    O     O_R   0.500010 0.285350 0.363100 -0.622390
O4    O     O_R   0.499990 0.714650 0.636900 -0.622350
O5    O     O_R   0.316750 0.500000 0.636870 -0.618342
O6    O     O_R   0.683250 0.500000 0.363130 -0.618394
O7    O     O_R   0.316770 0.500020 0.363120 -0.598955
O8    O     O_R   0.683230 0.499980 0.636880 -0.598950
Zn1   Zn    Zn3+2 0.499990 0.499990 0.682780 1.003000
Zn2   Zn    Zn3+2 0.500010 0.500010 0.317220 1.002968

loop_
_geom_bond_atom_site_label_1
_geom_bond_atom_site_label_2
_ccdc_geom_bond_type
C19   C24   S    
C13   C15   A    
N1    N2    T    
C7    C9    A    
Br1   C9    S    
C10   C13   A    
C12   O4    A    
Br2   C10   S    
C14   H1    S    
C4    H5    S    
C1    C22   S    
C1    O1    A    
C11   H8    S    
C2    O8    A    
C8    C20   S    
N1    Zn2   S    
C17   H2    S    
C9    C11   A    
C16   H10   S    
N2    Zn1   S    
C8    C10   A    
C13   H9    S    
C17   C19   A    
O3    Zn2   S    
C18   C20   A    
C24   O5    A    
C16   C18   A    
O4    Zn1   S    
C19   C21   A    
C12   C23   S    
O7    Zn2   S    
C12   O2    A    
C16   C21   A    
C2    C18   S    
C17   C20   A    
C15   H3    S    
C22   C23   T    
C5    C7    A    
C3    H4    S    
C11   C14   A    
C3    C5    A    
C4    C15   A    
O2    Zn2   S    
O8    Zn1   S    
C7    C21   S    
C3    C14   A    
C4    C6    A    
C5    H6    S    
C2    O6    A    
C24   O7    A    
O1    Zn1   S    
O5    Zn1   S    
C6    C8    A    
C1    O3    A    
O6    Zn2   S    
C6    H7    S    
