data_mof_unit_54742.cif
_audit_creation_date              2012-12-10T18:42:40-0500
_audit_creation_method            fapswitch 2.2
_symmetry_space_group_name_H-M    P1
_symmetry_Int_Tables_number       1
_space_group_crystal_system       triclinic
_cell_length_a                    10.83244
_cell_length_b                    15.136671
_cell_length_c                    13.894587
_cell_angle_alpha                 89.633105
_cell_angle_beta                  89.634414
_cell_angle_gamma                 90.579337
_cell_volume                      2278.04436728

loop_
_atom_site_label
_atom_site_type_symbol
_atom_type_description
_atom_site_fract_x
_atom_site_fract_y
_atom_site_fract_z
_atom_type_partial_charge
C1    C     C_R   0.498628 0.329851 0.500201 0.784697
C2    C     C_R   0.499286 0.669955 0.499750 0.778477
C3    C     C_R   0.871923 0.497205 0.501034 -0.082785
C4    C     C_R   0.128733 0.506080 0.500285 -0.084260
C5    C     C_R   0.938113 0.463210 0.580240 0.008221
C6    C     C_R   0.062850 0.542981 0.422558 0.013067
C7    C     C_R   0.511770 0.094124 0.585686 -0.177070
C8    C     C_R   0.542621 0.905638 0.420840 -0.177208
C9    C     C_R   0.512425 0.185934 0.586078 -0.195863
C10   C     C_R   0.544058 0.813841 0.420566 -0.199506
C11   C     C_R   0.495011 0.233224 0.500318 -0.025270
C12   C     C_R   0.496280 0.766183 0.499294 -0.027436
C13   C     C_R   0.473385 0.187468 0.414490 -0.188646
C14   C     C_R   0.445129 0.811008 0.577643 -0.197494
C15   C     C_R   0.470240 0.095663 0.414381 -0.173975
C16   C     C_R   0.441502 0.902760 0.577183 -0.169755
C17   C     C_R   0.490672 0.048149 0.499791 0.111307
C18   C     C_R   0.491168 0.950934 0.499125 0.108631
C19   C     C_R   0.585154 0.550184 0.106786 -0.335898
C20   C     C_R   0.434560 0.435903 0.892987 -0.343142
C21   C     C_R   0.583788 0.550430 0.208128 0.384453
C22   C     C_R   0.434003 0.437257 0.791618 0.386796
C23   C     C_R   0.262442 0.502814 0.500080 0.792498
C24   C     C_R   0.737808 0.497987 0.500136 0.799594
C25   C     C_R   0.413578 0.451707 0.210739 0.047352
C26   C     C_R   0.562844 0.564103 0.789490 0.051016
C27   C     C_R   0.409673 0.452102 0.109570 -0.307655
C28   C     C_R   0.561000 0.567075 0.890611 -0.249428
C29   C     C_R   0.497233 0.501210 0.054728 0.113699
C30   C     C_R   0.497587 0.501541 0.945246 0.116343
C31   C     C_R   0.258180 0.711410 0.285556 -0.171511
C32   C     C_R   0.761494 0.300951 0.738803 -0.169080
C33   C     C_R   0.200219 0.665589 0.361104 -0.096783
C34   C     C_R   0.817175 0.339783 0.657755 -0.115824
C35   C     C_R   0.123590 0.592354 0.342186 0.092791
C36   C     C_R   0.878048 0.421650 0.665428 0.082655
C37   C     C_R   0.103469 0.567089 0.246341 -0.203906
C38   C     C_R   0.882922 0.463971 0.754999 -0.151088
C39   C     C_R   0.161092 0.613565 0.170089 0.226170
C40   C     C_R   0.826154 0.425605 0.836251 0.219219
C41   C     C_R   0.238807 0.685538 0.190485 -0.116525
C42   C     C_R   0.764773 0.343842 0.827518 -0.147369
C43   C     C_R   0.934845 0.536541 0.423438 -0.238657
C44   C     C_R   0.065979 0.468037 0.578640 -0.238191
Cu1   Cu    Cu3+1 0.500000 0.499990 0.596430 0.965856
Cu2   Cu    Cu3+1 0.500000 0.500010 0.403570 0.962832
H1    H     H_    0.450969 0.061965 0.347554 0.122173
H2    H     H_    0.398932 0.935868 0.637536 0.124661
H3    H     H_    0.345929 0.413292 0.250998 0.128179
H4    H     H_    0.613705 0.614190 0.749480 0.130334
H5    H     H_    0.336400 0.414926 0.075867 0.128495
H6    H     H_    0.608755 0.621428 0.924415 0.134619
H7    H     H_    0.529486 0.059276 0.652388 0.122091
H8    H     H_    0.583607 0.941057 0.360503 0.125174
H9    H     H_    0.527605 0.219794 0.653290 0.144378
H10   H     H_    0.584537 0.780221 0.359700 0.146025
N1    N     N_R   0.500000 0.500020 0.258690 -0.161844
N2    N     N_R   0.500000 0.499980 0.741310 -0.164990
O1    O     O_R   0.500010 0.371450 0.581430 -0.553537
O2    O     O_R   0.499990 0.628550 0.418570 -0.559892
O3    O     O_R   0.500010 0.371460 0.418560 -0.597038
O4    O     O_R   0.499990 0.628540 0.581440 -0.600095
O5    O     O_R   0.319640 0.500000 0.581430 -0.568126
O6    O     O_R   0.680360 0.500000 0.418570 -0.560226
O7    O     O_R   0.319640 0.500010 0.418560 -0.583438
O8    O     O_R   0.680360 0.499990 0.581440 -0.575195
H11   H     H_    0.283813 0.721773 0.132459 0.130224
H12   H     H_    0.720319 0.313044 0.889346 0.119662
H13   H     H_    0.656604 0.588143 0.070503 0.141719
H14   H     H_    0.385402 0.382770 0.929156 0.126250
N3    N     N_3   0.670291 0.604857 0.258061 -0.541704
H15   H     H_    0.654733 0.670392 0.237742 0.181253
H16   H     H_    0.758626 0.588537 0.233757 0.182153
N4    N     N_3   0.361768 0.373188 0.741338 -0.535876
H17   H     H_    0.391377 0.310433 0.762194 0.183375
H18   H     H_    0.269902 0.379421 0.763583 0.180827
H19   H     H_    0.317850 0.767318 0.300702 0.143184
H20   H     H_    0.716408 0.237182 0.733152 0.126572
H21   H     H_    0.215532 0.686836 0.434402 0.106404
H22   H     H_    0.813362 0.306077 0.589288 0.115501
H23   H     H_    0.043657 0.511122 0.231312 0.119096
H24   H     H_    0.929926 0.527177 0.761426 0.135905
N5    N     N_3   0.139858 0.589683 0.071749 -0.604547
H25   H     H_    0.224399 0.571196 0.041799 0.220902
H26   H     H_    0.081856 0.534170 0.068528 0.199926
N6    N     N_3   0.831173 0.470738 0.926629 -0.606159
H27   H     H_    0.781456 0.435355 0.979153 0.214474
H28   H     H_    0.923281 0.471657 0.948575 0.203760
H29   H     H_    0.883921 0.566121 0.365098 0.161869
H30   H     H_    0.116818 0.439804 0.638179 0.159569
H31   H     H_    0.457828 0.222510 0.347511 0.146626
H32   H     H_    0.406345 0.775083 0.638568 0.145935

loop_
_geom_bond_atom_site_label_1
_geom_bond_atom_site_label_2
_ccdc_geom_bond_type
C27   C29   A    
C11   C13   A    
C1    C11   S    
C15   H1    S    
C2    C12   S    
C16   H2    S    
C39   C41   A    
C20   C30   A    
Cu1   Cu2   S    
C3    C43   A    
C43   H29   S    
N4    H18   S    
C21   N3    S    
C35   C37   A    
C26   H4    S    
C2    O2    A    
C23   O5    A    
C5    C36   S    
Cu1   O4    S    
N6    H28   S    
C6    C35   S    
C15   C17   A    
C40   N6    S    
C1    O1    A    
C34   H22   S    
C7    C17   A    
C31   C33   A    
C9    H9    S    
C10   H10   S    
C24   O8    A    
C40   C42   A    
C24   O6    A    
C13   H31   S    
C42   H12   S    
C37   H23   S    
C3    C24   S    
C25   N1    A    
C27   H5    S    
C31   H19   S    
Cu1   N2    S    
N4    H17   S    
Cu2   O3    S    
C41   H11   S    
Cu2   O7    S    
C4    C6    A    
C8    H8    S    
N3    H16   S    
C4    C23   S    
N6    H27   S    
C33   H21   S    
C4    C44   A    
Cu1   O5    S    
C8    C18   A    
Cu2   O6    S    
C32   C34   A    
C21   N1    A    
C29   C30   S    
C26   N2    A    
N5    H25   S    
C17   C18   S    
C9    C11   A    
C14   H32   S    
C10   C12   A    
C16   C18   A    
N5    H26   S    
C5    C44   A    
C12   C14   A    
C6    C43   A    
C13   C15   A    
Cu2   N1    S    
C14   C16   A    
C19   H13   S    
C7    H7    S    
C19   C29   A    
C44   H30   S    
C20   H14   S    
C7    C9    A    
Cu1   O1    S    
C32   C42   A    
C31   C41   A    
Cu2   O2    S    
C20   C22   A    
C3    C5    A    
C1    O3    A    
C22   N2    A    
C25   C27   A    
C26   C28   A    
C23   O7    A    
C36   C38   A    
C39   N5    S    
N3    H15   S    
C37   C39   A    
C38   C40   A    
C28   H6    S    
C28   C30   A    
C33   C35   A    
C34   C36   A    
C25   H3    S    
C32   H20   S    
C8    C10   A    
Cu1   O8    S    
C22   N4    S    
C38   H24   S    
C2    O4    A    
C19   C21   A    
