data_mof_unit_60594.cif
_audit_creation_date              2012-12-11T14:13:28-0500
_audit_creation_method            fapswitch 2.2
_symmetry_space_group_name_H-M    P1
_symmetry_Int_Tables_number       1
_space_group_crystal_system       triclinic
_cell_length_a                    17.307608
_cell_length_b                    17.425315
_cell_length_c                    17.245018
_cell_angle_alpha                 90.258107
_cell_angle_beta                  89.999971
_cell_angle_gamma                 90.0
_cell_volume                      5200.88119622

loop_
_atom_site_label
_atom_site_type_symbol
_atom_type_description
_atom_site_fract_x
_atom_site_fract_y
_atom_site_fract_z
_atom_type_partial_charge
C1    C     C_R   0.604415 0.306495 0.109149 0.014028
C2    C     C_R   0.192582 0.101746 0.613745 -0.040370
C3    C     C_R   0.922471 0.169833 0.643083 -0.050395
C4    C     C_R   0.825836 0.916563 0.639803 -0.056780
C5    C     C_R   0.104415 0.193504 0.390851 0.014027
C6    C     C_R   0.167750 0.923544 0.355339 -0.030118
C7    C     C_R   0.895542 0.806398 0.390456 -0.012202
C8    C     C_R   0.831773 0.076465 0.355597 -0.044790
C9    C     C_R   0.580049 0.669482 0.143741 0.778740
C10   C     C_R   0.305571 0.603198 0.108530 0.749984
C11   C     C_R   0.419588 0.330574 0.143386 0.789266
C12   C     C_R   0.667749 0.576456 0.144660 -0.030118
C13   C     C_R   0.694517 0.396750 0.108142 0.728148
C14   C     C_R   0.603033 0.306834 0.890062 0.720113
C15   C     C_R   0.325364 0.413263 0.860559 0.755551
C16   C     C_R   0.417534 0.672164 0.858798 0.778543
C17   C     C_R   0.691356 0.598254 0.883555 0.798186
C18   C     C_R   0.103033 0.193166 0.609938 0.720113
C19   C     C_R   0.825364 0.086736 0.639441 0.755551
C20   C     C_R   0.917534 0.827836 0.641202 0.778543
C21   C     C_R   0.191356 0.901746 0.616445 0.798186
C22   C     C_R   0.080049 0.830518 0.356259 0.778740
C23   C     C_R   0.395542 0.693602 0.109544 -0.012203
C24   C     C_R   0.805571 0.896802 0.391470 0.749985
C25   C     C_R   0.919588 0.169426 0.356614 0.789267
C26   C     C_R   0.194517 0.103250 0.391857 0.728148
C27   C     C_R   0.679248 0.322846 0.130533 -0.207538
C28   C     C_R   0.636018 0.634234 0.189371 -0.237734
C29   C     C_R   0.320787 0.677218 0.131143 -0.202604
C30   C     C_R   0.363183 0.365737 0.188865 -0.245861
C31   C     C_R   0.675409 0.670890 0.858397 -0.212920
C32   C     C_R   0.676191 0.323620 0.865040 -0.196618
C33   C     C_R   0.362168 0.358762 0.814472 -0.224984
C34   C     C_R   0.331773 0.423535 0.144403 -0.044790
C35   C     C_R   0.358130 0.640110 0.815465 -0.236677
C36   C     C_R   0.175409 0.829110 0.641603 -0.212920
C37   C     C_R   0.176191 0.176379 0.634960 -0.196617
C38   C     C_R   0.862168 0.141238 0.685528 -0.224984
C39   C     C_R   0.858130 0.859890 0.684535 -0.236677
C40   C     C_R   0.179248 0.177154 0.369467 -0.207539
C41   C     C_R   0.136018 0.865766 0.310629 -0.237735
C42   C     C_R   0.820787 0.822781 0.368856 -0.202604
C43   C     C_R   0.863183 0.134263 0.311135 -0.245862
C44   C     C_2   0.798765 0.735760 0.847410 0.534072
C45   C     C_R   0.603047 0.691019 0.885328 -0.027981
C46   C     C_2   0.353793 0.720154 0.698606 0.548457
C47   C     C_2   0.281671 0.354583 0.697716 0.538342
C48   C     C_2   0.740238 0.200161 0.851338 0.568313
C49   C     C_2   0.803295 0.257347 0.144792 0.553465
C50   C     C_2   0.357907 0.285115 0.306325 0.539825
C51   C     C_2   0.196282 0.742125 0.144451 0.541381
C52   C     C_2   0.641128 0.715264 0.307112 0.552099
C53   C     C_2   0.303295 0.242653 0.355208 0.553464
C54   C     C_2   0.857907 0.214885 0.193675 0.539823
C55   C     C_2   0.696282 0.757875 0.355549 0.541381
C56   C     C_R   0.692582 0.398254 0.886255 -0.040370
C57   C     C_2   0.141128 0.784736 0.192888 0.552100
C58   C     C_2   0.298765 0.764240 0.652590 0.534072
C59   C     C_2   0.853793 0.779846 0.801394 0.548457
C60   C     C_2   0.781671 0.145417 0.802283 0.538344
C61   C     C_2   0.240238 0.299839 0.648662 0.568314
C62   C     C_2   0.728177 0.720253 0.818334 0.573049
C63   C     C_2   0.327811 0.660486 0.739497 0.563697
C64   C     C_2   0.342973 0.330048 0.737535 0.551502
C65   C     C_2   0.727307 0.271866 0.825243 0.578002
C66   C     C_2   0.731068 0.271373 0.170423 0.577294
C67   C     C_R   0.422471 0.330167 0.856917 -0.050395
C68   C     C_2   0.333279 0.345819 0.265709 0.564988
C69   C     C_2   0.268570 0.729106 0.170409 0.560884
C70   C     C_2   0.665159 0.653868 0.266728 0.555543
C71   C     C_2   0.231068 0.228627 0.329576 0.577295
C72   C     C_2   0.833279 0.154180 0.234290 0.564989
C73   C     C_2   0.768570 0.770894 0.329591 0.560884
C74   C     C_2   0.165159 0.846132 0.233272 0.555543
C75   C     C_2   0.228177 0.779747 0.681666 0.573049
C76   C     C_2   0.827811 0.839513 0.760503 0.563697
C77   C     C_2   0.842973 0.169952 0.762465 0.551500
C78   C     C_R   0.325836 0.583437 0.860197 -0.056780
C79   C     C_2   0.227306 0.228134 0.674757 0.578002
C80   C     C_R   0.103047 0.808981 0.614672 -0.027979
F1    F     F_    0.544091 0.736714 0.158528 -0.618262
F2    F     F_    0.749060 0.069655 0.642755 -0.591334
F3    F     F_    0.952799 0.759960 0.654026 -0.620506
F4    F     F_    0.261278 0.936618 0.617259 -0.615212
F5    F     F_    0.044091 0.763286 0.341472 -0.618262
F6    F     F_    0.734447 0.928847 0.397776 -0.596543
F7    F     F_    0.955527 0.236609 0.342130 -0.614067
F8    F     F_    0.265685 0.071356 0.398166 -0.598118
F9    F     F_    0.822425 0.705523 0.916047 -0.563449
F10   F     F_    0.427047 0.747107 0.705761 -0.544633
F11   F     F_    0.249657 0.424726 0.710420 -0.560745
F12   F     F_    0.234447 0.571152 0.102223 -0.596543
F13   F     F_    0.709225 0.175191 0.919183 -0.584816
F14   F     F_    0.829596 0.289381 0.078011 -0.572695
F15   F     F_    0.430258 0.256264 0.297762 -0.547752
F16   F     F_    0.170410 0.708883 0.077816 -0.554619
F17   F     F_    0.569162 0.744893 0.298290 -0.542409
F18   F     F_    0.329596 0.210619 0.421989 -0.572695
F19   F     F_    0.930257 0.243737 0.202239 -0.547751
F20   F     F_    0.670410 0.791117 0.422184 -0.554619
F21   F     F_    0.069162 0.755108 0.201709 -0.542409
F22   F     F_    0.322425 0.794478 0.583953 -0.563448
F23   F     F_    0.455527 0.263391 0.157870 -0.614068
F24   F     F_    0.927046 0.752893 0.794239 -0.544633
F25   F     F_    0.749657 0.075274 0.789580 -0.560745
F26   F     F_    0.209225 0.324808 0.580817 -0.584816
F27   F     F_    0.705360 0.745001 0.747104 -0.601662
F28   F     F_    0.262401 0.623510 0.715638 -0.595451
F29   F     F_    0.383712 0.268300 0.710765 -0.616637
F30   F     F_    0.754595 0.296432 0.755539 -0.619483
F31   F     F_    0.705319 0.243883 0.239557 -0.605941
F32   F     F_    0.269506 0.384758 0.290674 -0.616241
F33   F     F_    0.293963 0.758010 0.239344 -0.600402
F34   F     F_    0.765685 0.428644 0.101834 -0.598118
F35   F     F_    0.728321 0.614416 0.292081 -0.623191
F36   F     F_    0.205319 0.256116 0.260442 -0.605941
F37   F     F_    0.769506 0.115242 0.209326 -0.616241
F38   F     F_    0.793963 0.741990 0.260656 -0.600402
F39   F     F_    0.228321 0.885584 0.207918 -0.623192
F40   F     F_    0.205359 0.754998 0.752895 -0.601662
F41   F     F_    0.762400 0.876489 0.784361 -0.595451
F42   F     F_    0.883712 0.231700 0.789235 -0.616637
F43   F     F_    0.254594 0.203568 0.744461 -0.619483
F44   F     F_    0.572059 0.235682 0.896698 -0.613791
F45   F     F_    0.249060 0.430345 0.857245 -0.591334
F46   F     F_    0.452799 0.740040 0.845974 -0.620505
F47   F     F_    0.761278 0.563382 0.882740 -0.615212
F48   F     F_    0.072059 0.264318 0.603302 -0.613791
H1    H     H_    0.579473 0.249744 0.106755 0.253493
H2    H     H_    0.248540 0.074546 0.616082 0.255503
H3    H     H_    0.960700 0.215203 0.660876 0.249103
H4    H     H_    0.772673 0.945392 0.652423 0.288173
H5    H     H_    0.079473 0.250256 0.393244 0.253493
H6    H     H_    0.213656 0.961268 0.337796 0.248403
H7    H     H_    0.920318 0.749589 0.392797 0.241758
H8    H     H_    0.785639 0.038844 0.338095 0.248383
H9    H     H_    0.713657 0.538732 0.162204 0.248403
H10   H     H_    0.420318 0.750410 0.107203 0.241758
H11   H     H_    0.285639 0.461157 0.161905 0.248383
H12   H     H_    0.579901 0.748512 0.886852 0.247960
H13   H     H_    0.748540 0.425454 0.883918 0.255503
H14   H     H_    0.460699 0.284797 0.839124 0.249103
H15   H     H_    0.272673 0.554608 0.847576 0.288173
H16   H     H_    0.079901 0.751488 0.613148 0.247960
N1    N     N_R   0.574080 0.369570 0.076720 -0.129508
N2    N     N_R   0.130430 0.074080 0.576720 -0.115100
N3    N     N_R   0.925920 0.130430 0.576720 -0.102010
N4    N     N_R   0.869570 0.925920 0.576720 -0.118624
N5    N     N_R   0.074080 0.130430 0.423280 -0.129508
N6    N     N_R   0.130430 0.925920 0.423280 -0.102745
N7    N     N_R   0.925920 0.869570 0.423280 -0.124036
N8    N     N_R   0.869570 0.074080 0.423280 -0.098751
N9    N     N_R   0.574050 0.630410 0.076720 -0.134338
N10   N     N_R   0.369590 0.574050 0.076720 -0.142516
N11   N     N_R   0.425950 0.369590 0.076720 -0.124643
N12   N     N_R   0.630430 0.574080 0.076720 -0.102745
N13   N     N_R   0.630410 0.425950 0.076720 -0.146856
N14   N     N_R   0.574050 0.369590 0.923280 -0.143562
N15   N     N_R   0.369590 0.425950 0.923280 -0.123240
N16   N     N_R   0.425950 0.630410 0.923280 -0.137122
N17   N     N_R   0.630410 0.574050 0.923280 -0.133670
N18   N     N_R   0.074050 0.130410 0.576720 -0.143562
N19   N     N_R   0.869590 0.074050 0.576720 -0.123240
N20   N     N_R   0.925950 0.869590 0.576720 -0.137122
N21   N     N_R   0.130410 0.925950 0.576720 -0.133671
N22   N     N_R   0.074050 0.869590 0.423280 -0.134338
N23   N     N_R   0.425920 0.630430 0.076720 -0.124036
N24   N     N_R   0.869590 0.925950 0.423280 -0.142516
N25   N     N_R   0.925950 0.130410 0.423280 -0.124643
N26   N     N_R   0.130410 0.074050 0.423280 -0.146856
N27   N     N_R   0.369570 0.425920 0.076720 -0.098751
N28   N     N_R   0.574080 0.630430 0.923280 -0.122355
N29   N     N_R   0.630430 0.425920 0.923280 -0.115100
N30   N     N_R   0.425920 0.369570 0.923280 -0.102010
N31   N     N_R   0.369570 0.574080 0.923280 -0.118624
N32   N     N_R   0.074080 0.869570 0.576720 -0.122355
Ni1   Ni    Ni4+2 0.500000 0.370760 0.000000 0.298568
Ni2   Ni    Ni4+2 0.629240 0.500000 0.000000 0.311616
Ni3   Ni    Ni4+2 0.500000 0.629240 0.000000 0.263472
Ni4   Ni    Ni4+2 0.370760 0.500000 0.000000 0.324703
Ni5   Ni    Ni4+2 0.000000 0.870760 0.500000 0.263472
Ni6   Ni    Ni4+2 0.129240 0.000000 0.500000 0.311616
Ni7   Ni    Ni4+2 0.000000 0.129240 0.500000 0.298569
Ni8   Ni    Ni4+2 0.870760 0.000000 0.500000 0.324703

loop_
_geom_bond_atom_site_label_1
_geom_bond_atom_site_label_2
_ccdc_geom_bond_type
N23   Ni3   S    
N9    Ni3   S    
C3    N3    A    
C43   C72   S    
C40   C71   S    
N10   Ni4   S    
C16   N16   A    
C24   C42   A    
C34   H11   S    
C23   H10   S    
C1    N1    A    
C2    C37   A    
C8    C43   A    
N15   Ni4   S    
C25   C43   A    
C5    N5    A    
N6    Ni6   S    
C21   C36   A    
N21   N32   A    
C5    H5    S    
C74   F39   S    
N2    N18   A    
C69   F33   S    
C12   C28   A    
C3    H3    S    
C59   F24   S    
C23   C29   A    
C24   N24   A    
N14   Ni1   S    
C1    H1    S    
C16   C35   A    
C54   F19   S    
C53   F18   S    
C50   F15   S    
C7    C42   A    
C22   C41   A    
C8    H8    S    
C67   N30   A    
C25   N25   A    
C49   C54   S    
C20   N20   A    
C52   F17   S    
C25   F7    S    
C21   N21   A    
C68   F32   S    
C22   F5    S    
C44   C59   S    
N25   Ni7   S    
N20   Ni5   S    
C18   F48   S    
C41   C74   S    
N17   N28   A    
N12   Ni2   S    
C3    C38   A    
N24   Ni8   S    
C6    C41   A    
C72   F37   S    
C4    C39   A    
N7    Ni5   S    
C51   C57   S    
C15   F45   S    
C49   F14   S    
N8    Ni8   S    
C19   F2    S    
C13   F34   S    
C52   C55   S    
C11   N11   A    
C51   F16   S    
C10   F12   S    
N26   Ni6   S    
C31   C62   S    
C10   N10   A    
N22   Ni5   S    
C12   N12   A    
C13   N13   A    
C58   C75   D    
C48   C60   S    
C29   C69   S    
N32   Ni5   S    
C65   F30   S    
C60   C77   D    
C50   C53   S    
C14   F44   S    
C49   C66   D    
C30   C34   A    
N5    N26   A    
N4    N20   A    
C80   N32   A    
C4    H4    S    
C36   C80   A    
C47   C64   D    
C20   C39   A    
N2    Ni6   S    
C17   F47   S    
C62   F27   S    
C80   H16   S    
C79   F43   S    
N15   N30   A    
C45   H12   S    
C6    N6    A    
C57   C74   D    
C55   F20   S    
N16   Ni3   S    
C7    H7    S    
C36   C75   S    
C37   C79   S    
N14   N29   A    
C21   F4    S    
N4    Ni8   S    
C55   C73   D    
C19   N19   A    
C39   C76   S    
N9    N12   A    
C61   F26   S    
N30   Ni1   S    
C17   N17   A    
C23   N23   A    
C56   H13   S    
N28   Ni3   S    
C14   N14   A    
C76   F41   S    
C78   N31   A    
C48   C65   D    
N16   N31   A    
C7    N7    A    
N27   Ni4   S    
C5    C40   A    
N7    N24   A    
N21   Ni6   S    
C66   F31   S    
C53   C71   D    
C45   N28   A    
C33   C67   A    
N5    Ni7   S    
N3    Ni7   S    
C34   N27   A    
C42   C73   S    
C73   F38   S    
C8    N8    A    
N19   Ni8   S    
C77   F42   S    
C47   F11   S    
C18   C37   A    
C28   C70   S    
C75   F40   S    
C14   C32   A    
C15   N15   A    
C47   C61   S    
C11   F23   S    
N31   Ni4   S    
C46   F10   S    
C38   C77   S    
C70   F35   S    
C2    N2    A    
C57   F21   S    
N1    N13   A    
C56   N29   A    
C35   C78   A    
C46   C63   D    
C44   C62   D    
C63   F28   S    
N18   Ni7   S    
C6    H6    S    
C27   C66   S    
N3    N19   A    
C78   H15   S    
C11   C30   A    
N8    N25   A    
C18   N18   A    
C10   C29   A    
C26   C40   A    
C64   F29   S    
C16   F46   S    
N29   Ni2   S    
C61   C79   D    
C33   C64   S    
C17   C31   A    
C58   F22   S    
C2    H2    S    
C15   C33   A    
C71   F36   S    
C50   C68   D    
N13   Ni2   S    
N10   N23   A    
C30   C68   S    
C48   F13   S    
C52   C70   D    
C60   F25   S    
C9    N9    A    
N6    N22   A    
C22   N22   A    
N11   N27   A    
C19   C38   A    
C54   C72   D    
C26   N26   A    
C26   F8    S    
C31   C45   A    
C20   F3    S    
N1    Ni1   S    
C1    C27   A    
C12   H9    S    
C13   C27   A    
C35   C63   S    
C51   C69   D    
N17   Ni2   S    
C67   H14   S    
C24   F6    S    
C59   C76   D    
C32   C56   A    
C46   C58   S    
C44   F9    S    
N11   Ni1   S    
C9    C28   A    
C9    F1    S    
C32   C65   S    
C4    N4    A    
