data_mof_unit_49824.cif
_audit_creation_date              2013-03-05T16:06:22-0500
_audit_creation_method            fapswitch 2.2
_symmetry_space_group_name_H-M    P1
_symmetry_Int_Tables_number       1
_space_group_crystal_system       triclinic
_cell_length_a                    14.887403
_cell_length_b                    15.082817
_cell_length_c                    16.613734
_cell_angle_alpha                 92.408991
_cell_angle_beta                  98.891626
_cell_angle_gamma                 97.816779
_cell_volume                      3643.85068232

loop_
_atom_site_label
_atom_site_type_symbol
_atom_site_description
_atom_site_fract_x
_atom_site_fract_y
_atom_site_fract_z
_atom_type_partial_charge
O1    O     O_R   0.615140 0.606020 0.522930 -0.628467
O2    O     O_R   0.384860 0.393980 0.477070 -0.617286
O3    O     O_R   0.468580 0.639400 0.493740 -0.596910
O4    O     O_R   0.531420 0.360600 0.506260 -0.610714
C1    C     C_R   0.558048 0.664101 0.511191 0.871046
C2    C     C_R   0.442357 0.335720 0.486355 0.846140
O5    O     O_R   0.581950 0.481350 0.400520 -0.594996
O6    O     O_R   0.418050 0.518650 0.599480 -0.597081
O7    O     O_R   0.435380 0.514730 0.371330 -0.607885
O8    O     O_R   0.564620 0.485270 0.628670 -0.597596
C3    C     C_R   0.510774 0.494355 0.349123 0.849966
C4    C     C_R   0.486999 0.499726 0.650340 0.864561
Zn1   Zn    Zn3+2 0.597860 0.477710 0.519490 0.967442
Zn2   Zn    Zn3+2 0.402140 0.522290 0.480510 0.976326
C5    C     C_R   0.509788 0.466982 0.264442 -0.022549
C6    C     C_R   0.468678 0.475783 0.730259 -0.030582
C7    C     C_R   0.473261 0.516795 0.201920 -0.173083
C8    C     C_R   0.532369 0.504517 0.800142 -0.161072
C9    C     C_R   0.468006 0.485412 0.121264 -0.082019
C10   C     C_R   0.514662 0.476087 0.875330 -0.088488
C11   C     C_R   0.494910 0.401742 0.102770 0.114256
C12   C     C_R   0.435276 0.415208 0.880491 0.116558
C13   C     C_R   0.532137 0.352601 0.165938 -0.130905
C14   C     C_R   0.371353 0.387402 0.810131 -0.129670
C15   C     C_R   0.540277 0.385493 0.246381 -0.122885
C16   C     C_R   0.387769 0.418020 0.735407 -0.147574
C17   C     C_2   0.488998 0.368902 0.016965 -0.071769
C18   C     C_2   0.417653 0.384723 0.960505 -0.080511
H1    H     H_    0.449775 0.579835 0.215524 0.142098
H2    H     H_    0.594838 0.549251 0.796529 0.161179
H3    H     H_    0.338544 0.394487 0.681096 0.143268
H4    H     H_    0.567575 0.345829 0.294750 0.149284
H5    H     H_    0.553979 0.288581 0.153094 0.140857
H6    H     H_    0.309520 0.341367 0.812867 0.139594
H7    H     H_    0.563308 0.501137 0.929513 0.128576
H8    H     H_    0.442410 0.526263 0.073232 0.126422
C19   C     C_R   0.596640 0.759509 0.507346 -0.122726
C20   C     C_R   0.409392 0.240033 0.459636 -0.151961
C21   C     C_R   0.721655 0.886535 0.529281 -0.055423
C22   C     C_R   0.301071 0.120498 0.377555 -0.047077
C23   C     C_R   0.688749 0.795874 0.540224 -0.082260
C24   C     C_R   0.319170 0.207297 0.418727 -0.078216
C25   C     C_R   0.539242 0.814213 0.466024 -0.265902
C26   C     C_R   0.476816 0.184219 0.463227 -0.256612
C27   C     C_R   0.571577 0.901831 0.449452 0.068894
C28   C     C_R   0.462851 0.102126 0.418377 0.071372
C29   C     C_R   0.662858 0.939469 0.483374 0.075649
C30   C     C_R   0.373146 0.067104 0.378875 0.063287
C31   C     C_R   0.511324 0.956281 0.407601 -0.018682
C32   C     C_R   0.535143 0.049728 0.420800 -0.011155
C33   C     C_R   0.629830 0.085534 0.439523 -0.061140
C34   C     C_R   0.426388 0.922704 0.357293 -0.038065
C35   C     C_R   0.692826 0.029200 0.469530 -0.137087
C36   C     C_R   0.357912 0.978351 0.344409 -0.139244
H9    H     H_    0.764815 0.056613 0.483110 0.225598
H10   H     H_    0.292179 0.950269 0.309509 0.234617
H11   H     H_    0.541950 0.205615 0.502317 0.167958
H12   H     H_    0.467297 0.788212 0.448516 0.168919
N1    N     N_R   0.271750 0.551950 0.454510 -0.100594
N2    N     N_R   0.728250 0.448050 0.545490 -0.099782
C37   C     C_R   0.166147 0.614236 0.357872 -0.084834
C38   C     C_R   0.832837 0.359541 0.615329 -0.069927
C39   C     C_R   0.255022 0.599262 0.387732 -0.054588
C40   C     C_R   0.743525 0.378191 0.591939 -0.030032
C41   C     C_R   0.205205 0.520519 0.496570 0.024197
C42   C     C_R   0.795421 0.495885 0.513419 0.006728
C43   C     C_R   0.117016 0.544797 0.477712 -0.017261
C44   C     C_R   0.884962 0.475461 0.528700 -0.002074
C45   C     C_R   0.096416 0.592239 0.406339 0.109900
C46   C     C_R   0.906325 0.418102 0.592167 0.107096
C47   C     C_R   0.047187 0.515762 0.523604 0.032141
C48   C     C_R   0.954442 0.515736 0.487658 0.024539
C49   C     C_R   0.934821 0.555937 0.412194 -0.002923
C50   C     C_R   0.066487 0.485232 0.603365 0.000435
C51   C     C_R   0.005412 0.609451 0.383107 -0.022777
C52   C     C_R   0.997768 0.429936 0.634855 -0.058671
H13   H     H_    0.778502 0.551700 0.478513 0.135479
H14   H     H_    0.221387 0.474131 0.542515 0.137281
H15   H     H_    0.685724 0.337242 0.610618 0.125808
H16   H     H_    0.310077 0.617807 0.353370 0.145504
C53   C     C_2   0.664848 0.177794 0.419401 0.398589
H17   H     H_    0.620189 0.215952 0.381384 0.074262
O9    O     O_2   0.744054 0.211883 0.444227 -0.544775
C54   C     C_2   0.413041 0.835375 0.308915 0.381402
H18   H     H_    0.470772 0.799332 0.305409 0.068348
O10   O     O_2   0.337994 0.803614 0.270786 -0.588005
C55   C     C_2   0.982408 0.687812 0.336695 0.497601
H19   H     H_    0.913239 0.689308 0.305285 0.097931
O11   O     O_2   0.039332 0.754393 0.337335 -0.556786
C56   C     C_2   0.020677 0.399170 0.718309 0.540351
H20   H     H_    0.086282 0.376205 0.737027 0.077667
O12   O     O_2   0.968553 0.403023 0.767933 -0.543573
C57   C     C_2   0.148610 0.636551 0.271208 0.522000
H21   H     H_    0.202092 0.675878 0.245135 0.124104
O13   O     O_2   0.077209 0.605739 0.226462 -0.523888
C58   C     C_2   0.843981 0.274693 0.655102 0.547810
H22   H     H_    0.790851 0.243645 0.687136 0.070587
O14   O     O_2   0.909735 0.236068 0.648730 -0.523571
I1    I     I_    0.813287 0.513097 0.323464 -0.339541
I2    I     I_    0.184951 0.548727 0.687952 -0.363995
C59   C     C_2   0.323956 0.387402 0.980977 0.419300
H23   H     H_    0.275020 0.420405 0.941981 0.079873
O15   O     O_2   0.299875 0.350830 0.039922 -0.492240
C60   C     C_2   0.570566 0.333333 0.993256 0.410874
H24   H     H_    0.634826 0.341889 0.035624 0.081892
O16   O     O_2   0.566022 0.292228 0.927475 -0.516513
C61   C     C_2   0.243868 0.262541 0.420318 0.418756
H25   H     H_    0.237343 0.298349 0.476678 0.068932
O17   O     O_2   0.189643 0.269847 0.358660 -0.517602
C62   C     C_2   0.749086 0.742337 0.591441 0.393702
H26   H     H_    0.770345 0.683149 0.565354 0.075386
O18   O     O_2   0.776447 0.765263 0.663381 -0.514746
C63   C     C_2   0.817104 0.924410 0.567650 0.470028
H27   H     H_    0.872628 0.885106 0.565217 0.073306
O19   O     O_2   0.833540 0.997127 0.606118 -0.507593
C64   C     C_2   0.206012 0.085752 0.336616 0.498386
H28   H     H_    0.148502 0.091062 0.368609 0.087671
O20   O     O_2   0.190881 0.055708 0.265676 -0.507853

loop_
_geom_bond_atom_site_label_1
_geom_bond_atom_site_label_2
_geom_bond_distance
_ccdc_geom_bond_type
C42   C44   1.396419 A    
C55   H19   1.083692 S    
C59   H23   1.085415 S    
C38   C58   1.482171 S    
C7    H1    1.083597 S    
C60   O16   1.221519 D    
C53   H17   1.084906 S    
C21   C23   1.417425 A    
Zn1   N2    2.036688 S    
C30   C36   1.408578 A    
Zn2   N1    2.036688 S    
C57   H21   1.083137 S    
C50   C52   1.409239 A    
O1    C1    1.301350 A    
C9    C11   1.410804 A    
C14   C16   1.387609 A    
C20   C24   1.420916 A    
C1    C19   1.482946 S    
C9    H8    1.082969 S    
C37   C57   1.484224 S    
C5    C15   1.403423 A    
C41   C43   1.403284 A    
C17   C60   1.491598 S    
C64   H28   1.085241 S    
C38   C46   1.421632 A    
C22   C30   1.424661 A    
O4    Zn1   1.889862 S    
C34   C54   1.486899 S    
C62   H26   1.082439 S    
C38   C40   1.396144 A    
C25   H12   1.079567 S    
C10   H7    1.083055 S    
C3    C5    1.446738 S    
C18   C59   1.491281 S    
C4    C6    1.446781 S    
C26   C28   1.391439 A    
C21   C63   1.490115 S    
C58   O14   1.221001 D    
C61   H25   1.085236 S    
C2    C20   1.485578 S    
C8    H2    1.083389 S    
C24   C61   1.487658 S    
C33   C53   1.488474 S    
C43   C47   1.415294 A    
O6    C4    1.296506 A    
C29   C35   1.406156 A    
C15   H4    1.083694 S    
C27   C29   1.418831 A    
C11   C17   1.474878 S    
N2    C42   1.343578 A    
C16   H3    1.084022 S    
C57   O13   1.220999 D    
C12   C18   1.474368 S    
C61   O17   1.221167 D    
O2    C2    1.305310 A    
C60   H24   1.085319 S    
C53   O9    1.221413 D    
C34   C36   1.403529 A    
C28   C30   1.414659 A    
C39   H16   1.082420 S    
C35   H9    1.080437 S    
C6    C16   1.403535 A    
C36   H10   1.079093 S    
C54   H18   1.085127 S    
O4    C2    1.314124 A    
C50   I2    2.159553 S    
C13   H5    1.083146 S    
C14   H6    1.083188 S    
C33   C35   1.399245 A    
C19   C25   1.392951 A    
O5    C3    1.296666 A    
O7    Zn2   1.955382 S    
C20   C26   1.391172 A    
O7    C3    1.304876 A    
C56   O12   1.221178 D    
C27   C31   1.420601 A    
C26   H11   1.081096 S    
C44   C48   1.409190 A    
C31   C34   1.420380 A    
C58   H22   1.085593 S    
C37   C39   1.391233 A    
C32   C33   1.420828 A    
C6    C8    1.393009 A    
C25   C27   1.397322 A    
O3    Zn2   1.889860 S    
O8    C4    1.305021 A    
C51   C55   1.487904 S    
C10   C12   1.410679 A    
C23   C62   1.483831 S    
C11   C13   1.398277 A    
C46   C52   1.418781 A    
C40   H15   1.082745 S    
C12   C14   1.397952 A    
O1    Zn1   1.914541 S    
C49   C51   1.395868 A    
C21   C29   1.421349 A    
C63   H27   1.085342 S    
C59   O15   1.221458 D    
C37   C45   1.422436 A    
C49   I1    2.154450 S    
C42   H13   1.077972 S    
O6    Zn2   1.957996 S    
C41   H14   1.078953 S    
C54   O10   1.220307 D    
C48   C49   1.422572 A    
O3    C1    1.316626 A    
O8    Zn1   1.955382 S    
C47   C50   1.421326 A    
C5    C7    1.393299 A    
C28   C32   1.416031 A    
N1    C39   1.353350 A    
N2    C40   1.355259 A    
C55   O11   1.221296 D    
C47   C48   1.417034 A    
N1    C41   1.344836 A    
C56   H20   1.085268 S    
C22   C64   1.486850 S    
C22   C24   1.423453 A    
C7    C9    1.389235 A    
C64   O20   1.220830 D    
C45   C51   1.412209 A    
C8    C10   1.389178 A    
C13   C15   1.387347 A    
C19   C23   1.420660 A    
O2    Zn2   1.914544 S    
C62   O18   1.220826 D    
O5    Zn1   1.957995 S    
C44   C46   1.417485 A    
C31   C32   1.405133 A    
C17   C18   1.358200 D    
C43   C45   1.425039 A    
C52   C56   1.484897 S    
C63   O19   1.221054 D    
