data_mof_unit_10308.cif
_audit_creation_date              2012-12-10T18:57:43-0500
_audit_creation_method            fapswitch 2.2
_symmetry_space_group_name_H-M    P1
_symmetry_Int_Tables_number       1
_space_group_crystal_system       triclinic
_cell_length_a                    10.940607
_cell_length_b                    10.870361
_cell_length_c                    9.598295
_cell_angle_alpha                 91.592667
_cell_angle_beta                  90.328407
_cell_angle_gamma                 91.084217
_cell_volume                      1140.84172035

loop_
_atom_site_label
_atom_site_type_symbol
_atom_type_description
_atom_site_fract_x
_atom_site_fract_y
_atom_site_fract_z
_atom_type_partial_charge
C1    C     C_R   0.497918 0.262543 0.497962 0.838610
C2    C     C_R   0.500660 0.129063 0.492193 -0.233810
C3    C     C_R   0.440226 0.057709 0.385785 0.023287
C4    C     C_R   0.438647 0.929526 0.391581 0.690461
C5    C     C_R   0.498191 0.870659 0.500911 -0.275385
C6    C     C_R   0.568603 0.941853 0.595536 0.016879
C7    C     C_3   0.571465 0.945179 0.751226 -0.421281
C8    C     C_3   0.570604 0.084327 0.746439 -0.392839
C9    C     C_R   0.598525 0.544617 0.075217 0.092055
C10   C     C_R   0.410204 0.439960 0.071596 0.213268
C11   C     C_R   0.411309 0.438505 0.922002 0.203098
C12   C     C_R   0.265699 0.503681 0.500004 0.821117
C13   C     C_R   0.598955 0.543379 0.928567 0.130719
C14   C     C_3   0.654817 0.668437 0.924589 -0.518945
C15   C     C_3   0.653740 0.671329 0.082729 0.458135
C16   C     C_R   0.499150 0.737382 0.501417 0.853799
C17   C     C_R   0.734336 0.497564 0.500396 0.736180
C18   C     C_2   0.932642 0.515770 0.391651 -0.280572
C19   C     C_2   0.865592 0.485107 0.502559 0.464588
C20   C     C_2   0.065681 0.505393 0.387900 -0.111388
C21   C     C_2   0.134459 0.516728 0.503164 -0.229511
C22   C     C_R   0.568213 0.068515 0.591842 0.103513
Cu1   Cu    Cu3+1 0.499990 0.499980 0.640670 0.993218
Cu2   Cu    Cu3+1 0.500010 0.500020 0.359330 1.026610
H1    H     H_    0.888521 0.547207 0.297744 0.123692
H2    H     H_    0.657009 0.129042 0.785039 0.207852
H3    H     H_    0.748195 0.668033 0.879621 0.167650
H4    H     H_    0.590434 0.732950 0.878534 0.232870
H5    H     H_    0.746026 0.675568 0.131752 0.056447
H6    H     H_    0.107369 0.492567 0.286728 0.166507
H7    H     H_    0.095150 0.540059 0.603601 0.210163
H8    H     H_    0.487073 0.905338 0.797453 0.221767
H9    H     H_    0.659493 0.911566 0.792373 0.203536
H10   H     H_    0.485380 0.124425 0.788959 0.201510
N1    N     N_R   0.500780 0.500930 0.147930 -0.157210
N2    N     N_R   0.500780 0.500890 0.852020 -0.173262
O1    O     O_R   0.500000 0.319640 0.618810 -0.560806
O2    O     O_R   0.500010 0.319680 0.381230 -0.584946
O3    O     O_R   0.321940 0.499980 0.618760 -0.557252
O4    O     O_R   0.321950 0.500020 0.381180 -0.543008
O5    O     O_R   0.499990 0.680320 0.618770 -0.602204
O6    O     O_R   0.500000 0.680360 0.381190 -0.466656
O7    O     O_R   0.678050 0.499980 0.618820 -0.542716
O8    O     O_R   0.678060 0.500020 0.381240 -0.631535
N3    N     N_3   0.312237 0.379936 0.142098 -0.543022
H11   H     H_    0.231364 0.422548 0.114086 0.197315
H12   H     H_    0.305459 0.288863 0.105486 0.188198
N4    N     N_3   0.319752 0.370261 0.843897 -0.517727
H13   H     H_    0.233624 0.402679 0.871381 0.214365
H14   H     H_    0.324659 0.277429 0.868325 0.189228
F1    F     F_    0.574095 0.758273 0.134858 -0.593932
F2    F     F_    0.915515 0.433800 0.616888 -0.674052
N5    N     N_3   0.373494 0.111870 0.275521 -0.515375
H15   H     H_    0.311881 0.174373 0.318747 0.230343
H16   H     H_    0.435996 0.157211 0.212017 0.244658
F3    F     F_    0.372716 0.863202 0.294189 -0.594204

loop_
_geom_bond_atom_site_label_1
_geom_bond_atom_site_label_2
_ccdc_geom_bond_type
C12   O4    A    
C8    C22   S    
Cu1   Cu2   S    
C17   O7    A    
C2    C22   A    
C6    C7    S    
C15   F1    S    
C14   H3    S    
C8    H2    S    
N5    H16   S    
Cu2   O2    S    
Cu1   O5    S    
C1    O1    A    
N4    H13   S    
C10   N3    S    
N4    H14   S    
C2    C3    A    
C9    C15   S    
C17   O8    A    
Cu1   O7    S    
C7    C8    S    
C8    H10   S    
C13   C14   S    
C4    F3    S    
C21   H7    S    
C3    N5    S    
C11   N4    S    
C10   N1    A    
C18   H1    S    
C1    O2    A    
C12   O3    A    
Cu1   O3    S    
C12   C21   S    
C11   N2    A    
C17   C19   S    
Cu1   O1    S    
C15   H5    S    
C18   C20   S    
N3    H12   S    
C5    C6    A    
Cu2   O8    S    
Cu2   O4    S    
Cu2   N1    S    
C10   C11   A    
C7    H9    S    
C3    C4    A    
Cu1   N2    S    
C16   O6    A    
Cu2   O6    S    
C20   C21   D    
C13   N2    A    
C1    C2    S    
C9    N1    A    
C9    C13   A    
C14   C15   S    
C18   C19   D    
C5    C16   S    
C20   H6    S    
C7    H8    S    
C14   H4    S    
N3    H11   S    
C19   F2    S    
N5    H15   S    
C4    C5    A    
C16   O5    A    
C6    C22   A    
