data_mof_unit_24312.cif
_audit_creation_date              2012-12-10T20:32:41-0500
_audit_creation_method            fapswitch 2.2
_symmetry_space_group_name_H-M    P1
_symmetry_Int_Tables_number       1
_space_group_crystal_system       triclinic
_cell_length_a                    11.527486
_cell_length_b                    10.680013
_cell_length_c                    9.886715
_cell_angle_alpha                 90.232197
_cell_angle_beta                  89.68446
_cell_angle_gamma                 89.861915
_cell_volume                      1217.15801367

loop_
_atom_site_label
_atom_site_type_symbol
_atom_type_description
_atom_site_fract_x
_atom_site_fract_y
_atom_site_fract_z
_atom_type_partial_charge
C1    C     C_R   0.494300 0.260165 0.499743 0.878063
C2    C     C_R   0.475314 0.128441 0.501217 -0.163791
C3    C     C_R   0.429551 0.062311 0.389253 -0.033122
C4    C     C_R   0.433691 0.932438 0.390589 -0.257274
C5    C     C_R   0.479975 0.871081 0.502975 -0.125239
C6    C     C_R   0.501761 0.937071 0.621316 0.140065
C7    C     C_3   0.604082 0.931967 0.713318 -0.489011
C8    C     C_3   0.602314 0.073964 0.712126 -0.466618
C9    C     C_R   0.408454 0.451863 0.071228 0.144808
C10   C     C_R   0.594569 0.537963 0.071410 -0.123948
C11   C     C_R   0.594434 0.538404 0.927693 -0.147665
C12   C     C_R   0.281964 0.500138 0.500226 0.908903
C13   C     C_R   0.408988 0.449614 0.928961 0.203918
C14   C     C_3   0.284702 0.490100 0.922615 0.218362
C15   C     C_3   0.284848 0.493976 0.077160 -0.345440
C16   C     C_R   0.497217 0.739847 0.500400 0.882529
C17   C     C_R   0.718047 0.500130 0.499605 0.902855
C18   C     C_1   0.161548 0.500665 0.500175 -0.181951
C19   C     C_1   0.059358 0.501063 0.499081 -0.021059
C20   C     C_1   0.940728 0.501097 0.498267 -0.009030
C21   C     C_1   0.838510 0.500740 0.498533 -0.204345
C22   C     C_R   0.500081 0.064485 0.620143 0.146212
H1    H     H_    0.227622 0.424019 0.126780 0.188931
H2    H     H_    0.406152 0.880146 0.302324 0.191271
H3    H     H_    0.581563 0.891708 0.813583 0.212394
H4    H     H_    0.682327 0.890875 0.663796 0.197594
H5    H     H_    0.578828 0.115833 0.811744 0.217782
H6    H     H_    0.679587 0.115750 0.661953 0.194887
H7    H     H_    0.669916 0.571731 0.124897 0.152947
H8    H     H_    0.669597 0.572733 0.873595 0.157250
H9    H     H_    0.274592 0.581730 0.869886 0.093472
N1    N     N_R   0.499240 0.499140 0.142800 -0.104224
N2    N     N_R   0.499240 0.499180 0.857150 -0.135425
O1    O     O_R   0.500010 0.316790 0.614690 -0.600337
O2    O     O_R   0.500000 0.316760 0.385350 -0.609939
O3    O     O_R   0.334450 0.500030 0.614670 -0.601007
O4    O     O_R   0.334440 0.500000 0.385330 -0.611942
O5    O     O_R   0.500000 0.683240 0.614650 -0.621633
O6    O     O_R   0.499990 0.683210 0.385310 -0.613916
O7    O     O_R   0.665560 0.500000 0.614670 -0.623337
O8    O     O_R   0.665550 0.499970 0.385330 -0.616434
Zn1   Zn    Zn3+2 0.500010 0.500020 0.653130 0.957949
Zn2   Zn    Zn3+2 0.499990 0.499980 0.346870 0.965868
C23   C     C_1   0.382448 0.122876 0.271113 0.213751
N3    N     N_1   0.344425 0.170780 0.176333 -0.203962
O9    O     O_3   0.214570 0.392881 0.870916 -0.605414
C24   C     C_3   0.097599 0.432957 0.869881 0.096014
H10   H     H_    0.086414 0.512584 0.798728 0.139646
H11   H     H_    0.068767 0.462919 0.972816 0.136839
C25   C     C_3   0.020650 0.324642 0.823970 -0.309523
H12   H     H_    0.040850 0.301156 0.716772 0.226516
H13   H     H_    0.038854 0.240785 0.886706 0.233649
C26   C     C_3   0.892116 0.357904 0.837427 -0.956291
H14   H     H_    0.868347 0.371161 0.945598 0.261739
H15   H     H_    0.838671 0.280936 0.795055 0.267794
H16   H     H_    0.872472 0.445373 0.781798 0.271377
C27   C     C_1   0.269553 0.622089 0.130008 0.196642
N4    N     N_1   0.257012 0.722730 0.171365 -0.218150

loop_
_geom_bond_atom_site_label_1
_geom_bond_atom_site_label_2
_ccdc_geom_bond_type
C2    C22   A    
C8    C22   S    
C13   N2    A    
C6    C7    S    
C12   O3    A    
O2    Zn2   S    
C25   H13   S    
C19   C20   S    
O1    Zn1   S    
C14   H9    S    
C15   H1    S    
C25   H12   S    
C9    C15   S    
C7    C8    S    
C24   H11   S    
C13   C14   S    
C23   N3    T    
O8    Zn2   S    
C10   H7    S    
C27   N4    T    
C7    H4    S    
C11   H8    S    
C8    H6    S    
N2    Zn1   S    
O7    Zn1   S    
N1    Zn2   S    
C1    O1    A    
O5    Zn1   S    
C24   C25   S    
C2    C3    A    
C26   H15   S    
C5    C6    A    
C4    H2    S    
C17   O8    A    
C3    C23   S    
C25   C26   S    
C10   C11   A    
C16   O6    A    
C3    C4    A    
C6    C22   A    
C10   N1    A    
C11   N2    A    
C20   C21   T    
C1    O2    A    
C14   O9    S    
C1    C2    S    
C26   H16   S    
C12   C18   S    
C12   O4    A    
C8    H5    S    
C9    C13   A    
O9    C24   S    
C18   C19   T    
C5    C16   S    
O6    Zn2   S    
C9    N1    A    
C14   C15   S    
O3    Zn1   S    
O4    Zn2   S    
C17   C21   S    
C24   H10   S    
C26   H14   S    
C16   O5    A    
C4    C5    A    
C15   C27   S    
C17   O7    A    
C7    H3    S    
