data_mof_unit_58061.cif
_audit_creation_date              2012-12-11T19:13:10-0500
_audit_creation_method            fapswitch 2.2
_symmetry_space_group_name_H-M    P1
_symmetry_Int_Tables_number       1
_space_group_crystal_system       triclinic
_cell_length_a                    8.383311
_cell_length_b                    14.949671
_cell_length_c                    19.129925
_cell_angle_alpha                 101.833906
_cell_angle_beta                  91.1708
_cell_angle_gamma                 99.23464
_cell_volume                      2312.60784795

loop_
_atom_site_label
_atom_site_type_symbol
_atom_type_description
_atom_site_fract_x
_atom_site_fract_y
_atom_site_fract_z
_atom_type_partial_charge
Ba1   Ba    Ba6+2 0.853890 0.540460 0.466690 1.629584
Ba2   Ba    Ba6+2 0.335940 0.459610 0.533320 1.630930
C1    C     C_3   0.685846 0.818884 0.206930 0.216587
C2    C     C_R   0.016560 0.538514 0.729237 0.058022
C3    C     C_R   0.839523 0.427715 0.810888 -0.167048
C4    C     C_3   0.207423 0.774753 0.288342 0.317446
C5    C     C_R   0.774714 0.435416 0.744672 0.033468
C6    C     C_R   0.344188 0.572691 0.190425 -0.186937
C7    C     C_R   0.416438 0.553462 0.251463 -0.004877
C8    C     C_R   0.118707 0.451916 0.194988 -0.130191
C9    C     C_R   0.169751 0.455015 0.266803 0.041827
C10   C     C_R   0.972828 0.493133 0.846540 0.009149
C11   C     C_R   0.870061 0.483979 0.701789 -0.152414
C12   C     C_3   0.655894 0.765035 0.266915 0.373742
C13   C     C_R   0.204231 0.513809 0.154192 0.011482
C14   C     C_R   0.326155 0.496569 0.289941 -0.216374
C15   C     C_R   0.752509 0.450036 0.965385 -0.080056
C16   C     C_3   0.158185 0.778861 0.212263 -0.344297
C17   C     C_R   0.651339 0.423849 0.016812 -0.085966
C18   C     C_R   0.704016 0.450388 0.087836 -0.065163
C19   C     C_R   0.862345 0.494935 0.105940 -0.081481
C20   C     C_R   0.978907 0.496202 0.054198 0.012386
C21   C     C_R   0.921092 0.480625 0.980425 0.044216
C22   C     C_R   0.147134 0.517342 0.076366 -0.018961
C23   C     C_3   0.536898 0.306963 0.300573 0.318071
C24   C     C_R   0.255997 0.535515 0.021590 0.032300
C25   C     C_R   0.197838 0.519900 0.947867 0.014909
C26   C     C_R   0.029932 0.496607 0.925563 -0.016153
C27   C     C_R   0.424553 0.568270 0.036097 -0.041122
C28   C     C_3   0.253535 0.746088 0.627996 0.301126
C29   C     C_R   0.524484 0.595208 0.984394 -0.042577
C30   C     C_R   0.471195 0.568640 0.913539 -0.078863
C31   C     C_R   0.313826 0.523150 0.896046 -0.089161
C32   C     C_R   0.340468 0.820386 0.454654 -0.024738
C33   C     C_R   0.577062 0.791553 0.516830 0.061800
C34   C     C_3   0.624685 0.269980 0.234221 0.223418
C35   C     C_R   0.785401 0.223451 0.495142 -0.224263
C36   C     C_R   0.863792 0.171729 0.534128 0.026916
C37   C     C_R   0.789053 0.082938 0.539045 -0.160228
C38   C     C_R   0.634152 0.043879 0.505297 0.012906
C39   C     C_R   0.549205 0.101212 0.472353 -0.024436
C40   C     C_3   0.328321 0.847930 0.652922 -0.413757
C41   C     C_R   0.562365 0.949126 0.501165 0.022908
C42   C     C_R   0.406814 0.915207 0.465644 -0.030419
C43   C     C_R   0.323506 0.975559 0.438400 -0.107547
C44   C     C_R   0.394608 0.065380 0.439964 -0.041889
C45   C     C_3   0.067601 0.273160 0.718562 0.366244
C46   C     C_R   0.640575 0.886290 0.529792 -0.152997
C47   C     C_R   0.434241 0.757684 0.473457 -0.213539
C48   C     C_R   0.622528 0.192287 0.470005 0.024788
C49   C     C_3   0.110857 0.241890 0.313924 0.231854
C50   C     C_3   0.131666 0.202382 0.235382 -0.386558
C51   C     C_3   0.825680 0.763654 0.691853 0.361112
C52   C     C_3   0.809915 0.749107 0.768763 0.175236
C53   C     C_3   0.710490 0.829571 0.339254 -0.355813
C54   C     C_3   0.895084 0.865666 0.693611 -0.455217
C55   C     C_3   0.377415 0.655875 0.445982 -0.248493
C56   C     C_3   0.077549 0.247970 0.791447 -0.367356
C57   C     C_3   0.881521 0.307200 0.474858 -0.225593
C58   C     C_3   0.535379 0.216659 0.680841 0.338693
C59   C     C_3   0.470913 0.121159 0.694695 -0.354096
C60   C     C_R   0.054069 0.553674 0.803876 -0.104935
H1    H     H_    0.443832 0.854484 0.684443 0.130977
H2    H     H_    0.816797 0.847904 0.206644 0.042610
H3    H     H_    0.740638 0.800089 0.799936 0.046670
H4    H     H_    0.932416 0.760445 0.795667 0.058907
H5    H     H_    0.523500 0.742454 0.266826 -0.073614
H6    H     H_    0.618042 0.877948 0.216250 0.057818
H7    H     H_    0.430757 0.332987 0.282456 -0.078887
H8    H     H_    0.614227 0.366908 0.334429 0.061722
H9    H     H_    0.687944 0.328395 0.211958 0.025751
H10   H     H_    0.717023 0.230879 0.249118 0.119551
H11   H     H_    0.259674 0.767094 0.177035 0.099741
H12   H     H_    0.351786 0.880678 0.606491 0.064358
H13   H     H_    0.166605 0.331972 0.717515 0.092309
H14   H     H_    0.948593 0.294076 0.710960 -0.072234
H15   H     H_    0.193014 0.222800 0.799042 0.148955
H16   H     H_    0.072834 0.309710 0.834385 0.069826
H17   H     H_    0.974640 0.192748 0.795628 0.110334
H18   H     H_    0.669816 0.227450 0.686168 -0.068327
H19   H     H_    0.495750 0.217890 0.625243 0.062193
H20   H     H_    0.520313 0.067406 0.656340 0.067029
H21   H     H_    0.336806 0.106725 0.687841 0.154270
H22   H     H_    0.232433 0.704020 0.288207 -0.000140
H23   H     H_    0.245483 0.886216 0.686836 0.126201
H24   H     H_    0.508022 0.117560 0.749974 0.110749
H25   H     H_    0.152173 0.608832 0.826837 0.065232
H26   H     H_    0.784220 0.370258 0.833181 0.064950
H27   H     H_    0.397223 0.633735 0.172433 0.107433
H28   H     H_    0.010967 0.403490 0.173073 0.065718
H29   H     H_    0.827083 0.482047 0.647690 0.058205
H30   H     H_    0.376676 0.486567 0.339704 0.033997
H31   H     H_    0.690045 0.450730 0.916501 0.077836
H32   H     H_    0.525304 0.394609 0.002505 0.077716
H33   H     H_    0.618382 0.441462 0.128293 0.086841
H34   H     H_    0.085152 0.183183 0.341668 0.045791
H35   H     H_    0.318106 0.827089 0.306293 -0.027769
H36   H     H_    0.895496 0.527987 0.160687 0.134750
H37   H     H_    0.489760 0.568332 0.084186 0.077238
H38   H     H_    0.650425 0.625024 0.998290 0.085913
H39   H     H_    0.555012 0.577876 0.872374 0.128543
H40   H     H_    0.281484 0.490552 0.841505 0.121443
H41   H     H_    0.204698 0.953586 0.411858 0.095249
H42   H     H_    0.752315 0.908457 0.561660 0.069198
H43   H     H_    0.856381 0.045965 0.568601 0.083176
H44   H     H_    0.051487 0.724604 0.191746 0.132417
H45   H     H_    0.222386 0.285950 0.340300 0.072622
H46   H     H_    0.326310 0.104853 0.413065 0.098420
H47   H     H_    0.127462 0.848077 0.211005 0.113678
H48   H     H_    0.348097 0.707590 0.604011 0.036063
H49   H     H_    0.153835 0.739905 0.587315 0.045617
H50   H     H_    0.628474 0.881320 0.352198 0.035324
H51   H     H_    0.707084 0.789238 0.381858 0.147583
H52   H     H_    0.834945 0.867752 0.338469 0.143995
H53   H     H_    0.799791 0.909404 0.706244 0.110244
H54   H     H_    0.995829 0.891532 0.734985 0.081664
H55   H     H_    0.943047 0.873780 0.641294 0.122419
H56   H     H_    0.016100 0.159927 0.210057 0.122616
H57   H     H_    0.616034 0.657226 0.763736 0.335637
H58   H     H_    0.460264 0.249683 0.157499 0.289777
H59   H     H_    0.716709 0.723785 0.125352 0.310504
H60   H     H_    0.461505 0.609090 0.440713 0.158362
H61   H     H_    0.285477 0.628738 0.480648 0.131128
H62   H     H_    0.342031 0.645642 0.388714 0.034447
H63   H     H_    0.007077 0.296614 0.463706 0.136497
H64   H     H_    0.833636 0.317824 0.424034 0.121855
H65   H     H_    0.879543 0.369891 0.517241 0.129516
H66   H     H_    0.225873 0.157495 0.230787 0.160235
H67   H     H_    0.168221 0.259228 0.206744 0.085837
H68   H     H_    0.907451 0.717398 0.665769 0.066545
O1    O     O_2   0.873960 0.434960 0.324060 -0.461178
O2    O     O_2   0.199541 0.181166 0.540455 -0.475807
O3    O     O_3   0.084167 0.195732 0.665531 -0.602391
O4    O     O_3   0.122410 0.443310 0.413000 -0.497696
O5    O     O_3   0.579960 0.613760 0.540040 -0.475087
O6    O     O_2   0.337900 0.272520 0.457940 -0.470141
O7    O     O_3   0.486275 0.234486 0.336058 -0.655227
O8    O     O_2   0.455861 0.461833 0.753677 -0.495616
O9    O     O_3   0.474320 0.284421 0.730422 -0.602539
O10   O     O_3   0.662870 0.605890 0.373310 -0.478573
O11   O     O_2   0.720362 0.513685 0.251289 -0.501753
O12   O     O_3   0.670995 0.739815 0.657000 -0.627070
O13   O     O_3   0.978391 0.288507 0.320545 -0.656071
O14   O     O_3   0.742341 0.689976 0.254680 -0.569910
O15   O     O_2   0.851800 0.727510 0.542110 -0.483081
O16   O     O_3   0.085000 0.656180 0.410790 -0.464048
O17   O     O_2   0.006449 0.820410 0.465865 -0.482558
O18   O     O_3   0.734457 0.658421 0.768943 -0.747126
O19   O     O_3   0.515683 0.209967 0.182196 -0.719399
O20   O     O_3   0.631518 0.761716 0.140375 -0.735695
O21   O     O_3   0.081617 0.795001 0.332797 -0.578785
O22   O     O_2   0.315740 0.565070 0.675980 -0.443447
O23   O     O_3   0.067300 0.556760 0.587010 -0.513478
O24   O     O_3   0.526840 0.394190 0.626700 -0.458360
O25   O     O_3   0.193069 0.712648 0.687069 -0.642421
O26   O     O_3   0.609760 0.386320 0.459970 -0.495822
O27   O     O_3   0.104710 0.343900 0.589220 -0.508390
P1    P     P_3+3 0.041320 0.408750 0.334280 0.946300
P2    P     P_3+3 0.676030 0.715810 0.563130 0.982679
P3    P     P_3+3 0.129185 0.775327 0.417124 0.960781
P4    P     P_3+3 0.148390 0.591320 0.665730 0.972124
P5    P     P_3+3 0.063010 0.222976 0.581462 0.941203
P6    P     P_3+3 0.631279 0.594034 0.281593 0.943993
P7    P     P_3+3 0.514087 0.270537 0.429778 0.908248
P8    P     P_3+3 0.560555 0.393046 0.715754 0.957503

loop_
_geom_bond_atom_site_label_1
_geom_bond_atom_site_label_2
_ccdc_geom_bond_type
C38   C39   A    
C35   C48   A    
C53   H50   S    
O1    P1    D    
C54   H55   S    
Ba1   O15   S    
C1    H6    S    
C30   H39   S    
C16   H47   S    
O12   P2    S    
O3    P5    S    
C50   H66   S    
C52   H3    S    
C51   C52   S    
C25   C31   A    
O10   P6    S    
C24   C25   A    
Ba2   O4    S    
C28   H48   S    
O8    P8    D    
C50   H67   S    
Ba1   P1    S    
C7    C14   A    
C22   C24   A    
C45   H14   S    
C51   O12   S    
C59   H20   S    
C36   C37   A    
O15   P2    D    
C34   O19   S    
O16   P3    S    
O17   P3    D    
C57   H65   S    
C46   H42   S    
C2    C60   A    
C47   C55   S    
H59   O20   S    
O9    P8    S    
Ba1   Ba2   S    
C58   H19   S    
C2    C11   A    
C7    P6    S    
C43   H41   S    
C56   H15   S    
Ba2   O6    S    
C55   H60   S    
C3    H26   S    
C38   C41   A    
C58   H18   S    
C17   C18   A    
C6    C7    A    
C32   C47   A    
C44   H46   S    
Ba2   O23   S    
C33   C47   A    
C39   C44   A    
O24   P8    S    
C41   C46   A    
O22   P4    D    
C34   H9    S    
C49   H34   S    
C23   H8    S    
C12   C53   S    
C5    P8    S    
Ba2   O24   S    
C19   C20   A    
C45   O3    S    
Ba1   O16   S    
H58   O19   S    
C33   C46   A    
Ba2   P4    S    
O2    P5    D    
Ba2   O22   S    
C4    C16   S    
C12   O14   S    
C40   H12   S    
C4    H22   S    
C27   H37   S    
C48   P7    S    
C49   C50   S    
C4    H35   S    
Ba1   P2    S    
C32   C42   A    
C3    C10   A    
C59   H21   S    
C37   C38   A    
C3    C5    A    
C17   H32   S    
C53   H51   S    
H57   O18   S    
C1    H2    S    
O25   P4    S    
C31   H40   S    
O23   P4    S    
C58   C59   S    
C57   H64   S    
Ba1   O26   S    
C23   O7    S    
C41   C42   A    
C16   H44   S    
C35   C36   A    
C55   H61   S    
O5    P2    S    
C10   C60   A    
C9    C14   A    
C29   C30   A    
C5    C11   A    
C12   H5    S    
C54   H54   S    
C40   H23   S    
C15   C21   A    
C29   H38   S    
Ba1   O23   S    
Ba1   O10   S    
O26   P7    S    
C35   C57   S    
C1    C12   S    
C56   H17   S    
C4    O21   S    
C28   O25   S    
O4    P1    S    
C18   H33   S    
C10   C26   S    
O11   P6    D    
C6    C13   A    
C8    C9    A    
O14   P6    S    
C20   C22   A    
C23   H7    S    
C21   C26   A    
Ba1   O4    S    
C39   C48   A    
C42   C43   A    
O13   P1    S    
C52   O18   S    
O6    P7    D    
C51   C54   S    
C37   H43   S    
C13   C22   S    
C1    O20   S    
Ba2   O26   S    
C23   C34   S    
C2    P4    S    
C51   H68   S    
Ba1   O1    S    
O7    P7    S    
C14   H30   S    
C52   H4    S    
C53   H52   S    
C49   O13   S    
C16   H11   S    
C60   H25   S    
Ba2   O5    S    
C28   H49   S    
C8    C13   A    
C30   C31   A    
C45   H13   S    
C27   C29   A    
C57   H63   S    
O21   P3    S    
C45   C56   S    
C19   H36   S    
Ba2   O27   S    
O27   P5    S    
C15   C17   A    
C54   H53   S    
C33   P2    S    
C59   H24   S    
C56   H16   S    
C58   O9    S    
C43   C44   A    
C36   P5    S    
C15   H31   S    
C18   C19   A    
C8    H28   S    
C24   C27   A    
C49   H45   S    
C25   C26   A    
C20   C21   A    
C28   C40   S    
C6    H27   S    
Ba1   O5    S    
C40   H1    S    
C11   H29   S    
C34   H10   S    
C9    P1    S    
C50   H56   S    
C55   H62   S    
C32   P3    S    
