data_mof_unit_28264.cif
_audit_creation_date              2012-12-10T18:01:14-0500
_audit_creation_method            fapswitch 2.2
_symmetry_space_group_name_H-M    P1
_symmetry_Int_Tables_number       1
_space_group_crystal_system       triclinic
_cell_length_a                    9.541008
_cell_length_b                    10.777164
_cell_length_c                    17.228666
_cell_angle_alpha                 91.495072
_cell_angle_beta                  85.765247
_cell_angle_gamma                 91.430694
_cell_volume                      1765.62799994

loop_
_atom_site_label
_atom_site_type_symbol
_atom_type_description
_atom_site_fract_x
_atom_site_fract_y
_atom_site_fract_z
_atom_type_partial_charge
C1    C     C_R   0.501710 0.737371 0.500352 0.836342
C2    C     C_R   0.498291 0.262625 0.499646 0.836060
C3    C     C_R   0.553106 0.933314 0.432584 -0.062236
C4    C     C_R   0.446904 0.066671 0.567414 -0.061484
C5    C     C_R   0.546819 0.063116 0.431428 -0.085461
C6    C     C_R   0.453182 0.936869 0.568572 -0.084956
C7    C     C_R   0.493984 0.128479 0.498853 -0.159904
C8    C     C_R   0.506024 0.871510 0.501146 -0.159954
C9    C     C_R   0.923948 0.584995 0.544626 0.091224
C10   C     C_R   0.076051 0.414990 0.455386 0.091122
C11   C     C_R   0.072279 0.584354 0.544258 -0.007944
C12   C     C_R   0.927718 0.415626 0.455758 -0.009917
C13   C     C_R   0.480795 0.494416 0.650262 0.851375
C14   C     C_R   0.519216 0.505473 0.349734 0.851033
C15   C     C_R   0.469759 0.477656 0.735256 -0.148754
C16   C     C_R   0.530449 0.522005 0.264725 -0.150309
C17   C     C_R   0.592867 0.448899 0.770488 -0.166205
C18   C     C_R   0.407673 0.551200 0.229322 -0.168565
C19   C     C_R   0.592604 0.433828 0.850700 -0.014399
C20   C     C_R   0.408426 0.566207 0.148994 -0.011763
C21   C     C_R   0.465766 0.451518 0.896957 0.060750
C22   C     C_R   0.535324 0.548069 0.102990 0.053867
C23   C     C_R   0.341761 0.475045 0.862321 -0.166340
C24   C     C_R   0.658994 0.524089 0.137809 -0.152009
C25   C     C_R   0.341397 0.487277 0.782018 -0.032787
C26   C     C_R   0.658902 0.511844 0.218117 -0.040305
C27   C     C_2   0.460027 0.458452 0.981938 -0.102928
C28   C     C_2   0.541380 0.540866 0.018026 -0.086057
Cu1   Cu    Cu3+1 0.359340 0.499980 0.500000 1.054281
Cu2   Cu    Cu3+1 0.640660 0.500020 0.500000 1.053478
H1    H     H_    0.690179 0.435984 0.734979 0.225920
H2    H     H_    0.310272 0.564480 0.264707 0.220310
H3    H     H_    0.621227 0.595641 0.985086 0.159947
H4    H     H_    0.380086 0.403800 0.014894 0.159956
H5    H     H_    0.244947 0.487414 0.898632 0.164652
H6    H     H_    0.755870 0.511277 0.101629 0.181776
H7    H     H_    0.127020 0.651461 0.579668 0.148192
H8    H     H_    0.872974 0.348496 0.420366 0.147552
N1    N     N_R   0.147930 0.499970 0.499980 -0.206036
N2    N     N_R   0.852070 0.500030 0.500020 -0.206037
O1    O     O_R   0.381260 0.680340 0.500000 -0.603503
O2    O     O_R   0.618740 0.319660 0.500000 -0.603441
O3    O     O_R   0.618830 0.680370 0.500010 -0.525633
O4    O     O_R   0.381170 0.319630 0.499990 -0.525518
O5    O     O_R   0.367440 0.500000 0.613600 -0.558679
O6    O     O_R   0.632560 0.500000 0.386400 -0.561416
O7    O     O_R   0.605010 0.500030 0.613600 -0.564212
O8    O     O_R   0.394990 0.499970 0.386400 -0.563418
C29   C     C_2   0.794560 0.484609 0.249298 0.892633
O9    O     O_2   0.853582 0.562895 0.288794 -0.509676
O10   O     O_R   0.857920 0.371265 0.230277 -0.718716
H9    H     H_    0.951194 0.363668 0.254163 0.362236
C30   C     C_2   0.205330 0.513757 0.751040 0.868357
O11   O     O_2   0.147525 0.435793 0.710756 -0.512586
O12   O     O_R   0.140030 0.625811 0.771300 -0.726163
H10   H     H_    0.046579 0.632886 0.747526 0.365662
C31   C     C_2   0.276679 0.603280 0.115397 0.852781
O13   O     O_2   0.162433 0.578811 0.149228 -0.558844
O14   O     O_R   0.282696 0.668775 0.046158 -0.737991
H11   H     H_    0.186103 0.688239 0.029470 0.352538
C32   C     C_2   0.725417 0.397579 0.883424 0.851885
O15   O     O_2   0.722265 0.341109 0.944209 -0.562639
O16   O     O_R   0.854832 0.425489 0.843361 -0.731052
H12   H     H_    0.937546 0.395789 0.871007 0.348748
C33   C     C_2   0.599658 0.861954 0.360532 0.860614
O17   O     O_2   0.698133 0.791591 0.360654 -0.511840
O18   O     O_R   0.531552 0.877019 0.292397 -0.735446
H13   H     H_    0.572311 0.823546 0.247376 0.347483
C34   C     C_2   0.400317 0.138024 0.639456 0.859522
O19   O     O_2   0.301764 0.208299 0.639331 -0.512483
O20   O     O_R   0.468459 0.123040 0.707588 -0.736358
H14   H     H_    0.427655 0.176496 0.752605 0.346050
C35   C     C_2   0.595669 0.130808 0.359886 0.883717
O21   O     O_2   0.711897 0.111307 0.327713 -0.533176
O22   O     O_R   0.507654 0.215509 0.329013 -0.748295
H15   H     H_    0.550783 0.252423 0.279007 0.345473
C36   C     C_2   0.404274 0.869168 0.640106 0.883100
O23   O     O_2   0.288062 0.888730 0.672283 -0.535166
O24   O     O_R   0.492197 0.784365 0.670956 -0.748366
H16   H     H_    0.448996 0.747394 0.720930 0.345046
C37   C     C_2   0.851265 0.681084 0.593107 0.898826
O25   O     O_2   0.805750 0.658199 0.659458 -0.569350
O26   O     O_R   0.844891 0.801173 0.565064 -0.710993
H17   H     H_    0.794388 0.859999 0.603939 0.359988
C38   C     C_2   0.148734 0.318875 0.406927 0.898236
O27   O     O_2   0.194363 0.341753 0.340595 -0.571049
O28   O     O_R   0.155000 0.198776 0.434972 -0.710587
H18   H     H_    0.205522 0.139935 0.396115 0.360217

loop_
_geom_bond_atom_site_label_1
_geom_bond_atom_site_label_2
_ccdc_geom_bond_type
O12   H10   S    
C10   C38   S    
C1    C8    S    
C35   O21   D    
C2    C7    S    
O28   H18   S    
C37   O25   D    
C14   O6    A    
C30   O11   D    
C24   H6    S    
C19   C21   A    
C25   C30   S    
C34   O19   D    
C19   C32   S    
C31   O14   S    
C34   O20   S    
C11   H7    S    
C1    O3    A    
C2    O4    A    
C29   O10   S    
C18   C20   A    
C36   O23   D    
C36   O24   S    
C21   C27   S    
O14   H11   S    
C22   C28   S    
C5    C35   S    
C35   O22   S    
C3    C33   S    
C4    C7    A    
C4    C34   S    
C37   O26   S    
C30   O12   S    
C27   H4    S    
C16   C26   A    
C38   O28   S    
O18   H13   S    
Cu2   O7    S    
O24   H16   S    
C4    C6    A    
C3    C8    A    
C26   C29   S    
C5    C7    A    
C6    C36   S    
C6    C8    A    
Cu1   O8    S    
C33   O18   S    
C38   O27   D    
C9    N2    A    
O10   H9    S    
Cu1   O5    S    
C10   N1    A    
C12   N2    A    
O22   H15   S    
Cu1   Cu2   S    
O26   H17   S    
Cu1   N1    S    
C32   O16   S    
Cu2   N2    S    
C11   N1    A    
C9    C11   A    
C10   C12   A    
C1    O1    A    
C20   C22   A    
C28   H3    S    
C29   O9    D    
C23   H5    S    
C13   C15   S    
Cu1   O4    S    
C17   H1    S    
C14   C16   S    
Cu2   O3    S    
C18   H2    S    
C13   O7    A    
C15   C17   A    
Cu1   O1    S    
Cu2   O6    S    
C24   C26   A    
C3    C5    A    
C14   O8    A    
C21   C23   A    
O20   H14   S    
C13   O5    A    
C31   O13   D    
C2    O2    A    
C17   C19   A    
C22   C24   A    
C23   C25   A    
C12   H8    S    
C32   O15   D    
C15   C25   A    
O16   H12   S    
C16   C18   A    
C33   O17   D    
C27   C28   D    
Cu2   O2    S    
C20   C31   S    
C9    C37   S    
