data_mof_unit_12886.cif
_audit_creation_date              2013-03-05T15:41:55-0500
_audit_creation_method            fapswitch 2.2
_symmetry_space_group_name_H-M    P1
_symmetry_Int_Tables_number       1
_space_group_crystal_system       triclinic
_cell_length_a                    25.034144
_cell_length_b                    16.709248
_cell_length_c                    15.731825
_cell_angle_alpha                 89.668931
_cell_angle_beta                  49.043
_cell_angle_gamma                 89.979809
_cell_volume                      4969.58351092

loop_
_atom_site_label
_atom_site_type_symbol
_atom_site_description
_atom_site_fract_x
_atom_site_fract_y
_atom_site_fract_z
_atom_type_partial_charge
C1    C     C_R   0.353527 0.149053 0.751424 -0.001741
C2    C     C_R   0.666747 0.887950 0.196438 -0.147708
C3    C     C_R   0.646079 0.149852 0.248926 0.001110
C4    C     C_R   0.332815 0.888137 0.804088 -0.158775
C5    C     C_R   0.853526 0.649052 0.751427 -0.001732
C6    C     C_R   0.166748 0.387955 0.196434 -0.147702
C7    C     C_R   0.146081 0.649850 0.248923 0.001092
C8    C     C_R   0.832814 0.388140 0.804089 -0.158724
H1    H     H_    0.308892 0.167208 0.760119 0.124808
H2    H     H_    0.720418 0.894159 0.161617 0.183086
H3    H     H_    0.690858 0.168200 0.239830 0.130887
H4    H     H_    0.279205 0.894947 0.838429 0.164647
H5    H     H_    0.808892 0.667208 0.760120 0.124812
H6    H     H_    0.220419 0.394167 0.161611 0.183091
H7    H     H_    0.190860 0.668196 0.239826 0.130900
H8    H     H_    0.779204 0.394954 0.838430 0.164563
N1    N     N_R   0.389620 0.081040 0.705440 -0.059672
N2    N     N_R   0.610380 0.918960 0.294560 -0.077545
N3    N     N_R   0.610380 0.081040 0.294560 -0.058607
N4    N     N_R   0.389620 0.918960 0.705440 -0.079397
N5    N     N_R   0.889620 0.581040 0.705440 -0.059669
N6    N     N_R   0.110380 0.418960 0.294560 -0.077554
N7    N     N_R   0.110380 0.581040 0.294560 -0.058616
N8    N     N_R   0.889620 0.418960 0.705440 -0.079399
C9    C     C_R   0.617144 0.105233 0.588888 0.054908
C10   C     C_R   0.416107 0.847267 0.410318 -0.024726
C11   C     C_R   0.383044 0.099882 0.409043 0.041288
C12   C     C_R   0.584954 0.849596 0.593445 0.020082
C13   C     C_R   0.117134 0.605221 0.588907 0.054767
C14   C     C_R   0.916116 0.347246 0.410344 -0.024038
C15   C     C_R   0.883045 0.599888 0.409043 0.041463
C16   C     C_R   0.084954 0.349593 0.593442 0.020038
H9    H     H_    0.598181 0.102260 0.673214 0.189891
H10   H     H_    0.445491 0.828155 0.324842 0.159009
H11   H     H_    0.403512 0.092449 0.324679 0.207758
H12   H     H_    0.555438 0.832350 0.679615 0.172081
H13   H     H_    0.098162 0.602237 0.673238 0.189865
H14   H     H_    0.945510 0.328115 0.324872 0.159026
H15   H     H_    0.903512 0.592456 0.324680 0.207806
H16   H     H_    0.055433 0.332342 0.679611 0.172091
N9    N     N_R   0.582320 0.079840 0.556630 -0.079253
N10   N     N_R   0.417680 0.920160 0.443370 -0.049438
N11   N     N_R   0.417680 0.079840 0.443370 -0.082335
N12   N     N_R   0.582320 0.920160 0.556630 -0.057069
N13   N     N_R   0.082320 0.579840 0.556630 -0.079250
N14   N     N_R   0.917680 0.420160 0.443370 -0.049425
N15   N     N_R   0.917680 0.579840 0.443370 -0.082364
N16   N     N_R   0.082320 0.420160 0.556630 -0.057075
C17   C     C_R   0.691851 0.102068 0.403086 -0.079167
C18   C     C_R   0.336111 0.852190 0.596231 -0.056290
C19   C     C_R   0.307815 0.097888 0.594068 -0.101278
C20   C     C_R   0.663077 0.851399 0.407243 -0.045297
C21   C     C_R   0.191848 0.602063 0.403105 -0.079094
C22   C     C_R   0.836103 0.352198 0.596250 -0.056447
C23   C     C_R   0.807816 0.597893 0.594069 -0.101357
C24   C     C_R   0.163075 0.351396 0.407241 -0.045272
N17   N     N_R   0.627920 0.078930 0.443400 -0.058820
N18   N     N_R   0.372080 0.921070 0.556600 -0.050486
N19   N     N_R   0.372080 0.078930 0.556600 -0.057942
N20   N     N_R   0.627920 0.921070 0.443400 -0.046760
N21   N     N_R   0.127920 0.578930 0.443400 -0.058818
N22   N     N_R   0.872080 0.421070 0.556600 -0.050575
N23   N     N_R   0.872080 0.578930 0.556600 -0.057950
N24   N     N_R   0.127920 0.421070 0.443400 -0.046756
C25   C     C_R   0.561634 0.145201 0.239756 0.314077
C26   C     C_R   0.420233 0.891182 0.805373 0.293683
C27   C     C_R   0.437380 0.144185 0.762006 0.321981
C28   C     C_R   0.579193 0.891313 0.195499 0.291532
C29   C     C_R   0.061637 0.645199 0.239750 0.314005
C30   C     C_R   0.920232 0.391182 0.805374 0.293672
C31   C     C_R   0.937375 0.644181 0.762019 0.321940
C32   C     C_R   0.079192 0.391314 0.195499 0.291259
N25   N     N_R   0.555090 0.077730 0.294590 -0.104554
N26   N     N_R   0.444910 0.922270 0.705410 -0.114693
N27   N     N_R   0.444910 0.077730 0.705410 -0.104577
N28   N     N_R   0.555090 0.922270 0.294590 -0.112038
N29   N     N_R   0.055090 0.577730 0.294590 -0.104564
N30   N     N_R   0.944910 0.422270 0.705410 -0.114686
N31   N     N_R   0.944910 0.577730 0.705410 -0.104573
N32   N     N_R   0.055090 0.422270 0.294590 -0.112073
C33   C     C_R   0.382610 0.191328 0.787021 0.010086
C34   C     C_R   0.648958 0.868178 0.133256 0.018309
C35   C     C_R   0.616203 0.192768 0.214677 0.002714
C36   C     C_R   0.350246 0.868292 0.867858 0.029319
C37   C     C_R   0.882605 0.691323 0.787032 0.010086
C38   C     C_R   0.148959 0.368185 0.133250 0.018374
C39   C     C_R   0.116206 0.692765 0.214671 0.002726
C40   C     C_R   0.850245 0.368294 0.867860 0.029343
C41   C     C_R   0.685422 0.121335 0.493630 0.062239
C42   C     C_R   0.364464 0.803240 0.505055 0.041880
C43   C     C_R   0.313829 0.111182 0.501866 0.071605
C44   C     C_R   0.635688 0.805196 0.501367 0.018968
C45   C     C_R   0.185412 0.621315 0.493665 0.062264
C46   C     C_R   0.864458 0.303228 0.505097 0.041596
C47   C     C_R   0.813831 0.611193 0.501867 0.071567
C48   C     C_R   0.135686 0.305191 0.501363 0.018973
Ni1   Ni    Ni4+2 0.382970 0.000000 0.629840 0.303191
Ni2   Ni    Ni4+2 0.617030 0.000000 0.370160 0.308847
Ni3   Ni    Ni4+2 0.882970 0.500000 0.629840 0.303140
Ni4   Ni    Ni4+2 0.117030 0.500000 0.370160 0.308845
Ni5   Ni    Ni4+2 0.514540 0.000000 0.629840 0.330533
Ni6   Ni    Ni4+2 0.485460 0.000000 0.370160 0.329619
Ni7   Ni    Ni4+2 0.014540 0.500000 0.629840 0.330499
Ni8   Ni    Ni4+2 0.985460 0.500000 0.370160 0.329739
C49   C     C_3   0.278907 0.191673 0.399241 0.225093
C50   C     C_3   0.656219 0.699073 0.607828 0.262638
C51   C     C_3   0.716523 0.229582 0.570091 0.278488
C52   C     C_3   0.346615 0.673726 0.421809 0.309439
C53   C     C_3   0.778916 0.691702 0.399248 0.225066
C54   C     C_3   0.156217 0.199066 0.607826 0.262631
C55   C     C_3   0.216491 0.729481 0.570284 0.278629
C56   C     C_3   0.846595 0.173607 0.422005 0.309756
C57   C     C_3   0.746609 0.767220 0.469625 0.304579
C58   C     C_3   0.189334 0.122667 0.538405 0.322280
C59   C     C_3   0.280023 0.776196 0.472296 0.316157
C60   C     C_3   0.781791 0.125561 0.520604 0.314377
C61   C     C_3   0.246611 0.267198 0.469603 0.304537
C62   C     C_3   0.689345 0.622681 0.538393 0.322317
C63   C     C_3   0.780159 0.276161 0.472079 0.315967
C64   C     C_3   0.281916 0.625547 0.520377 0.314428
C65   C     C_3   0.674777 0.743564 0.505773 -0.181681
C66   C     C_3   0.261208 0.147144 0.500965 -0.173505
C67   C     C_3   0.323543 0.743526 0.502005 -0.187730
C68   C     C_3   0.738557 0.159135 0.491243 -0.210719
C69   C     C_3   0.174773 0.243550 0.505767 -0.181690
C70   C     C_3   0.761214 0.647163 0.500968 -0.173529
C71   C     C_3   0.823530 0.243497 0.502071 -0.187400
C72   C     C_3   0.238534 0.659126 0.491299 -0.210512
C73   C     C_3   0.207169 0.166330 0.434827 -0.355362
C74   C     C_3   0.727411 0.724334 0.572850 -0.391834
C75   C     C_3   0.758318 0.195380 0.602446 -0.395319
C76   C     C_3   0.303732 0.707208 0.390407 -0.408968
C77   C     C_3   0.707183 0.666352 0.434820 -0.355405
C78   C     C_3   0.227414 0.224322 0.572832 -0.391848
C79   C     C_3   0.258440 0.695271 0.602352 -0.395331
C80   C     C_3   0.803865 0.207081 0.390315 -0.408951
H17   H     H_    0.198537 0.142704 0.378825 0.209255
H18   H     H_    0.735086 0.749601 0.629386 0.201529
H19   H     H_    0.738507 0.184025 0.688328 0.205559
H20   H     H_    0.322709 0.715433 0.304394 0.209966
H21   H     H_    0.698557 0.642731 0.378808 0.209231
H22   H     H_    0.235095 0.249595 0.629358 0.201527
H23   H     H_    0.238754 0.683830 0.688143 0.205538
H24   H     H_    0.822944 0.215229 0.304229 0.210016
C81   C     C_2   0.647637 0.265899 0.145226 -0.025983
C82   C     C_2   0.299088 0.841301 0.985847 -0.042667
C83   C     C_2   0.349955 0.263086 0.857830 -0.021905
C84   C     C_2   0.699663 0.840498 0.016061 -0.043581
C85   C     C_2   0.147642 0.765895 0.145217 -0.025910
C86   C     C_2   0.799086 0.341302 0.985849 -0.042684
C87   C     C_2   0.849944 0.763077 0.857849 -0.021906
C88   C     C_2   0.199663 0.340506 0.016054 -0.043615
C89   C     C_2   0.678963 0.323143 0.160346 -0.217824
C90   C     C_2   0.233826 0.873146 0.062755 -0.199317
C91   C     C_2   0.319614 0.321225 0.841649 -0.210831
C92   C     C_2   0.765502 0.871527 0.938233 -0.199732
C93   C     C_2   0.178964 0.823141 0.160342 -0.218024
C94   C     C_2   0.733824 0.373147 0.062757 -0.199329
C95   C     C_2   0.819615 0.821224 0.841656 -0.210878
C96   C     C_2   0.265505 0.371529 0.938228 -0.199728
H25   H     H_    0.311298 0.785183 0.005093 0.159917
H26   H     H_    0.655514 0.266396 0.068541 0.160355
H27   H     H_    0.686444 0.784614 0.998425 0.160560
H28   H     H_    0.340993 0.262163 0.935446 0.165239
H29   H     H_    0.811296 0.285185 0.005094 0.159911
H30   H     H_    0.155523 0.766390 0.068529 0.160378
H31   H     H_    0.186441 0.284626 0.998416 0.160540
H32   H     H_    0.840967 0.762144 0.935478 0.165250
C97   C     C_2   0.758525 0.079764 0.291055 0.603879
H33   H     H_    0.808581 0.085086 0.271829 0.077786
O1    O     O_2   0.758173 0.051963 0.219915 -0.543289
C98   C     C_2   0.265342 0.843247 0.707499 0.614556
H34   H     H_    0.251412 0.789374 0.756781 -0.019804
O2    O     O_2   0.221785 0.896395 0.745490 -0.460879
C99   C     C_2   0.240891 0.085361 0.710320 0.628119
H35   H     H_    0.191316 0.104614 0.734371 0.082329
O3    O     O_2   0.240187 0.052246 0.780353 -0.545060
C100  C     C_2   0.732458 0.837458 0.295460 0.550703
H36   H     H_    0.747401 0.777510 0.261233 0.022152
O4    O     O_2   0.775175 0.891928 0.243385 -0.483526
C101  C     C_2   0.258530 0.579789 0.291066 0.603887
H37   H     H_    0.308587 0.585157 0.271832 0.077785
O5    O     O_2   0.258186 0.551970 0.219926 -0.543248
C102  C     C_2   0.765328 0.343283 0.707509 0.614638
H38   H     H_    0.751400 0.289442 0.756849 -0.019918
O6    O     O_2   0.721766 0.396416 0.745425 -0.460889
C103  C     C_2   0.740891 0.585365 0.710321 0.628060
H39   H     H_    0.691317 0.604621 0.734373 0.082354
O7    O     O_2   0.740187 0.552244 0.780351 -0.545084
C104  C     C_2   0.232453 0.337452 0.295456 0.550732
H40   H     H_    0.247393 0.277503 0.261232 0.022129
O8    O     O_2   0.275171 0.391920 0.243376 -0.483486
N33   N     N_R   0.525844 0.160044 0.198773 0.218788
O9    O     O_R   0.508799 0.232939 0.195963 -0.298774
O10   O     O_R   0.525994 0.105483 0.140109 -0.281637
N34   N     N_R   0.453176 0.903982 0.852111 0.251885
O11   O     O_R   0.427555 0.870679 0.947216 -0.293540
O12   O     O_R   0.509416 0.948588 0.799592 -0.336103
N35   N     N_R   0.471128 0.157562 0.806706 0.221964
O13   O     O_R   0.480639 0.230465 0.823017 -0.286577
O14   O     O_R   0.474625 0.099484 0.858043 -0.284690
N36   N     N_R   0.545887 0.904335 0.149331 0.247496
O15   O     O_R   0.571068 0.871631 0.054672 -0.301980
O16   O     O_R   0.490124 0.949244 0.201503 -0.336424
N37   N     N_R   0.025854 0.660033 0.198752 0.218791
O17   O     O_R   0.008826 0.732927 0.195903 -0.298751
O18   O     O_R   0.025993 0.605457 0.140116 -0.281623
N38   N     N_R   0.953177 0.403975 0.852111 0.251900
O19   O     O_R   0.927550 0.370678 0.947221 -0.293432
O20   O     O_R   0.009426 0.448568 0.799584 -0.336152
N39   N     N_R   0.971101 0.657540 0.806758 0.222021
O21   O     O_R   0.980571 0.730436 0.823156 -0.286465
O22   O     O_R   0.974610 0.599440 0.858057 -0.284652
N40   N     N_R   0.045879 0.404327 0.149341 0.247540
O23   O     O_R   0.071065 0.371633 0.054675 -0.301966
O24   O     O_R   0.990102 0.449215 0.201533 -0.335910
N41   N     N_R   0.781440 0.845373 0.434991 0.279176
O25   O     O_R   0.845613 0.850446 0.397330 -0.243925
O26   O     O_R   0.744348 0.910341 0.466542 -0.348766
N42   N     N_R   0.156826 0.043648 0.577943 0.287784
O27   O     O_R   0.144773 0.002845 0.521842 -0.278040
O28   O     O_R   0.135551 0.015743 0.673131 -0.277479
N43   N     N_R   0.277404 0.859525 0.446994 0.268957
O29   O     O_R   0.294892 0.878782 0.351278 -0.316973
O30   O     O_R   0.257151 0.914918 0.520222 -0.327587
N44   N     N_R   0.780996 0.042409 0.549403 0.269392
O31   O     O_R   0.839552 0.002228 0.493535 -0.263519
O32   O     O_R   0.722410 0.010472 0.638042 -0.319296
N45   N     N_R   0.281457 0.345341 0.434943 0.279193
O33   O     O_R   0.345630 0.350401 0.397283 -0.243866
O34   O     O_R   0.244381 0.410319 0.466455 -0.348746
N46   N     N_R   0.656840 0.543660 0.577919 0.287750
O35   O     O_R   0.644785 0.502866 0.521815 -0.278447
O36   O     O_R   0.635574 0.515742 0.673096 -0.277454
N47   N     N_R   0.777739 0.359486 0.446534 0.268670
O37   O     O_R   0.796725 0.378889 0.349857 -0.316798
O38   O     O_R   0.757096 0.414870 0.519953 -0.327192
N48   N     N_R   0.281264 0.542371 0.548946 0.269406
O39   O     O_R   0.339877 0.502278 0.492846 -0.263379
O40   O     O_R   0.222764 0.510334 0.637633 -0.319316
N49   N     N_R   0.343693 0.186921 0.281538 0.246806
O41   O     O_R   0.380041 0.251192 0.226376 -0.247076
O42   O     O_R   0.357930 0.121219 0.226302 -0.288459
N50   N     N_R   0.588293 0.700804 0.722256 0.251933
O43   O     O_R   0.531743 0.674461 0.743339 -0.347631
O44   O     O_R   0.583954 0.728096 0.803835 -0.309359
N51   N     N_R   0.646360 0.264702 0.649060 0.269839
O45   O     O_R   0.617214 0.296349 0.612426 -0.279251
O46   O     O_R   0.615557 0.270987 0.754730 -0.252617
N52   N     N_R   0.418786 0.644036 0.342128 0.264124
O47   O     O_R   0.452071 0.624227 0.376680 -0.334319
O48   O     O_R   0.451500 0.641292 0.235387 -0.319631
N53   N     N_R   0.843706 0.686964 0.281546 0.246802
O49   O     O_R   0.880050 0.751242 0.226403 -0.247057
O50   O     O_R   0.857948 0.621271 0.226291 -0.288312
N54   N     N_R   0.088295 0.200807 0.722258 0.251929
O51   O     O_R   0.031740 0.174465 0.743356 -0.347636
O52   O     O_R   0.083965 0.228107 0.803825 -0.309401
N55   N     N_R   0.146295 0.764486 0.649471 0.269740
O53   O     O_R   0.117056 0.796242 0.613050 -0.278851
O54   O     O_R   0.115544 0.770553 0.755140 -0.252909
N56   N     N_R   0.918735 0.143796 0.342544 0.264155
O55   O     O_R   0.951892 0.124003 0.377322 -0.334281
O56   O     O_R   0.951550 0.140924 0.235771 -0.319619
C105  C     C_2   0.213693 0.954321 0.053650 0.646503
H41   H     H_    0.158141 0.969834 0.106959 0.062564
O57   O     O_2   0.258203 0.005297 0.990780 -0.557973
C106  C     C_2   0.664729 0.335497 0.267075 0.622214
H42   H     H_    0.701127 0.371390 0.266430 0.076821
O58   O     O_2   0.611496 0.308811 0.356619 -0.517358
C107  C     C_2   0.786937 0.952518 0.944932 0.649248
H43   H     H_    0.842735 0.967436 0.891236 0.061111
O59   O     O_2   0.743260 0.003996 0.006176 -0.557184
C108  C     C_2   0.335209 0.335488 0.733937 0.607428
H44   H     H_    0.299727 0.372386 0.733417 0.068392
O60   O     O_2   0.388569 0.309317 0.644909 -0.522771
C109  C     C_2   0.713690 0.454322 0.053652 0.646469
H45   H     H_    0.658138 0.469835 0.106962 0.062561
O61   O     O_2   0.758200 0.505299 0.990782 -0.557969
C110  C     C_2   0.164725 0.835498 0.267074 0.622352
H46   H     H_    0.201120 0.871395 0.266434 0.077275
O62   O     O_2   0.111493 0.808809 0.356617 -0.517333
C111  C     C_2   0.286946 0.452515 0.944929 0.649204
H47   H     H_    0.342745 0.467426 0.891237 0.061127
O63   O     O_2   0.243273 0.503997 0.006171 -0.557192
C112  C     C_2   0.835228 0.835497 0.733931 0.607499
H48   H     H_    0.799756 0.872407 0.733397 0.068421
O64   O     O_2   0.888589 0.809322 0.644910 -0.522762

loop_
_geom_bond_atom_site_label_1
_geom_bond_atom_site_label_2
_geom_bond_distance
_ccdc_geom_bond_type
N1    N27   1.384911 A    
C16   N16   1.331228 A    
C32   N40   1.435974 S    
C88   C96   1.353588 D    
C104  H40   1.084037 S    
C8    N8    1.339396 A    
C30   N30   1.357102 A    
N8    Ni3   1.875272 S    
N47   O38   1.298854 A    
C42   C67   1.453634 S    
C52   C64   1.539430 S    
C29   N29   1.358529 A    
N43   O29   1.301102 A    
C112  O64   1.221126 D    
N1    Ni1   1.885255 S    
C38   C88   1.471643 S    
C90   C105  1.485337 S    
C30   C40   1.385838 A    
N10   N18   1.345701 A    
C31   N31   1.361097 A    
C100  H36   1.084035 S    
C27   N27   1.361085 A    
C17   N17   1.334189 A    
C99   O3    1.219775 D    
C92   C107  1.485512 S    
C101  H37   1.082885 S    
N50   O43   1.300430 A    
C58   N42   1.456077 S    
C84   C92   1.353585 D    
N36   O16   1.299928 A    
N14   N22   1.345701 A    
N43   O30   1.298913 A    
C51   N51   1.455988 S    
C26   N34   1.436462 S    
C110  O62   1.221164 D    
C108  H44   1.085502 S    
N20   Ni2   1.880229 S    
C83   H28   1.087274 S    
C63   C71   1.538697 S    
N15   N23   1.345478 A    
C112  H48   1.085502 S    
N5    Ni3   1.885255 S    
C45   C72   1.450687 S    
N40   O24   1.299928 A    
N16   N24   1.345479 A    
C2    N2    1.340000 A    
C81   H26   1.087359 S    
C70   C74   1.555365 S    
N52   O48   1.300214 A    
C107  H43   1.085274 S    
C26   N26   1.357094 A    
C72   C76   1.555200 S    
C32   N32   1.355627 A    
C25   N25   1.358533 A    
C102  H38   1.082014 S    
C14   H14   1.076727 S    
C24   C48   1.383781 A    
N49   O41   1.299656 A    
C97   H33   1.082869 S    
N54   O52   1.300311 A    
C55   N55   1.455984 S    
C89   C94   1.470750 S    
C77   H21   1.110140 S    
C66   C78   1.555360 S    
C56   C71   1.531921 S    
N23   Ni3   1.880231 S    
N13   Ni7   1.845863 S    
C19   C43   1.373310 A    
C35   C81   1.471156 S    
C21   N21   1.334211 A    
C10   H10   1.076719 S    
C60   C68   1.533434 S    
N4    Ni1   1.875272 S    
N39   O21   1.300134 A    
N9    Ni5   1.845863 S    
N38   O19   1.300810 A    
N33   O10   1.299257 A    
C43   C66   1.456157 S    
C23   N23   1.339645 A    
C48   C69   1.452744 S    
C104  O8    1.219282 D    
N47   O37   1.300344 A    
C24   N24   1.343165 A    
C11   C43   1.362447 A    
C23   C103  1.474576 S    
C26   C36   1.385835 A    
C4    H4    1.075207 S    
C20   N20   1.343152 A    
C105  H41   1.085272 S    
C54   C58   1.529075 S    
C4    C36   1.369969 A    
C5    H5    1.076642 S    
C7    N7    1.336476 A    
N11   N19   1.345478 A    
C5    C37   1.371887 A    
N31   Ni7   1.854248 S    
C6    N6    1.340004 A    
C79   H23   1.107283 S    
N7    Ni4   1.875272 S    
C91   C96   1.471621 S    
N35   O13   1.300132 A    
C8    H8    1.075213 S    
C15   N15   1.329350 A    
C109  H45   1.085271 S    
C50   C62   1.529066 S    
C97   O1    1.219560 D    
C49   C61   1.521084 S    
N18   Ni1   1.889682 S    
C40   C86   1.470802 S    
C51   C68   1.532299 S    
C56   C80   1.549568 S    
C91   C108  1.486162 S    
C61   C78   1.531396 S    
N10   Ni6   1.845863 S    
C57   N41   1.460213 S    
N42   O27   1.300384 A    
C17   C97   1.477050 S    
N3    Ni2   1.875272 S    
C18   C42   1.381535 A    
C111  O63   1.221281 D    
N8    N30   1.384950 A    
C25   N33   1.426630 S    
C59   C76   1.534595 S    
N51   O46   1.300214 A    
N28   Ni6   1.854248 S    
C65   C77   1.548332 S    
C82   H25   1.087284 S    
N48   O40   1.300430 A    
C95   C112  1.486163 S    
C59   C67   1.538695 S    
C57   C74   1.531402 S    
C68   C80   1.555284 S    
C28   N36   1.435971 S    
C18   N18   1.334395 A    
N3    N25   1.384954 A    
C89   C106  1.486053 S    
C1    H1    1.076642 S    
C110  H46   1.085489 S    
C90   C93   1.470748 S    
C23   C47   1.373302 A    
N36   O15   1.300794 A    
C101  O5    1.219559 D    
C62   N46   1.456072 S    
N53   O50   1.300793 A    
C75   H19   1.107269 S    
N40   O23   1.300793 A    
C94   C109  1.485337 S    
N56   O56   1.300209 A    
C7    H7    1.077266 S    
C22   N22   1.334362 A    
C33   C83   1.472330 S    
N41   O25   1.300310 A    
C46   C71   1.453771 S    
N16   Ni7   1.854598 S    
N14   Ni8   1.845863 S    
C12   N12   1.331209 A    
N13   N21   1.345702 A    
C73   H17   1.110138 S    
C11   N11   1.329357 A    
C60   N44   1.455019 S    
N49   O42   1.300794 A    
C5    N5    1.335335 A    
C87   C95   1.354835 D    
C19   C99   1.474575 S    
C37   C87   1.472327 S    
N45   O33   1.300308 A    
C6    H6    1.072690 S    
C22   C46   1.381470 A    
C50   N50   1.456187 S    
C28   C34   1.385790 A    
C78   H22   1.111134 S    
C55   C59   1.512592 S    
C100  O4    1.219278 D    
C99   H35   1.082770 S    
C82   C90   1.353361 D    
C25   C35   1.394317 A    
C10   C42   1.376881 A    
N12   Ni5   1.854598 S    
C13   H13   1.077654 S    
N54   O51   1.300430 A    
N5    N31   1.384911 A    
N46   O36   1.300021 A    
N4    N26   1.384950 A    
C12   C44   1.364419 A    
C24   C104  1.470949 S    
C7    C39   1.373832 A    
C28   N28   1.355630 A    
N7    N29   1.384954 A    
C3    N3    1.336481 A    
C105  O57   1.221264 D    
C56   N56   1.455738 S    
C62   C77   1.555454 S    
C54   N54   1.456186 S    
N26   Ni5   1.845465 S    
C52   N52   1.455748 S    
C51   C75   1.541050 S    
N25   Ni6   1.845465 S    
C16   C48   1.364431 A    
N32   Ni8   1.854248 S    
C27   C33   1.396710 A    
N44   O32   1.300423 A    
C109  O61   1.221264 D    
C49   C73   1.548456 S    
N19   Ni1   1.880231 S    
C58   C73   1.555468 S    
C22   C102  1.468535 S    
C2    C34   1.371012 A    
N21   Ni4   1.889680 S    
N41   O26   1.299356 A    
C52   C67   1.531926 S    
C9    N9    1.334290 A    
N55   O53   1.300635 A    
C2    H2    1.072693 S    
C107  O59   1.221282 D    
C6    C38   1.371015 A    
C56   C60   1.539470 S    
C96   C111  1.485510 S    
C83   C91   1.354837 D    
C98   H34   1.081999 S    
C10   N10   1.337764 A    
N27   Ni5   1.854248 S    
N29   Ni8   1.845465 S    
C59   N43   1.459163 S    
C81   C89   1.354305 D    
C50   C74   1.539318 S    
C54   C78   1.539315 S    
N37   O17   1.300521 A    
N48   O39   1.299670 A    
C52   C76   1.549575 S    
N2    N28   1.384915 A    
N15   Ni8   1.854598 S    
C86   C94   1.353361 D    
C67   C79   1.552963 S    
N39   O22   1.298184 A    
N30   Ni7   1.845465 S    
C106  O58   1.221164 D    
C84   H27   1.087202 S    
C29   N37   1.426631 S    
N34   O12   1.299631 A    
C14   N14   1.337840 A    
C92   C95   1.471621 S    
C3    C35   1.373830 A    
C85   H30   1.087359 S    
N44   O31   1.299668 A    
N37   O18   1.299257 A    
C17   C41   1.365015 A    
N34   O11   1.300809 A    
N55   O54   1.300221 A    
C29   C39   1.394325 A    
C34   C84   1.471636 S    
N51   O45   1.300628 A    
C64   C72   1.533444 S    
N56   O55   1.300317 A    
C41   C68   1.450717 S    
C53   C57   1.521091 S    
C32   C38   1.385791 A    
C76   H20   1.109375 S    
C57   C65   1.539685 S    
C62   C70   1.536242 S    
C61   N45   1.460197 S    
C9    C41   1.370164 A    
C63   C80   1.534594 S    
C51   C63   1.512569 S    
C63   N47   1.459128 S    
N42   O28   1.300016 A    
C64   C79   1.545660 S    
C11   H11   1.072255 S    
C111  H47   1.085275 S    
C71   C75   1.552977 S    
C4    N4    1.339397 A    
N52   O47   1.300323 A    
N11   Ni6   1.854598 S    
N9    N17   1.345702 A    
C103  H39   1.082769 S    
C14   C46   1.377011 A    
N38   O20   1.299631 A    
C44   C65   1.452696 S    
C93   C110  1.486053 S    
C13   C45   1.370078 A    
C86   H29   1.087285 S    
C47   C70   1.456127 S    
C55   C79   1.541057 S    
N53   O49   1.299656 A    
C60   C75   1.545647 S    
C85   C93   1.354307 D    
N12   N20   1.345479 A    
C15   H15   1.072253 S    
C31   C37   1.396719 A    
N17   Ni2   1.889680 S    
C50   C65   1.534527 S    
C53   N53   1.459445 S    
N46   O35   1.300385 A    
C98   O2    1.218994 D    
N50   O44   1.300312 A    
C49   C66   1.538763 S    
C102  O6    1.218994 D    
C27   N35   1.427953 S    
C108  O60   1.221126 D    
C16   H16   1.071987 S    
C53   C77   1.548460 S    
C80   H24   1.109364 S    
C21   C101  1.477046 S    
C20   C100  1.470950 S    
C103  O7    1.219776 D    
N6    Ni4   1.885254 S    
C3    H3    1.077268 S    
C15   C47   1.362445 A    
C54   C69   1.534541 S    
N6    N32   1.384915 A    
N22   Ni3   1.889682 S    
C58   C66   1.536249 S    
C69   C73   1.548348 S    
C53   C70   1.538762 S    
N24   Ni4   1.880229 S    
C30   N38   1.436464 S    
C19   N19   1.339656 A    
C1    N1    1.335337 A    
C12   H12   1.071992 S    
N45   O34   1.299352 A    
N33   O9    1.300522 A    
C39   C85   1.471153 S    
C9    H9    1.077656 S    
C55   C72   1.532324 S    
N35   O14   1.298188 A    
C88   H31   1.087204 S    
C31   N39   1.427965 S    
C18   C98   1.468570 S    
C36   C82   1.470799 S    
N2    Ni2   1.885254 S    
C8    C40   1.369967 A    
C61   C69   1.539688 S    
C1    C33   1.371892 A    
C21   C45   1.365076 A    
C49   N49   1.459444 S    
C20   C44   1.383780 A    
C13   N13   1.334246 A    
C87   H32   1.087273 S    
C64   N48   1.455000 S    
C106  H42   1.085490 S    
C74   H18   1.111136 S    
