data_mof_unit_5444.cif
_audit_creation_date              2012-12-11T16:04:57-0500
_audit_creation_method            fapswitch 2.2
_symmetry_space_group_name_H-M    P1
_symmetry_Int_Tables_number       1
_space_group_crystal_system       triclinic
_cell_length_a                    10.675688
_cell_length_b                    10.639137
_cell_length_c                    16.956566
_cell_angle_alpha                 98.682219
_cell_angle_beta                  98.622297
_cell_angle_gamma                 61.525801
_cell_volume                      1666.80545773

loop_
_atom_site_label
_atom_site_type_symbol
_atom_type_description
_atom_site_fract_x
_atom_site_fract_y
_atom_site_fract_z
_atom_type_partial_charge
C1    C     C_R   0.356504 0.771374 0.397468 0.546297
C2    C     C_3   0.731782 0.365546 0.249227 -0.112465
C3    C     C_3   0.834681 0.341708 0.325513 0.058111
C4    C     C_3   0.943778 0.198178 0.288746 -0.143948
C5    C     C_3   0.013517 0.278549 0.258087 -0.146326
C6    C     C_3   0.902752 0.422842 0.296368 -0.115283
C7    C     C_3   0.800746 0.445998 0.219248 -0.115394
C8    C     C_3   0.911058 0.302240 0.181894 0.057217
C9    C     C_3   0.404165 0.697357 0.198018 -0.146427
C10   C     C_3   0.277025 0.745352 0.248089 -0.107320
C11   C     C_3   0.352161 0.802427 0.317146 0.061491
C12   C     C_R   0.371273 0.347177 0.358586 0.539897
C13   C     C_3   0.481058 0.752572 0.268777 -0.122394
C14   C     C_3   0.407800 0.902897 0.237475 -0.117261
C15   C     C_3   0.280912 0.950585 0.287905 -0.149229
C16   C     C_3   0.203863 0.895208 0.218367 -0.109322
C17   C     C_3   0.331013 0.846711 0.168570 0.060339
C18   C     C_3   0.459677 0.270355 0.776893 -0.129568
C19   C     C_3   0.389901 0.410724 0.735047 -0.076564
C20   C     C_3   0.337344 0.334226 0.663289 0.035029
C21   C     C_3   0.407574 0.194719 0.704428 -0.123586
C22   C     C_3   0.265012 0.246209 0.741042 -0.133569
C23   C     C_R   0.778582 0.376109 0.402626 0.543845
C24   C     C_3   0.194452 0.386512 0.698374 -0.132533
C25   C     C_3   0.249077 0.458087 0.770943 0.098362
C26   C     C_3   0.318161 0.321692 0.813054 0.082460
C27   C     C_1   0.817329 0.341753 0.709612 -0.046016
C28   C     C_1   0.843967 0.314848 0.778050 -0.049164
C29   C     C_1   0.338144 0.812120 0.709754 -0.052406
C30   C     C_1   0.313206 0.839442 0.778468 -0.041939
C31   C     C_R   0.956785 0.285246 0.102692 0.558952
C32   C     C_R   0.319318 0.299972 0.120116 0.537618
C33   C     C_R   0.296145 0.888796 0.087754 0.544961
C34   C     C_R   0.356663 0.771240 0.627255 0.543818
C35   C     C_R   0.885083 0.299384 0.860819 0.552955
C36   C     C_R   0.308162 0.294368 0.892020 0.558195
C37   C     C_R   0.279963 0.884902 0.858956 0.561833
C38   C     C_R   0.367129 0.345591 0.585219 0.540047
C39   C     C_R   0.773909 0.379579 0.629674 0.541736
C40   C     C_1   0.345085 0.337287 0.274841 -0.064719
C41   C     C_1   0.332722 0.327478 0.203681 -0.062526
C42   C     C_3   0.842279 0.221295 0.210784 -0.108782
Cr1   Cr    Cr6+3 0.608340 0.611040 0.520430 1.019314
Cr2   Cr    Cr6+3 0.287650 0.601120 0.489350 1.016757
Cr3   Cr    Cr6+3 0.604040 0.287870 0.490280 1.025448
Cr4   Cr    Cr6+3 0.054020 0.052700 0.970850 1.027072
Cr5   Cr    Cr6+3 0.059230 0.375120 0.993390 1.025085
Cr6   Cr    Cr6+3 0.374950 0.061200 0.992340 1.021669
H1    H     H_    0.615547 0.400737 0.248106 0.112729
H2    H     H_    0.461942 0.967120 0.230870 0.137084
H3    H     H_    0.239044 0.048142 0.330457 0.105263
H4    H     H_    0.089440 0.949793 0.195672 0.134635
H5    H     H_    0.439683 0.480197 0.730991 0.117484
H6    H     H_    0.567362 0.224453 0.810236 0.128969
H7    H     H_    0.471334 0.085564 0.675096 0.136314
H8    H     H_    0.214019 0.178037 0.745594 0.114569
H9    H     H_    0.086801 0.433773 0.665094 0.126726
H10   H     H_    0.817545 0.138977 0.173990 0.129021
H11   H     H_    0.995044 0.100362 0.321400 0.117061
H12   H     H_    0.128752 0.245800 0.258060 0.102280
H13   H     H_    0.927697 0.505133 0.333055 0.129097
H14   H     H_    0.742968 0.546432 0.188783 0.130282
H15   H     H_    0.222256 0.681188 0.253678 0.135431
H16   H     H_    0.453885 0.595459 0.159174 0.109681
H17   H     H_    0.593839 0.696862 0.294280 0.132052
O1    O     O_R   0.751220 0.499230 0.435170 -0.528256
O2    O     O_R   0.297880 0.469080 0.560050 -0.503038
O3    O     O_R   0.489720 0.254590 0.564810 -0.515872
O4    O     O_R   0.725220 0.304230 0.585080 -0.496467
O5    O     O_3   0.500010 0.500010 0.500020 -0.257737
O6    O     O_R   0.171830 0.913880 0.057510 -0.525715
O7    O     O_R   0.940690 0.186050 0.054730 -0.505141
O8    O     O_R   0.920470 0.405720 0.075010 -0.515571
O9    O     O_R   0.196690 0.370460 0.084120 -0.511629
O10   O     O_R   0.412990 0.180750 0.091610 -0.513108
O11   O     O_R   0.366620 0.943130 0.065760 -0.506441
O12   O     O_R   0.477220 0.727600 0.436870 -0.505004
O13   O     O_R   0.160510 0.906330 0.879210 -0.495176
O14   O     O_R   0.930190 0.179050 0.889450 -0.494057
O15   O     O_R   0.909140 0.398170 0.896710 -0.506088
O16   O     O_R   0.186190 0.363460 0.918830 -0.497426
O17   O     O_R   0.401670 0.173200 0.913310 -0.518742
O18   O     O_R   0.356120 0.936130 0.900470 -0.497204
O19   O     O_3   0.162740 0.163010 0.985530 -0.281258
O20   O     O_R   0.258650 0.745120 0.411470 -0.523412
O21   O     O_R   0.297070 0.467240 0.395960 -0.504962
O22   O     O_R   0.488830 0.252610 0.387790 -0.510971
O23   O     O_R   0.724400 0.302390 0.420980 -0.500515
O24   O     O_R   0.752100 0.501210 0.612190 -0.512793
O25   O     O_R   0.478040 0.729440 0.600970 -0.496677
O26   O     O_R   0.259530 0.747110 0.588490 -0.510414
N1    N     N_3   0.165371 0.600949 0.809559 -0.602240
H18   H     H_    0.132052 0.673286 0.766155 0.241200
H19   H     H_    0.073046 0.604422 0.825765 0.244265

loop_
_geom_bond_atom_site_label_1
_geom_bond_atom_site_label_2
_ccdc_geom_bond_type
C18   C21   S    
C1    O12   A    
Cr6   O11   S    
C3    C23   S    
C19   C20   S    
C1    C11   S    
C3    C6    S    
C42   H10   S    
C32   O10   A    
C7    C8    S    
C13   H17   S    
Cr1   O24   S    
C6    H13   S    
Cr3   O22   S    
C8    C42   S    
C32   O9    A    
C5    C6    S    
C31   O8    A    
C15   C16   S    
C9    H16   S    
C35   O15   A    
C18   C19   S    
C9    C13   S    
C34   O26   A    
C11   C15   S    
C10   H15   S    
C2    C7    S    
C28   C35   S    
C36   O17   A    
C24   H9    S    
C18   C26   S    
C32   C41   S    
Cr2   O5    S    
C15   H3    S    
C9    C10   S    
Cr4   O7    S    
C5    H12   S    
C19   H5    S    
C21   C22   S    
Cr6   O10   S    
C17   C33   S    
Cr5   O15   S    
Cr2   O21   S    
C1    O20   A    
Cr1   O25   S    
C14   H2    S    
Cr3   O4    S    
C20   C24   S    
Cr3   O23   S    
C24   C25   S    
Cr5   O8    S    
C27   C39   S    
Cr4   O13   S    
C18   H6    S    
C16   C17   S    
C22   H8    S    
C25   C26   S    
C29   C34   S    
Cr6   O19   S    
C30   C37   S    
C12   C40   S    
C34   O25   A    
C7    H14   S    
C29   C30   T    
C2    H1    S    
C20   C38   S    
C33   O11   A    
C36   O16   A    
Cr3   O3    S    
N1    H19   S    
C39   O4    A    
Cr5   O19   S    
C20   C21   S    
Cr4   O6    S    
Cr2   O26   S    
Cr4   O19   S    
C9    C17   S    
C31   O7    A    
C38   O3    A    
Cr1   O5    S    
C23   O23   A    
C22   C24   S    
C3    C4    S    
C23   O1    A    
C21   H7    S    
C26   C36   S    
C40   C41   T    
C25   N1    S    
C12   O22   A    
Cr3   O5    S    
C8    C31   S    
C16   H4    S    
Cr5   O9    S    
C4    C5    S    
C5    C8    S    
C6    C7    S    
Cr1   O12   S    
C37   O13   A    
Cr6   O18   S    
C12   O21   A    
C2    C3    S    
C10   C16   S    
C11   C13   S    
Cr4   O14   S    
C4    C42   S    
C2    C42   S    
Cr1   O1    S    
C4    H11   S    
C35   O14   A    
N1    H18   S    
Cr6   O17   S    
Cr5   O16   S    
C19   C25   S    
C10   C11   S    
C33   O6    A    
C38   O2    A    
C22   C26   S    
C27   C28   T    
C14   C15   S    
C37   O18   A    
Cr2   O2    S    
C13   C14   S    
C39   O24   A    
Cr2   O20   S    
C14   C17   S    
