data_mof_unit_28212.cif
_audit_creation_date              2012-12-11T14:58:35-0500
_audit_creation_method            fapswitch 2.2
_symmetry_space_group_name_H-M    P1
_symmetry_Int_Tables_number       1
_space_group_crystal_system       triclinic
_cell_length_a                    10.940216
_cell_length_b                    11.002798
_cell_length_c                    18.860062
_cell_angle_alpha                 90.348052
_cell_angle_beta                  90.830066
_cell_angle_gamma                 59.596628
_cell_volume                      1957.83957916

loop_
_atom_site_label
_atom_site_type_symbol
_atom_type_description
_atom_site_fract_x
_atom_site_fract_y
_atom_site_fract_z
_atom_type_partial_charge
C1    C     C_R   0.359098 0.769900 0.396860 0.537325
C2    C     C_R   0.231075 0.412021 0.205276 -0.141556
C3    C     C_R   0.237075 0.439307 0.276613 -0.029926
C4    C     C_R   0.382455 0.353322 0.389437 0.530192
C5    C     C_R   0.913816 0.852546 0.343072 -0.093752
C6    C     C_R   0.935183 0.733697 0.380229 -0.108933
C7    C     C_R   0.042340 0.599295 0.360023 -0.060707
C8    C     C_R   0.129955 0.582338 0.302554 0.045784
C9    C     C_R   0.345690 0.331220 0.318459 0.013712
C10   C     C_R   0.748013 0.290076 0.279499 -0.148250
C11   C     C_R   0.789214 0.270947 0.209018 -0.125407
C12   C     C_R   0.561117 0.039242 0.191067 0.041605
C13   C     C_R   0.856966 0.339756 0.182512 0.069111
C14   C     C_R   0.890072 0.420577 0.227162 -0.103113
C15   C     C_R   0.848150 0.440916 0.296268 -0.133226
C16   C     C_R   0.723478 0.409528 0.394515 0.549643
C17   C     C_R   0.776277 0.377109 0.322990 0.023213
C18   C     C_R   0.434346 0.701579 0.274918 -0.148767
C19   C     C_R   0.424779 0.732320 0.203097 -0.192441
C20   C     C_R   0.337231 0.870803 0.180356 0.038669
C21   C     C_R   0.256724 0.979498 0.230286 0.232795
C22   C     C_R   0.264988 0.946055 0.301662 -0.091814
C23   C     C_R   0.332614 0.285358 0.174076 0.027173
C24   C     C_R   0.354429 0.808463 0.323793 -0.013455
C25   C     C_R   0.395334 0.198493 0.695032 -0.140059
C26   C     C_R   0.384836 0.189300 0.767077 -0.132422
C27   C     C_R   0.297562 0.310064 0.807873 0.037771
C28   C     C_R   0.343839 0.770875 0.604164 0.547696
C29   C     C_R   0.210873 0.440672 0.773289 -0.017422
C30   C     C_R   0.221874 0.447483 0.700098 -0.114125
C31   C     C_R   0.319897 0.329008 0.662000 0.017043
C32   C     C_R   0.734460 0.476977 0.732846 -0.131979
C33   C     C_R   0.743899 0.463659 0.805810 -0.148410
C34   C     C_R   0.444017 0.203445 0.287499 -0.147127
C35   C     C_R   0.809192 0.329914 0.836611 0.027144
C36   C     C_R   0.842454 0.211964 0.794044 -0.125332
C37   C     C_R   0.826906 0.226225 0.720391 -0.131261
C38   C     C_R   0.779785 0.358287 0.689296 0.033517
C39   C     C_R   0.192550 0.852785 0.709617 -0.138316
C40   C     C_R   0.368062 0.349508 0.594567 0.548550
C41   C     C_R   0.182498 0.866478 0.782556 -0.146658
C42   C     C_R   0.295996 0.854960 0.822906 0.038356
C43   C     C_R   0.417768 0.835894 0.788852 -0.141220
C44   C     C_R   0.426607 0.825767 0.715622 -0.145995
C45   C     C_R   0.445031 0.179993 0.215691 -0.022759
C46   C     C_R   0.316892 0.827349 0.675876 0.036481
C47   C     C_R   0.910596 0.316035 0.111427 0.546718
C48   C     C_R   0.306428 0.259898 0.101595 0.552387
C49   C     C_R   0.307852 0.899531 0.105452 0.520957
C50   C     C_R   0.877967 0.310849 0.905984 0.547190
C51   C     C_R   0.292509 0.286069 0.883685 0.548661
C52   C     C_R   0.754726 0.381390 0.612919 0.555781
C53   C     C_R   0.273867 0.896971 0.896971 0.544378
C54   C     C_R   0.787091 0.770347 0.157717 -0.081554
C55   C     C_R   0.774331 0.888398 0.122070 0.002004
C56   C     C_R   0.107264 0.703143 0.265579 -0.091287
C57   C     C_R   0.661778 0.023225 0.140187 -0.057334
C58   C     C_3   0.112541 0.576554 0.810717 -0.253992
C59   C     C_3   0.958422 0.614614 0.800054 -0.289629
C60   C     C_3   0.856526 0.747245 0.840749 -0.451565
C61   C     C_3   0.878431 0.874820 0.065637 -0.271924
C62   C     C_3   0.995761 0.721747 0.051363 -0.303436
C63   C     C_3   0.101572 0.709743 0.996675 -0.419553
C64   C     C_R   0.999988 0.837265 0.285838 -0.089415
C65   C     C_R   0.584151 0.919353 0.228232 -0.102772
C66   C     C_R   0.694164 0.786842 0.211088 -0.123231
Cr1   Cr    Cr6+3 0.601770 0.606860 0.505860 0.999362
Cr2   Cr    Cr6+3 0.291380 0.601660 0.495070 1.016452
Cr3   Cr    Cr6+3 0.606880 0.291510 0.499120 1.008901
Cr4   Cr    Cr6+3 0.062440 0.063090 0.008210 0.970271
Cr5   Cr    Cr6+3 0.062880 0.375170 0.998920 0.968690
Cr6   Cr    Cr6+3 0.374700 0.061720 0.992470 1.006990
H1    H     H_    0.528537 0.121286 0.319266 0.133475
H2    H     H_    0.482463 0.648239 0.165382 0.117326
H3    H     H_    0.706418 0.697150 0.239776 0.123048
H4    H     H_    0.202166 0.027524 0.339770 0.140520
H5    H     H_    0.469862 0.105193 0.666113 0.128637
H6    H     H_    0.448324 0.086056 0.790813 0.139843
H7    H     H_    0.161922 0.549034 0.674005 0.134423
H8    H     H_    0.692773 0.580779 0.710489 0.131721
H9    H     H_    0.713006 0.556718 0.837771 0.122821
H10   H     H_    0.888996 0.108090 0.817199 0.122066
H11   H     H_    0.856032 0.134225 0.687908 0.117173
H12   H     H_    0.830244 0.956390 0.358467 0.113916
H13   H     H_    0.105193 0.856017 0.680163 0.124536
H14   H     H_    0.983144 0.929243 0.256835 0.133755
H15   H     H_    0.085292 0.887142 0.807288 0.112047
H16   H     H_    0.504683 0.832365 0.818714 0.110880
H17   H     H_    0.521511 0.810907 0.690467 0.112812
H18   H     H_    0.869529 0.664862 0.145773 0.116278
H19   H     H_    0.652272 0.115050 0.114193 0.115408
H20   H     H_    0.172133 0.693402 0.220654 0.113164
H21   H     H_    0.517423 0.928362 0.271874 0.120370
H22   H     H_    0.143798 0.491079 0.174121 0.115568
H23   H     H_    0.867988 0.745537 0.424414 0.102569
H24   H     H_    0.182881 0.132940 0.162088 0.330981
H25   H     H_    0.869736 0.726158 0.898614 0.157392
H26   H     H_    0.874988 0.835129 0.828155 0.142061
H27   H     H_    0.745915 0.779499 0.825541 0.128561
H28   H     H_    0.929533 0.631790 0.742721 0.152054
H29   H     H_    0.947619 0.525483 0.818622 0.211291
H30   H     H_    0.139728 0.572170 0.867318 0.160756
H31   H     H_    0.126075 0.661257 0.788134 0.133624
H32   H     H_    0.046390 0.768544 0.947811 0.155331
H33   H     H_    0.168634 0.749422 0.018617 0.204572
H34   H     H_    0.056630 0.508159 0.388948 0.113299
H35   H     H_    0.173328 0.596950 0.984017 0.152952
H36   H     H_    0.056086 0.675226 0.101143 0.154406
H37   H     H_    0.947253 0.659708 0.032168 0.177863
H38   H     H_    0.818562 0.921643 0.015470 0.132124
H39   H     H_    0.928279 0.936712 0.082863 0.176708
H40   H     H_    0.692658 0.239421 0.299578 0.128744
H41   H     H_    0.769134 0.203105 0.175506 0.104174
H42   H     H_    0.950318 0.467014 0.209165 0.123073
H43   H     H_    0.869520 0.509459 0.328215 0.133734
H44   H     H_    0.499630 0.593513 0.292257 0.119336
O1    O     O_R   0.748800 0.497470 0.428000 -0.527825
O2    O     O_R   0.417600 0.174890 0.067840 -0.522279
O3    O     O_R   0.375320 0.946260 0.070860 -0.506901
O4    O     O_R   0.476420 0.724060 0.429470 -0.516861
O5    O     O_R   0.160600 0.919630 0.926660 -0.547287
O6    O     O_R   0.933060 0.190520 0.936020 -0.503909
O7    O     O_R   0.908880 0.403460 0.925020 -0.529642
O8    O     O_R   0.179600 0.361450 0.918490 -0.506578
O9    O     O_R   0.391510 0.170860 0.907530 -0.525370
O10   O     O_R   0.351130 0.942530 0.922260 -0.505970
O11   O     O_3   0.166667 0.166667 0.999870 -0.259913
O12   O     O_R   0.300070 0.471040 0.567100 -0.510487
O13   O     O_R   0.264580 0.744340 0.416750 -0.495516
O14   O     O_R   0.309380 0.472470 0.418200 -0.499866
O15   O     O_R   0.501710 0.260430 0.414300 -0.546317
O16   O     O_R   0.728090 0.305600 0.428960 -0.498536
O17   O     O_R   0.738760 0.495930 0.588610 -0.524268
O18   O     O_R   0.467110 0.722640 0.578360 -0.509805
O19   O     O_R   0.254530 0.742800 0.577360 -0.526526
O20   O     O_3   0.168256 0.118680 0.212067 -0.707645
O21   O     O_R   0.491670 0.258900 0.574910 -0.519083
O22   O     O_R   0.718780 0.304180 0.577850 -0.495010
O23   O     O_3   0.500010 0.500010 0.500020 -0.264289
O24   O     O_R   0.186690 0.923650 0.086970 -0.539246
O25   O     O_R   0.957250 0.194250 0.084630 -0.506169
O26   O     O_R   0.934970 0.407490 0.085330 -0.551508
O27   O     O_R   0.203780 0.365190 0.067090 -0.522986

loop_
_geom_bond_atom_site_label_1
_geom_bond_atom_site_label_2
_ccdc_geom_bond_type
Cr4   O11   S    
C25   C31   A    
Cr4   O24   S    
C23   C45   A    
C27   C29   A    
C28   O19   A    
C41   C42   A    
C35   C36   A    
C50   O6    A    
C22   H4    S    
C60   H27   S    
C8    C56   A    
C7    C8    A    
C39   C41   A    
C49   O3    A    
C47   O26   A    
C28   C46   S    
C26   C27   A    
C37   C38   A    
C28   O18   A    
C43   H16   S    
C22   C24   A    
Cr5   O7    S    
C36   C37   A    
Cr1   O17   S    
C54   H18   S    
C1    O13   A    
C42   C53   S    
C30   C31   A    
C38   C52   S    
C10   C17   A    
C40   O12   A    
C31   C40   S    
C18   C19   A    
C52   O17   A    
C33   C35   A    
C62   C63   S    
C19   C20   A    
C36   H10   S    
C16   C17   S    
C52   O22   A    
C56   C64   A    
C10   H40   S    
C58   H30   S    
C32   C38   A    
C63   H33   S    
C29   C30   A    
Cr1   O23   S    
Cr1   O4    S    
Cr2   O12   S    
C21   O20   S    
C65   H21   S    
C59   C60   S    
C13   C14   A    
C51   O8    A    
Cr5   O11   S    
C61   C62   S    
C16   O16   A    
C61   H38   S    
C64   H14   S    
C44   C46   A    
C4    O15   A    
Cr2   O19   S    
Cr3   O21   S    
C41   H15   S    
Cr6   O11   S    
C59   H29   S    
Cr5   O8    S    
C2    H22   S    
Cr1   O18   S    
C18   C24   A    
H24   O20   S    
C3    C8    S    
C53   O10   A    
C18   H44   S    
C13   C47   S    
C5    H12   S    
C63   H32   S    
C48   O2    A    
C25   C26   A    
C14   H42   S    
C5    C64   A    
Cr6   O10   S    
C1    O4    A    
C51   O9    A    
C43   C44   A    
C20   C49   S    
C3    C9    A    
C32   H8    S    
Cr4   O6    S    
Cr3   O15   S    
C40   O21   A    
C35   C50   S    
C7    H34   S    
Cr3   O23   S    
C34   C45   A    
C26   H6    S    
C29   C58   S    
Cr2   O14   S    
Cr1   O1    S    
C39   C46   A    
C12   C57   A    
C60   H25   S    
Cr5   O26   S    
C9    C34   A    
C25   H5    S    
C42   C43   A    
C30   H7    S    
C63   H35   S    
C61   H39   S    
Cr5   O27   S    
Cr3   O22   S    
C15   C17   A    
C54   C55   A    
Cr4   O25   S    
C23   C48   S    
C57   H19   S    
C19   H2    S    
C50   O7    A    
C12   C45   S    
C4    O14   A    
C6    C7    A    
C54   C66   A    
C12   C65   A    
C47   O25   A    
C60   H26   S    
Cr6   O9    S    
C32   C33   A    
C55   C57   A    
C2    C3    A    
C58   C59   S    
C53   O5    A    
C16   O1    A    
C11   C13   A    
Cr4   O5    S    
C5    C6    A    
C62   H37   S    
Cr3   O16   S    
C59   H28   S    
C66   H3    S    
C55   C61   S    
Cr6   O3    S    
C27   C51   S    
C15   H43   S    
C65   C66   A    
Cr2   O13   S    
C11   H41   S    
C10   C11   A    
C34   H1    S    
C56   H20   S    
C62   H36   S    
C20   C21   A    
C48   O27   A    
C1    C24   S    
C6    H23   S    
C49   O24   A    
Cr6   O2    S    
C2    C23   A    
C39   H13   S    
C14   C15   A    
C37   H11   S    
Cr2   O23   S    
C58   H31   S    
C4    C9    S    
C21   C22   A    
C33   H9    S    
C44   H17   S    
