data_mof_unit_26775.cif
_audit_creation_date              2012-12-10T16:37:49-0500
_audit_creation_method            fapswitch 2.2
_symmetry_space_group_name_H-M    P1
_symmetry_Int_Tables_number       1
_space_group_crystal_system       triclinic
_cell_length_a                    28.33759
_cell_length_b                    18.692221
_cell_length_c                    16.759359
_cell_angle_alpha                 90.000042
_cell_angle_beta                  61.043272
_cell_angle_gamma                 90.000043
_cell_volume                      7767.51555511

loop_
_atom_site_label
_atom_site_type_symbol
_atom_type_description
_atom_site_fract_x
_atom_site_fract_y
_atom_site_fract_z
_atom_type_partial_charge
C1    C     C_R   0.700262 0.264585 0.677489 0.899034
C2    C     C_R   0.299738 0.735415 0.322511 0.899033
C3    C     C_R   0.299738 0.264585 0.322511 0.899033
C4    C     C_R   0.700262 0.735415 0.677489 0.899034
C5    C     C_R   0.200262 0.764585 0.677489 0.899034
C6    C     C_R   0.799738 0.235415 0.322511 0.899033
C7    C     C_R   0.799738 0.764585 0.322511 0.899033
C8    C     C_R   0.200262 0.235415 0.677489 0.899034
C9    C     C_R   0.897430 0.500000 0.512518 0.035097
C10   C     C_R   0.102570 0.500000 0.487481 0.035098
C11   C     C_R   0.397430 0.000000 0.512518 0.035097
C12   C     C_R   0.602570 1.000000 0.487481 0.035098
C13   C     C_R   0.107800 0.372358 0.463078 -0.044406
C14   C     C_R   0.892200 0.627642 0.536921 -0.044406
C15   C     C_R   0.892199 0.372359 0.536924 -0.044405
C16   C     C_R   0.107801 0.627641 0.463075 -0.044405
C17   C     C_R   0.607800 0.872358 0.463078 -0.044406
C18   C     C_R   0.392200 0.127642 0.536921 -0.044406
C19   C     C_R   0.392199 0.872359 0.536924 -0.044405
C20   C     C_R   0.607801 0.127641 0.463075 -0.044405
C21   C     C_R   0.717206 0.261003 0.958394 0.019531
C22   C     C_R   0.282794 0.738997 0.041606 0.019531
C23   C     C_R   0.282794 0.261003 0.041606 0.019531
C24   C     C_R   0.717206 0.738997 0.958394 0.019531
C25   C     C_R   0.217206 0.761003 0.958394 0.019531
C26   C     C_R   0.782794 0.238997 0.041606 0.019531
C27   C     C_R   0.782794 0.761003 0.041606 0.019531
C28   C     C_R   0.217206 0.238997 0.958394 0.019531
C29   C     C_R   0.761870 0.214505 0.917517 0.029197
C30   C     C_R   0.238130 0.785495 0.082482 0.029197
C31   C     C_R   0.238130 0.214505 0.082482 0.029196
C32   C     C_R   0.761870 0.785495 0.917517 0.029196
C33   C     C_R   0.261870 0.714505 0.917517 0.029196
C34   C     C_R   0.738130 0.285495 0.082482 0.029197
C35   C     C_R   0.738130 0.714505 0.082482 0.029196
C36   C     C_R   0.261870 0.285495 0.917517 0.029196
C37   C     C_R   0.796225 0.206382 0.956895 0.067664
C38   C     C_R   0.203775 0.793618 0.043105 0.067664
C39   C     C_R   0.203775 0.206382 0.043105 0.067664
C40   C     C_R   0.796225 0.793617 0.956895 0.067664
C41   C     C_R   0.296225 0.706383 0.956895 0.067664
C42   C     C_R   0.703775 0.293618 0.043105 0.067664
C43   C     C_R   0.703775 0.706383 0.043105 0.067664
C44   C     C_R   0.296225 0.293617 0.956895 0.067664
C45   C     C_R   0.640063 0.319815 0.956086 0.083400
C46   C     C_R   0.359937 0.680185 0.043914 0.083400
C47   C     C_R   0.359937 0.319815 0.043914 0.083400
C48   C     C_R   0.640063 0.680185 0.956086 0.083400
C49   C     C_R   0.140063 0.819815 0.956086 0.083400
C50   C     C_R   0.859937 0.180185 0.043914 0.083400
C51   C     C_R   0.859937 0.819815 0.043914 0.083400
C52   C     C_R   0.140063 0.180185 0.956086 0.083400
C53   C     C_R   0.614081 0.342163 0.904653 -0.136194
C54   C     C_R   0.385919 0.657837 0.095347 -0.136194
C55   C     C_R   0.385919 0.342163 0.095347 -0.136194
C56   C     C_R   0.614081 0.657837 0.904653 -0.136194
C57   C     C_R   0.114081 0.842163 0.904653 -0.136194
C58   C     C_R   0.885919 0.157837 0.095347 -0.136194
C59   C     C_R   0.885919 0.842163 0.095347 -0.136194
C60   C     C_R   0.114081 0.157837 0.904653 -0.136194
C61   C     C_R   0.631730 0.316844 0.817582 -0.304623
C62   C     C_R   0.368270 0.683156 0.182418 -0.304623
C63   C     C_R   0.368270 0.316844 0.182418 -0.304623
C64   C     C_R   0.631730 0.683156 0.817582 -0.304623
C65   C     C_R   0.131730 0.816844 0.817582 -0.304623
C66   C     C_R   0.868270 0.183156 0.182418 -0.304623
C67   C     C_R   0.868270 0.816844 0.182418 -0.304623
C68   C     C_R   0.131730 0.183156 0.817582 -0.304623
C69   C     C_R   0.674992 0.270624 0.777406 -0.120494
C70   C     C_R   0.325008 0.729376 0.222594 -0.120494
C71   C     C_R   0.325008 0.270624 0.222594 -0.120495
C72   C     C_R   0.674992 0.729375 0.777406 -0.120495
C73   C     C_R   0.174992 0.770624 0.777406 -0.120494
C74   C     C_R   0.825008 0.229375 0.222594 -0.120494
C75   C     C_R   0.825008 0.770624 0.222594 -0.120495
C76   C     C_R   0.174992 0.229375 0.777406 -0.120495
C77   C     C_R   0.699145 0.242980 0.829504 0.024340
C78   C     C_R   0.300855 0.757020 0.170496 0.024339
C79   C     C_R   0.300854 0.242980 0.170496 0.024338
C80   C     C_R   0.699146 0.757020 0.829504 0.024338
C81   C     C_R   0.199146 0.742980 0.829504 0.024340
C82   C     C_R   0.800855 0.257020 0.170496 0.024339
C83   C     C_R   0.800854 0.742980 0.170496 0.024338
C84   C     C_R   0.199146 0.257020 0.829504 0.024338
C85   C     C_R   0.696684 0.128391 0.516490 0.908242
C86   C     C_R   0.303316 0.871609 0.483510 0.908242
C87   C     C_R   0.303316 0.128391 0.483509 0.908241
C88   C     C_R   0.696684 0.871609 0.516490 0.908242
C89   C     C_R   0.196684 0.628391 0.516490 0.908242
C90   C     C_R   0.803316 0.371609 0.483510 0.908242
C91   C     C_R   0.803316 0.628391 0.483509 0.908241
C92   C     C_R   0.196684 0.371609 0.516490 0.908242
C93   C     C_R   0.685661 0.274937 0.914373 0.056863
C94   C     C_R   0.314339 0.725063 0.085627 0.056863
C95   C     C_R   0.314339 0.274937 0.085627 0.056863
C96   C     C_R   0.685661 0.725063 0.914373 0.056863
C97   C     C_R   0.185661 0.774937 0.914373 0.056863
C98   C     C_R   0.814339 0.225063 0.085627 0.056863
C99   C     C_R   0.814339 0.774937 0.085627 0.056863
C100  C     C_R   0.185661 0.225063 0.914373 0.056863
C101  C     C_R   0.621978 0.338807 0.048277 -0.185065
C102  C     C_R   0.378022 0.661193 0.951723 -0.185065
C103  C     C_R   0.378022 0.338806 0.951723 -0.185065
C104  C     C_R   0.621978 0.661193 0.048277 -0.185065
C105  C     C_R   0.121978 0.838806 0.048277 -0.185065
C106  C     C_R   0.878022 0.161193 0.951723 -0.185065
C107  C     C_R   0.878022 0.838806 0.951723 -0.185065
C108  C     C_R   0.121978 0.161193 0.048277 -0.185065
C109  C     C_R   0.653975 0.328694 0.089196 -0.223794
C110  C     C_R   0.346025 0.671307 0.910804 -0.223794
C111  C     C_R   0.346025 0.328693 0.910805 -0.223794
C112  C     C_R   0.653975 0.671307 0.089195 -0.223794
C113  C     C_R   0.153975 0.828693 0.089196 -0.223794
C114  C     C_R   0.846025 0.171307 0.910804 -0.223794
C115  C     C_R   0.846025 0.828693 0.910805 -0.223794
C116  C     C_R   0.153975 0.171307 0.089195 -0.223794
C117  C     C_R   0.734988 0.183826 0.802988 0.025837
C118  C     C_R   0.265012 0.816174 0.197012 0.025837
C119  C     C_R   0.265012 0.183826 0.197012 0.025837
C120  C     C_R   0.734988 0.816174 0.802988 0.025837
C121  C     C_R   0.234988 0.683826 0.802988 0.025837
C122  C     C_R   0.765012 0.316174 0.197012 0.025837
C123  C     C_R   0.765012 0.683826 0.197012 0.025837
C124  C     C_R   0.234988 0.316174 0.802988 0.025837
C125  C     C_R   0.767641 0.172649 0.843351 -0.243464
C126  C     C_R   0.232359 0.827351 0.156649 -0.243465
C127  C     C_R   0.232359 0.172649 0.156649 -0.243465
C128  C     C_R   0.767641 0.827351 0.843351 -0.243465
C129  C     C_R   0.267641 0.672649 0.843351 -0.243464
C130  C     C_R   0.732359 0.327351 0.156649 -0.243465
C131  C     C_R   0.732359 0.672649 0.156649 -0.243465
C132  C     C_R   0.267641 0.327351 0.843351 -0.243465
C133  C     C_R   0.073374 0.101237 0.935227 0.923571
C134  C     C_R   0.926626 0.898763 0.064773 0.923571
C135  C     C_R   0.926626 0.101237 0.064773 0.923570
C136  C     C_R   0.073374 0.898763 0.935227 0.923571
C137  C     C_R   0.573374 0.601237 0.935227 0.923571
C138  C     C_R   0.426626 0.398763 0.064773 0.923571
C139  C     C_R   0.426626 0.601237 0.064773 0.923570
C140  C     C_R   0.573374 0.398763 0.935227 0.923571
C141  C     C_R   0.553714 0.129635 0.483161 0.055148
C142  C     C_R   0.446286 0.870364 0.516838 0.055147
C143  C     C_R   0.446288 0.129636 0.516834 0.055147
C144  C     C_R   0.553713 0.870364 0.483165 0.055147
C145  C     C_R   0.053714 0.629635 0.483161 0.055148
C146  C     C_R   0.946286 0.370364 0.516838 0.055147
C147  C     C_R   0.946288 0.629636 0.516834 0.055147
C148  C     C_R   0.053713 0.370364 0.483165 0.055147
C149  C     C_R   0.526999 0.194589 0.489691 -0.197894
C150  C     C_R   0.473001 0.805411 0.510308 -0.197894
C151  C     C_R   0.473003 0.194589 0.510303 -0.197894
C152  C     C_R   0.526997 0.805411 0.489697 -0.197894
C153  C     C_R   0.026999 0.694589 0.489691 -0.197894
C154  C     C_R   0.973001 0.305411 0.510308 -0.197894
C155  C     C_R   0.973003 0.694589 0.510303 -0.197894
C156  C     C_R   0.026997 0.305411 0.489697 -0.197894
C157  C     C_R   0.473797 0.064907 0.505559 0.030175
C158  C     C_R   0.526203 0.935092 0.494440 0.030175
C159  C     C_R   0.526204 0.064907 0.494438 0.030174
C160  C     C_R   0.473796 0.935092 0.505561 0.030174
C161  C     C_R   0.973797 0.564907 0.505559 0.030175
C162  C     C_R   0.026203 0.435092 0.494440 0.030175
C163  C     C_R   0.026204 0.564907 0.494438 0.030174
C164  C     C_R   0.973796 0.435092 0.505561 0.030174
C165  C     C_R   0.947889 0.500000 0.509779 -0.054642
C166  C     C_R   0.052111 0.500000 0.490220 -0.054642
C167  C     C_R   0.447889 0.000000 0.509779 -0.054642
C168  C     C_R   0.552111 1.000000 0.490220 -0.054642
C169  C     C_R   0.871752 0.434879 0.515644 0.007549
C170  C     C_R   0.128248 0.565121 0.484355 0.007549
C171  C     C_R   0.128248 0.434879 0.484356 0.007549
C172  C     C_R   0.871752 0.565121 0.515643 0.007549
C173  C     C_R   0.371752 0.934879 0.515644 0.007549
C174  C     C_R   0.628248 0.065121 0.484355 0.007549
C175  C     C_R   0.628248 0.934879 0.484356 0.007549
C176  C     C_R   0.371752 0.065121 0.515643 0.007549
C177  C     C_R   0.827578 0.435931 0.496646 -0.106652
C178  C     C_R   0.172422 0.564069 0.503353 -0.106653
C179  C     C_R   0.172422 0.435930 0.503353 -0.106652
C180  C     C_R   0.827578 0.564070 0.496646 -0.106651
C181  C     C_R   0.327578 0.935931 0.496646 -0.106652
C182  C     C_R   0.672422 0.064069 0.503353 -0.106653
C183  C     C_R   0.672422 0.935930 0.503353 -0.106652
C184  C     C_R   0.327578 0.064070 0.496646 -0.106651
C185  C     C_R   0.807400 0.500000 0.485636 -0.287419
C186  C     C_R   0.192600 0.500000 0.514363 -0.287419
C187  C     C_R   0.307400 0.000000 0.485636 -0.287419
C188  C     C_R   0.692600 1.000000 0.514363 -0.287419
H1    H     H_    0.047233 0.254695 0.482253 0.142263
H2    H     H_    0.952767 0.745305 0.517746 0.142263
H3    H     H_    0.952764 0.254695 0.517753 0.142263
H4    H     H_    0.047236 0.745305 0.482247 0.142263
H5    H     H_    0.547233 0.754695 0.482253 0.142263
H6    H     H_    0.452767 0.245305 0.517746 0.142263
H7    H     H_    0.452764 0.754695 0.517753 0.142263
H8    H     H_    0.547236 0.245305 0.482247 0.142263
H9    H     H_    0.774978 0.500000 0.468736 0.207359
H10   H     H_    0.225022 0.500000 0.531262 0.207359
H11   H     H_    0.274978 1.000000 0.468736 0.207359
H12   H     H_    0.725022 0.000000 0.531262 0.207359
H13   H     H_    0.613389 0.337081 0.778342 0.191884
H14   H     H_    0.386611 0.662918 0.221658 0.191884
H15   H     H_    0.386611 0.337081 0.221658 0.191884
H16   H     H_    0.613389 0.662918 0.778342 0.191884
H17   H     H_    0.113389 0.837082 0.778342 0.191884
H18   H     H_    0.886611 0.162918 0.221658 0.191884
H19   H     H_    0.886611 0.837082 0.221658 0.191884
H20   H     H_    0.113389 0.162918 0.778342 0.191884
H21   H     H_    0.582290 0.359227 0.093057 0.176391
H22   H     H_    0.417710 0.640773 0.906943 0.176391
H23   H     H_    0.417710 0.359227 0.906943 0.176391
H24   H     H_    0.582290 0.640773 0.093057 0.176392
H25   H     H_    0.082290 0.859227 0.093057 0.176391
H26   H     H_    0.917710 0.140773 0.906943 0.176391
H27   H     H_    0.917710 0.859227 0.906943 0.176391
H28   H     H_    0.082290 0.140773 0.093057 0.176392
H29   H     H_    0.637637 0.345764 0.159256 0.142876
H30   H     H_    0.362363 0.654237 0.840744 0.142876
H31   H     H_    0.362363 0.345763 0.840744 0.142876
H32   H     H_    0.637637 0.654237 0.159255 0.142876
H33   H     H_    0.137637 0.845764 0.159256 0.142876
H34   H     H_    0.862363 0.154237 0.840744 0.142876
H35   H     H_    0.862363 0.845763 0.840744 0.142876
H36   H     H_    0.137637 0.154237 0.159255 0.142876
H37   H     H_    0.795005 0.127567 0.819952 0.140755
H38   H     H_    0.204995 0.872433 0.180048 0.140756
H39   H     H_    0.204995 0.127568 0.180048 0.140756
H40   H     H_    0.795005 0.872432 0.819952 0.140756
H41   H     H_    0.295005 0.627567 0.819952 0.140755
H42   H     H_    0.704995 0.372433 0.180048 0.140756
H43   H     H_    0.704995 0.627568 0.180048 0.140756
H44   H     H_    0.295005 0.372432 0.819952 0.140756
O1    O     O_R   0.746490 0.236330 0.638080 -0.616125
O2    O     O_R   0.253510 0.763670 0.361920 -0.616125
O3    O     O_R   0.253510 0.236330 0.361920 -0.616125
O4    O     O_R   0.746490 0.763670 0.638080 -0.616125
O5    O     O_R   0.246490 0.736330 0.638080 -0.616125
O6    O     O_R   0.753510 0.263670 0.361920 -0.616125
O7    O     O_R   0.753510 0.736330 0.361920 -0.616125
O8    O     O_R   0.246490 0.263670 0.638080 -0.616125
O9    O     O_R   0.674170 0.186160 0.516270 -0.636245
O10   O     O_R   0.325830 0.813840 0.483730 -0.636246
O11   O     O_R   0.325830 0.186160 0.483730 -0.636246
O12   O     O_R   0.674170 0.813840 0.516270 -0.636246
O13   O     O_R   0.174170 0.686160 0.516270 -0.636245
O14   O     O_R   0.825830 0.313840 0.483730 -0.636246
O15   O     O_R   0.825830 0.686160 0.483730 -0.636246
O16   O     O_R   0.174170 0.313840 0.516270 -0.636246
O17   O     O_R   0.739960 0.127620 0.525000 -0.620945
O18   O     O_R   0.260040 0.872380 0.475000 -0.620945
O19   O     O_R   0.260040 0.127620 0.475000 -0.620945
O20   O     O_R   0.739960 0.872380 0.525000 -0.620945
O21   O     O_R   0.239960 0.627620 0.525000 -0.620945
O22   O     O_R   0.760040 0.372380 0.475000 -0.620945
O23   O     O_R   0.760040 0.627620 0.475000 -0.620945
O24   O     O_R   0.239960 0.372380 0.525000 -0.620945
O25   O     O_R   0.680700 0.294870 0.629350 -0.630668
O26   O     O_R   0.319300 0.705130 0.370650 -0.630668
O27   O     O_R   0.319300 0.294870 0.370650 -0.630668
O28   O     O_R   0.680700 0.705130 0.629350 -0.630668
O29   O     O_R   0.180700 0.794870 0.629350 -0.630668
O30   O     O_R   0.819300 0.205130 0.370650 -0.630668
O31   O     O_R   0.819300 0.794870 0.370650 -0.630668
O32   O     O_R   0.180700 0.205130 0.629350 -0.630668
O33   O     O_R   0.062020 0.072840 0.007170 -0.635697
O34   O     O_R   0.937980 0.927160 0.992830 -0.635697
O35   O     O_R   0.937980 0.072840 0.992830 -0.635697
O36   O     O_R   0.062020 0.927160 0.007170 -0.635697
O37   O     O_R   0.562020 0.572840 0.007170 -0.635697
O38   O     O_R   0.437980 0.427160 0.992830 -0.635697
O39   O     O_R   0.437980 0.572840 0.992830 -0.635697
O40   O     O_R   0.562020 0.427160 0.007170 -0.635697
O41   O     O_R   0.947860 0.073950 0.109290 -0.620464
O42   O     O_R   0.052140 0.926050 0.890710 -0.620464
O43   O     O_R   0.052140 0.073950 0.890710 -0.620465
O44   O     O_R   0.947860 0.926050 0.109290 -0.620465
O45   O     O_R   0.447860 0.573950 0.109290 -0.620464
O46   O     O_R   0.552140 0.426050 0.890710 -0.620464
O47   O     O_R   0.552140 0.573950 0.890710 -0.620465
O48   O     O_R   0.447860 0.426050 0.109290 -0.620465
Zn1   Zn    Zn3+2 0.792340 0.208750 0.507670 0.968222
Zn2   Zn    Zn3+2 0.207660 0.791250 0.492330 0.968222
Zn3   Zn    Zn3+2 0.207660 0.208750 0.492330 0.968223
Zn4   Zn    Zn3+2 0.792340 0.791250 0.507670 0.968223
Zn5   Zn    Zn3+2 0.292340 0.708750 0.507670 0.968222
Zn6   Zn    Zn3+2 0.707660 0.291250 0.492330 0.968222
Zn7   Zn    Zn3+2 0.707660 0.708750 0.492330 0.968223
Zn8   Zn    Zn3+2 0.292340 0.291250 0.507670 0.968223
Zn9   Zn    Zn3+2 0.505960 0.500000 0.080520 0.924188
Zn10  Zn    Zn3+2 0.494040 0.500000 0.919480 0.924188
Zn11  Zn    Zn3+2 0.005960 0.000000 0.080520 0.924188
Zn12  Zn    Zn3+2 0.994040 0.000000 0.919480 0.924188
C189  C     C_1   0.143929 0.324855 0.391208 0.206399
N1    N     N_1   0.171912 0.287223 0.332537 -0.192387
C190  C     C_1   0.856071 0.675145 0.608792 0.206400
N2    N     N_1   0.828088 0.712777 0.667462 -0.192387
C191  C     C_1   0.856069 0.324857 0.608795 0.206397
N3    N     N_1   0.828085 0.287227 0.667467 -0.192387
C192  C     C_1   0.143931 0.675143 0.391204 0.206397
N4    N     N_1   0.171915 0.712773 0.332533 -0.192387
C193  C     C_1   0.643929 0.824855 0.391208 0.206399
N5    N     N_1   0.671912 0.787223 0.332537 -0.192387
C194  C     C_1   0.356071 0.175145 0.608792 0.206400
N6    N     N_1   0.328088 0.212777 0.667462 -0.192387
C195  C     C_1   0.356069 0.824857 0.608795 0.206397
N7    N     N_1   0.328085 0.787227 0.667467 -0.192387
C196  C     C_1   0.643931 0.175143 0.391204 0.206397
N8    N     N_1   0.671915 0.212773 0.332533 -0.192387
C197  C     C_1   0.732589 0.126678 0.747006 0.187387
N9    N     N_1   0.730573 0.080734 0.702520 -0.183898
C198  C     C_1   0.267411 0.873322 0.252994 0.187387
N10   N     N_1   0.269427 0.919266 0.297480 -0.183899
C199  C     C_1   0.267411 0.126678 0.252994 0.187388
N11   N     N_1   0.269426 0.080734 0.297480 -0.183899
C200  C     C_1   0.732589 0.873322 0.747006 0.187388
N12   N     N_1   0.730574 0.919265 0.702520 -0.183898
C201  C     C_1   0.232589 0.626678 0.747006 0.187387
N13   N     N_1   0.230573 0.580734 0.702520 -0.183898
C202  C     C_1   0.767411 0.373322 0.252994 0.187387
N14   N     N_1   0.769427 0.419266 0.297480 -0.183899
C203  C     C_1   0.767411 0.626678 0.252994 0.187388
N15   N     N_1   0.769426 0.580734 0.297480 -0.183899
C204  C     C_1   0.232589 0.373322 0.747006 0.187388
N16   N     N_1   0.230574 0.419265 0.702520 -0.183898

loop_
_geom_bond_atom_site_label_1
_geom_bond_atom_site_label_2
_ccdc_geom_bond_type
C154  H3    S    
C85   C182  S    
C4    O4    A    
C9    C169  A    
C34   C42   A    
C181  C187  A    
C193  N5    T    
C6    O6    A    
C16   C192  S    
C27   C99   A    
C170  C178  A    
C175  C183  A    
C42   C109  A    
C24   C96   A    
C149  H8    S    
C62   C70   A    
C3    O3    A    
C158  C160  A    
C1    O1    A    
C8    O32   A    
C147  C155  A    
O11   Zn8   S    
C88   O20   A    
C143  C151  A    
C64   H16   S    
C90   C177  S    
C4    O28   A    
C118  C198  S    
C5    O29   A    
C82   C98   A    
C76   C84   A    
C126  H38   S    
C73   C81   A    
C161  C163  A    
C162  C164  A    
O22   Zn6   S    
C121  C201  S    
C204  N16   T    
C84   C100  A    
C140  O46   A    
C57   C65   A    
C137  O37   A    
C37   C114  A    
C27   C35   A    
C10   C171  A    
C21   C29   A    
O3    Zn3   S    
C81   C121  A    
C23   C31   A    
C24   C32   A    
O10   Zn5   S    
O38   Zn10  S    
O15   Zn4   S    
C194  N6    T    
C146  C154  A    
C86   O10   A    
C113  H33   S    
C5    O5    A    
C63   C71   A    
C20   C196  S    
C36   C44   A    
C12   C174  A    
C138  O38   A    
C176  C184  A    
O7    Zn7   S    
C123  C203  S    
C48   C96   A    
C138  O48   A    
C14   C190  S    
C139  O45   A    
C133  O33   A    
O48   Zn9   S    
C148  C162  A    
C183  C188  A    
C108  C116  A    
C91   O23   A    
C78   C94   A    
C3    O27   A    
C9    C165  A    
O25   Zn6   S    
C89   O13   A    
O27   Zn8   S    
C49   C97   A    
C21   C42   A    
C40   C115  A    
C107  H27   S    
C15   C191  S    
C51   C107  A    
C203  N15   T    
O33   Zn11  S    
O32   Zn3   S    
O34   Zn12  S    
O41   Zn11  S    
C185  H9    S    
O42   Zn12  S    
C82   C122  A    
C161  C165  A    
C17   C175  A    
C18   C176  A    
O1    Zn1   S    
C85   O17   A    
C29   C125  A    
C69   C77   A    
C31   C127  A    
C45   C93   A    
C174  C182  A    
C71   C79   A    
C92   O16   A    
C179  C186  A    
C87   O19   A    
C30   C38   A    
C11   C176  A    
C63   H15   S    
C17   C144  A    
C151  H6    S    
C105  C113  A    
O35   Zn12  S    
C78   C118  A    
O43   Zn12  S    
C36   C132  A    
O40   Zn9   S    
O30   Zn1   S    
O45   Zn9   S    
C188  H12   S    
C66   C74   A    
C8    C76   S    
C49   C57   A    
C124  C132  A    
O14   Zn1   S    
C52   C60   A    
C59   C67   A    
C53   C61   A    
C141  C159  A    
C20   C174  A    
C23   C95   A    
C55   C63   A    
C86   C181  S    
C56   C64   A    
C7    O31   A    
C35   C43   A    
C10   C166  A    
C156  H1    S    
C90   O22   A    
C45   C53   A    
C18   C194  S    
C22   C94   A    
C171  C179  A    
C111  H31   S    
C169  C177  A    
C8    O8    A    
C106  H26   S    
C117  C197  S    
C50   C98   A    
C103  H23   S    
C104  C112  A    
O19   Zn3   S    
C145  C163  A    
C101  H21   S    
C146  C164  A    
C14   C147  A    
C52   C100  A    
O31   Zn4   S    
C16   C145  A    
C135  O41   A    
C178  C186  A    
O37   Zn9   S    
C189  N1    T    
C25   C38   A    
C54   C139  S    
C46   C94   A    
C27   C40   A    
C128  H40   S    
C91   C180  S    
C112  H32   S    
C6    O30   A    
C182  C188  A    
C89   C178  S    
C60   C68   A    
C124  C204  S    
C25   C97   A    
C39   C116  A    
C67   C75   A    
C104  H24   S    
C131  H43   S    
C24   C43   A    
C137  O47   A    
C22   C30   A    
C20   C141  A    
C15   C146  A    
C58   C135  S    
C68   C76   A    
C59   C134  S    
C13   C189  S    
C21   C93   A    
C184  C187  A    
C136  O36   A    
C32   C128  A    
C72   C80   A    
C56   C137  S    
C5    C73   S    
C150  H7    S    
C109  H29   S    
C13   C171  A    
C117  C125  A    
C25   C33   A    
C119  C127  A    
C11   C167  A    
C134  O34   A    
C133  O43   A    
C19   C195  S    
O4    Zn4   S    
O5    Zn5   S    
C157  C167  A    
C80   C120  A    
C158  C168  A    
O17   Zn1   S    
O26   Zn5   S    
C115  H35   S    
C164  C165  A    
C22   C41   A    
C130  H42   S    
C101  C109  A    
O23   Zn7   S    
C177  C185  A    
O24   Zn8   S    
C103  C111  A    
C62   H14   S    
C162  C166  A    
O44   Zn11  S    
C2    O2    A    
O2    Zn2   S    
C79   C119  A    
C68   H20   S    
C153  C155  A    
C154  C156  A    
C172  C180  A    
C173  C181  A    
C200  N12   T    
C157  C159  A    
C83   C99   A    
C127  H39   S    
C74   C82   A    
C125  H37   S    
C6    C74   S    
C1    O25   A    
O46   Zn10  S    
C91   O15   A    
C47   C103  A    
C196  N8    T    
C50   C58   A    
O8    Zn8   S    
C163  C166  A    
C147  C161  A    
C190  N2    T    
C38   C113  A    
C49   C105  A    
C54   C62   A    
C28   C39   A    
C1    C69   S    
C23   C44   A    
C187  H11   S    
C116  H36   S    
C3    C71   S    
C192  N4    T    
C19   C173  A    
C79   C95   A    
C92   C179  S    
O47   Zn10  S    
C46   C54   A    
C85   O9    A    
C114  H34   S    
O36   Zn11  S    
C108  H28   S    
C45   C101  A    
C92   O24   A    
C17   C193  S    
C19   C142  A    
C102  C110  A    
C35   C131  A    
C4    C72   S    
C33   C129  A    
C18   C143  A    
C123  C131  A    
C136  O42   A    
C121  C129  A    
C88   O12   A    
C120  C128  A    
C26   C37   A    
C10   C170  A    
C33   C41   A    
C142  C150  A    
C149  C151  A    
C75   C83   A    
C199  N11   T    
C90   O14   A    
C77   C93   A    
C202  N14   T    
C44   C111  A    
C16   C170  A    
C65   H17   S    
C28   C36   A    
C144  C152  A    
C195  N7    T    
C29   C37   A    
C50   C106  A    
C186  H10   S    
C9    C172  A    
C148  C156  A    
C83   C123  A    
C2    C70   S    
C60   C133  S    
O16   Zn3   S    
C86   O18   A    
C198  N10   T    
C30   C126  A    
C70   C78   A    
C53   C140  S    
C134  O44   A    
C191  N3    T    
C141  C149  A    
C197  N9    T    
C46   C102  A    
C55   C138  S    
C152  H5    S    
C106  C114  A    
C155  H2    S    
C77   C117  A    
O20   Zn4   S    
C66   H18   S    
O21   Zn5   S    
C48   C104  A    
C129  H41   S    
C65   C73   A    
C159  C168  A    
C15   C169  A    
C160  C167  A    
C61   H13   S    
C58   C66   A    
C119  C199  S    
C57   C136  S    
O9    Zn6   S    
C80   C96   A    
O39   Zn10  S    
O6    Zn6   S    
C145  C153  A    
C28   C100  A    
C32   C40   A    
C52   C108  A    
C122  C202  S    
C89   O21   A    
C135  O35   A    
O18   Zn2   S    
C132  H44   S    
C26   C34   A    
C143  C157  A    
C51   C99   A    
C11   C173  A    
C105  H25   S    
C120  C200  S    
C14   C172  A    
C87   C184  S    
C102  H22   S    
C88   C183  S    
C7    C75   S    
C139  O39   A    
C140  O40   A    
C87   O11   A    
C107  C115  A    
C26   C98   A    
C12   C175  A    
C2    O26   A    
C7    O7    A    
C41   C110  A    
C150  C152  A    
C51   C59   A    
C43   C112  A    
C144  C158  A    
C67   H19   S    
C47   C55   A    
C61   C69   A    
C48   C56   A    
C142  C160  A    
C12   C168  A    
C84   C124  A    
C81   C97   A    
C31   C39   A    
C64   C72   A    
C201  N13   T    
C110  H30   S    
O28   Zn7   S    
C180  C185  A    
O29   Zn2   S    
C34   C130  A    
O12   Zn7   S    
O13   Zn2   S    
C47   C95   A    
C118  C126  A    
C13   C148  A    
C122  C130  A    
C153  H4    S    
