data_mof_unit_52626.cif
_audit_creation_date              2012-12-11T15:49:10-0500
_audit_creation_method            fapswitch 2.2
_symmetry_space_group_name_H-M    P1
_symmetry_Int_Tables_number       1
_space_group_crystal_system       triclinic
_cell_length_a                    21.675822
_cell_length_b                    7.205154
_cell_length_c                    14.780812
_cell_angle_alpha                 89.944178
_cell_angle_beta                  106.750525
_cell_angle_gamma                 89.916995
_cell_volume                      2210.47787969

loop_
_atom_site_label
_atom_site_type_symbol
_atom_type_description
_atom_site_fract_x
_atom_site_fract_y
_atom_site_fract_z
_atom_type_partial_charge
O1    O     O_R   0.335860 0.638190 0.002110 -0.553022
O2    O     O_R   0.664140 0.361810 0.997890 -0.553019
O3    O     O_R   0.164140 0.138190 0.997890 -0.524005
O4    O     O_R   0.835860 0.861810 0.002110 -0.524010
O5    O     O_R   0.217530 0.305920 0.861960 -0.535383
O6    O     O_R   0.782470 0.694080 0.138040 -0.535380
O7    O     O_R   0.282470 0.805920 0.138040 -0.530125
O8    O     O_R   0.717530 0.194080 0.861960 -0.530129
C1    C     C_R   0.205932 0.476678 0.825385 0.656405
C2    C     C_R   0.794068 0.523322 0.174615 0.656409
C3    C     C_R   0.294335 0.976496 0.174616 0.665886
C4    C     C_R   0.705665 0.023504 0.825384 0.665888
O9    O     O_R   0.338690 0.308320 0.993240 -0.533058
O10   O     O_R   0.661310 0.691680 0.006760 -0.533029
O11   O     O_R   0.161310 0.808320 0.006760 -0.531595
O12   O     O_R   0.838690 0.191680 0.993240 -0.531599
O13   O     O_R   0.286170 0.140430 0.130100 -0.525489
O14   O     O_R   0.713830 0.859570 0.869900 -0.525495
O15   O     O_R   0.213830 0.640430 0.869900 -0.535225
O16   O     O_R   0.786170 0.359570 0.130100 -0.535227
C5    C     C_R   0.364260 0.477844 0.994789 0.660464
C6    C     C_R   0.635738 0.522158 0.005203 0.660467
C7    C     C_R   0.135555 0.978831 0.004293 0.699093
C8    C     C_R   0.864445 0.021168 0.995707 0.699079
O17   O     O_3   0.232630 0.472410 0.044750 -0.343197
O18   O     O_3   0.767370 0.527590 0.955250 -0.343209
O19   O     O_3   0.267370 0.972410 0.955250 -0.386284
O20   O     O_3   0.732630 0.027590 0.044750 -0.386263
V1    V     V_3+5 0.253220 0.196620 0.991700 1.549027
V2    V     V_3+5 0.746780 0.803380 0.008300 1.549098
V3    V     V_3+5 0.246780 0.696620 0.008300 1.542515
V4    V     V_3+5 0.753220 0.303380 0.991700 1.542536
C9    C     C_R   0.033834 0.833925 0.016243 -0.185020
C10   C     C_R   0.966166 0.166075 0.983756 -0.185020
C11   C     C_R   0.475946 0.349583 0.038567 -0.013219
C12   C     C_R   0.524050 0.650410 0.961406 -0.012999
H1    H     H_    0.059402 0.704828 0.029017 0.166671
H2    H     H_    0.940598 0.295172 0.970982 0.166672
H3    H     H_    0.457695 0.235352 0.071107 0.174141
H4    H     H_    0.542304 0.764633 0.928863 0.174207
C13   C     C_R   0.967918 0.835233 0.007873 0.029111
C14   C     C_R   0.032082 0.164767 0.992127 0.029110
C15   C     C_R   0.542393 0.357976 0.047122 -0.021947
C16   C     C_R   0.457598 0.642000 0.952833 -0.021931
C17   C     C_R   0.933088 0.005302 0.994114 -0.054648
C18   C     C_R   0.066912 0.994698 0.005886 -0.054651
C19   C     C_R   0.567019 0.510308 0.006830 -0.154893
C20   C     C_R   0.432977 0.489692 0.993151 -0.154890
C21   C     C_R   0.679375 0.017031 0.721886 -0.113208
C22   C     C_R   0.320627 0.982970 0.278114 -0.113197
C23   C     C_R   0.820118 0.516079 0.278114 -0.111750
C24   C     C_R   0.179882 0.483920 0.721885 -0.111757
C25   C     C_R   0.689264 0.064076 0.562968 0.005494
C26   C     C_R   0.310740 0.935939 0.437034 0.005485
C27   C     C_R   0.809132 0.541130 0.437455 -0.025258
C28   C     C_R   0.190868 0.458883 0.562544 -0.025261
C29   C     C_R   0.718437 0.050833 0.662104 -0.070224
C30   C     C_R   0.281566 0.949179 0.337898 -0.070223
C31   C     C_R   0.780117 0.528180 0.338143 -0.099644
C32   C     C_R   0.219884 0.471823 0.661856 -0.099671
C33   C     C_R   0.613252 0.989806 0.683976 -0.112337
C34   C     C_R   0.386750 0.010189 0.316021 -0.112323
C35   C     C_R   0.886793 0.510257 0.315678 -0.113823
C36   C     C_R   0.113208 0.489745 0.684322 -0.113816
C37   C     C_R   0.583283 0.996816 0.586116 0.085672
C38   C     C_R   0.416720 0.003181 0.413881 0.085674
C39   C     C_R   0.916659 0.502322 0.413399 0.089253
C40   C     C_R   0.083340 0.497683 0.586601 0.089254
C41   C     C_R   0.620816 0.056698 0.527445 0.045322
C42   C     C_R   0.379188 0.943307 0.472554 0.045279
C43   C     C_R   0.877834 0.536159 0.474344 0.011139
C44   C     C_R   0.122165 0.463850 0.525656 0.011135
C45   C     C_R   0.515691 0.965584 0.546372 -0.019186
C46   C     C_R   0.484313 0.034411 0.453624 -0.019144
C47   C     C_R   0.984891 0.477257 0.451591 -0.017361
C48   C     C_R   0.015109 0.522747 0.548410 -0.017364
C49   C     C_R   0.521845 0.134231 0.405324 0.256010
C50   C     C_R   0.478160 0.865762 0.594671 0.256071
C51   C     C_R   0.975601 0.591829 0.602836 0.238546
C52   C     C_R   0.024398 0.408174 0.397165 0.238549
C53   C     C_R   0.588786 0.130204 0.438446 -0.090684
C54   C     C_R   0.411218 0.869796 0.561552 -0.090614
C55   C     C_R   0.908949 0.577245 0.569309 -0.123256
C56   C     C_R   0.091050 0.422762 0.430691 -0.123263
H5    H     H_    0.615385 0.205560 0.398528 0.184136
H6    H     H_    0.384619 0.794442 0.601470 0.184173
H7    H     H_    0.882294 0.617264 0.617401 0.214046
H8    H     H_    0.117705 0.382741 0.382599 0.214040
H9    H     H_    0.415212 0.019361 0.267077 0.159664
H10   H     H_    0.584790 0.980626 0.732919 0.159688
H11   H     H_    0.084904 0.475081 0.733133 0.150001
H12   H     H_    0.915096 0.524919 0.266867 0.150000
C57   C     C_2   0.937765 0.653121 0.008289 0.366463
H13   H     H_    0.955736 0.560165 0.067942 0.052648
O21   O     O_2   0.895094 0.602081 0.939189 -0.507010
C58   C     C_2   0.062235 0.346879 0.991711 0.366464
H14   H     H_    0.044264 0.439835 0.932058 0.052652
O22   O     O_2   0.104906 0.397919 0.060810 -0.507011
C59   C     C_2   0.584933 0.210688 0.102949 0.455420
H15   H     H_    0.636401 0.231177 0.130362 0.044676
O23   O     O_2   0.562647 0.063853 0.120437 -0.509217
C60   C     C_2   0.415049 0.789205 0.896941 0.455361
H16   H     H_    0.363569 0.768807 0.869653 0.044698
O24   O     O_2   0.437339 0.935872 0.879246 -0.509109
C61   C     C_2   0.210979 0.927553 0.294256 0.411753
H17   H     H_    0.186052 0.016873 0.235935 0.065638
O25   O     O_2   0.180961 0.803119 0.318401 -0.533300
C62   C     C_2   0.789023 0.072466 0.705749 0.411765
H18   H     H_    0.813951 0.983145 0.764069 0.065631
O26   O     O_2   0.819040 0.196905 0.681607 -0.533297
C63   C     C_2   0.291229 0.461682 0.705698 0.458552
H19   H     H_    0.312303 0.512117 0.776906 -0.017128
O27   O     O_2   0.327127 0.391247 0.665183 -0.487048
C64   C     C_2   0.708772 0.538313 0.294301 0.458461
H20   H     H_    0.687696 0.487805 0.223107 -0.017090
O28   O     O_2   0.672878 0.608822 0.334799 -0.487041
C65   C     C_2   0.730022 0.071346 0.496791 0.415901
H21   H     H_    0.778775 0.123555 0.519002 0.096307
O29   O     O_2   0.710383 0.010066 0.416616 -0.500070
C66   C     C_2   0.269983 0.928687 0.503213 0.415929
H22   H     H_    0.221227 0.876497 0.481003 0.096305
O30   O     O_2   0.289626 0.989962 0.583389 -0.500053
C67   C     C_2   0.767026 0.551625 0.501073 0.511174
H23   H     H_    0.727921 0.453585 0.492579 0.049846
O31   O     O_2   0.772724 0.675615 0.558999 -0.530316
C68   C     C_2   0.232971 0.448400 0.498923 0.511189
H24   H     H_    0.272070 0.546460 0.507408 0.049851
O32   O     O_2   0.227278 0.324402 0.441002 -0.530319
Br1   Br    Br    0.487667 0.316219 0.307601 -0.539349
Br2   Br    Br    0.512337 0.683762 0.692388 -0.539217
Br3   Br    Br    0.005008 0.750257 0.712422 -0.564099
Br4   Br    Br    0.994991 0.249739 0.287581 -0.564098

loop_
_geom_bond_atom_site_label_1
_geom_bond_atom_site_label_2
_ccdc_geom_bond_type
O17   V3    S    
C55   H7    S    
O1    C5    A    
C68   H24   S    
C52   Br4   S    
C27   C31   A    
O19   V1    S    
O13   V1    S    
C45   C46   A    
O3    C7    A    
C63   H19   S    
C10   C14   A    
C48   C51   A    
C52   C56   A    
O4    V2    S    
O15   V3    S    
C64   H20   S    
C21   C29   A    
C67   H23   S    
C66   H22   S    
O7    C3    A    
C61   O25   D    
C57   H13   S    
C14   C58   S    
C8    C17   S    
C36   C40   A    
O9    V1    S    
C15   C59   S    
C26   C66   S    
C65   O29   D    
O16   V4    S    
O4    C8    A    
C25   C65   S    
C67   O31   D    
C2    C23   S    
C38   C46   A    
C34   H9    S    
O1    V3    S    
C37   C45   A    
C62   H18   S    
C12   C19   A    
O2    V4    S    
C14   C18   A    
O3    V1    S    
C24   C32   A    
C1    O15   A    
C13   C57   S    
C2    O16   A    
C28   C44   A    
C46   C49   A    
C58   O22   D    
C35   H12   S    
O2    C6    A    
C45   C50   A    
O14   V2    S    
C28   C68   S    
C11   C15   A    
C47   C52   A    
C43   C55   A    
C23   C35   A    
C40   C44   A    
C5    C20   S    
O11   C7    A    
C6    C19   S    
C25   C41   A    
O12   C8    A    
C7    C18   S    
C9    C18   A    
C1    C24   S    
O10   V2    S    
C11   C20   A    
C66   O30   D    
C4    C21   S    
O5    V1    S    
C27   C67   S    
C21   C33   A    
C34   C38   A    
O8    V4    S    
C12   H4    S    
O7    V3    S    
C24   C36   A    
C25   C29   A    
O18   V4    S    
C54   H6    S    
C9    H1    S    
C28   C32   A    
C22   C30   A    
C11   H3    S    
C47   C48   A    
C35   C39   A    
O5    C1    A    
C50   C54   A    
C59   H15   S    
C26   C42   A    
C49   C53   A    
O8    C4    A    
C51   Br3   S    
C58   H14   S    
O9    C5    A    
C63   O27   D    
C10   C17   A    
C49   Br1   S    
C40   C48   A    
C60   O24   D    
C44   C56   A    
O6    V2    S    
C22   C34   A    
C12   C16   A    
C23   C31   A    
C33   H10   S    
C26   C30   A    
C3    O13   A    
C68   O32   D    
C59   O23   D    
C10   H2    S    
C56   H8    S    
O6    C2    A    
C64   O28   D    
O11   V3    S    
O12   V4    S    
C61   H17   S    
C30   C61   S    
C9    C13   A    
O10   C6    A    
O20   V2    S    
C50   Br2   S    
C3    C22   S    
C65   H21   S    
C51   C55   A    
C38   C42   A    
C31   C64   S    
C37   C41   A    
C62   O26   D    
C39   C43   A    
C60   H16   S    
C42   C54   A    
C27   C43   A    
C41   C53   A    
C33   C37   A    
C29   C62   S    
C39   C47   A    
C57   O21   D    
C4    O14   A    
C32   C63   S    
C13   C17   A    
C36   H11   S    
C15   C19   A    
C53   H5    S    
C16   C20   A    
C16   C60   S    
