data_mof_unit_11849.cif
_audit_creation_date              2012-12-11T15:12:43-0500
_audit_creation_method            fapswitch 2.2
_symmetry_space_group_name_H-M    P1
_symmetry_Int_Tables_number       1
_space_group_crystal_system       triclinic
_cell_length_a                    22.332646
_cell_length_b                    6.959846
_cell_length_c                    19.550737
_cell_angle_alpha                 89.999929
_cell_angle_beta                  98.622735
_cell_angle_gamma                 90.000291
_cell_volume                      3004.45807156

loop_
_atom_site_label
_atom_site_type_symbol
_atom_type_description
_atom_site_fract_x
_atom_site_fract_y
_atom_site_fract_z
_atom_type_partial_charge
O1    O     O_R   0.448420 0.506120 0.415750 -0.528861
O2    O     O_R   0.551580 0.006120 0.584250 -0.528874
O3    O     O_R   0.436490 0.174470 0.555610 -0.541552
O4    O     O_R   0.563510 0.674470 0.444390 -0.541575
C1    C     C_R   0.423133 0.343542 0.578117 0.720195
C2    C     C_R   0.576865 0.843542 0.421881 0.720221
O5    O     O_R   0.441310 0.176330 0.414520 -0.545670
O6    O     O_R   0.558690 0.676330 0.585480 -0.545679
O7    O     O_R   0.556430 0.007110 0.442150 -0.513137
O8    O     O_R   0.443570 0.507110 0.557850 -0.513128
C3    C     C_R   0.425268 0.345496 0.389956 0.675228
C4    C     C_R   0.574731 0.845497 0.610045 0.675210
O9    O     O_3   0.537770 0.339560 0.509230 -0.356224
O10   O     O_3   0.462230 0.839560 0.490770 -0.356179
V1    V     V_3+5 0.492990 0.064280 0.498290 1.570202
V2    V     V_3+5 0.507010 0.564280 0.501710 1.570169
C5    C     C_R   0.867863 0.072952 0.706362 -0.093821
C6    C     C_R   0.132146 0.573076 0.293627 -0.093832
H1    H     H_    0.950982 0.105046 0.774465 0.136334
H2    H     H_    0.049031 0.605182 0.225520 0.136336
H3    H     H_    0.887969 0.139596 0.665389 0.174663
H4    H     H_    0.112048 0.639791 0.334590 0.174678
C7    C     C_R   0.885235 0.949265 0.822725 -0.071468
C8    C     C_R   0.114763 0.449277 0.177278 -0.071470
C9    C     C_R   0.594085 0.817691 0.735506 -0.138608
C10   C     C_R   0.405905 0.317575 0.264499 -0.138610
C11   C     C_R   0.628961 0.836089 0.800017 -0.070142
C12   C     C_R   0.371025 0.335904 0.199987 -0.070148
C13   C     C_R   0.690200 0.878903 0.805651 -0.093360
C14   C     C_R   0.309789 0.378754 0.194352 -0.093367
C15   C     C_R   0.719368 0.895221 0.746802 0.081269
C16   C     C_R   0.280627 0.395180 0.253202 0.081270
C17   C     C_R   0.682570 0.898971 0.679941 0.005057
C18   C     C_R   0.317429 0.398993 0.320059 0.005095
C19   C     C_R   0.783384 0.926692 0.753788 0.034939
C20   C     C_R   0.216613 0.426689 0.246216 0.034952
C21   C     C_R   0.806784 0.014192 0.697580 0.053680
C22   C     C_R   0.193220 0.514269 0.302414 0.053703
C23   C     C_R   0.769852 0.034215 0.632679 -0.063061
C24   C     C_R   0.230156 0.534324 0.367312 -0.063082
C25   C     C_R   0.710391 0.958635 0.622417 -0.083135
C26   C     C_R   0.289615 0.458734 0.377578 -0.083155
C27   C     C_R   0.825401 0.876271 0.814443 0.075607
C28   C     C_R   0.174590 0.376230 0.185570 0.075608
C29   C     C_R   0.905180 0.049064 0.768775 -0.174424
C30   C     C_R   0.094827 0.549157 0.231217 -0.174395
C31   C     C_R   0.618803 0.853380 0.675062 -0.091167
C32   C     C_R   0.381194 0.353367 0.324939 -0.091160
H5    H     H_    0.546366 0.784180 0.732804 0.139299
H6    H     H_    0.453621 0.284025 0.267202 0.139295
H7    H     H_    0.713800 0.909041 0.856796 0.167004
H8    H     H_    0.286186 0.408831 0.143204 0.166999
H9    H     H_    0.608089 0.820368 0.846243 0.165716
H10   H     H_    0.391891 0.320094 0.153761 0.165713
C33   C     C_3   0.815053 0.796132 0.269839 -0.055523
C34   C     C_3   0.184943 0.296132 0.730156 -0.055514
C35   C     C_3   0.768515 0.118043 0.229361 -0.350996
C36   C     C_3   0.231479 0.618049 0.770630 -0.350984
C37   C     C_3   0.728732 0.091324 0.287798 -0.018381
C38   C     C_3   0.271264 0.591331 0.712196 -0.018389
H11   H     H_    0.742279 0.195764 0.185036 0.189944
H12   H     H_    0.257712 0.695780 0.814954 0.189948
H13   H     H_    0.808291 0.209571 0.248587 0.176979
H14   H     H_    0.191702 0.709568 0.751401 0.176976
H15   H     H_    0.757568 0.125413 0.337651 0.166155
H16   H     H_    0.242430 0.625423 0.662341 0.166132
C39   C     C_1   0.622186 0.850223 0.375942 -0.052890
C40   C     C_1   0.377811 0.350226 0.624053 -0.052980
C41   C     C_3   0.789221 0.918596 0.204814 0.131060
C42   C     C_3   0.210775 0.418602 0.795179 0.131062
C43   C     C_3   0.763831 0.751878 0.314821 -0.240547
C44   C     C_3   0.236164 0.251886 0.685172 -0.240540
C45   C     C_3   0.706504 0.878618 0.289945 0.026530
C46   C     C_3   0.293492 0.378626 0.710048 0.026538
C47   C     C_3   0.680742 0.809241 0.214520 -0.204884
C48   C     C_3   0.319252 0.309247 0.785474 -0.204868
C49   C     C_3   0.731759 0.813867 0.167041 -0.069114
C50   C     C_3   0.268238 0.313884 0.832954 -0.069126
C51   C     C_1   0.660045 0.858568 0.337392 0.060385
C52   C     C_1   0.339950 0.358574 0.662602 0.060359
C53   C     C_1   0.836179 0.935924 0.158195 0.043805
C54   C     C_1   0.163818 0.435929 0.841800 0.043798
C55   C     C_1   0.874727 0.943181 0.120467 -0.122149
C56   C     C_1   0.125271 0.443184 0.879530 -0.122162
H17   H     H_    0.744831 0.662318 0.158367 0.135713
H18   H     H_    0.255166 0.162336 0.841633 0.135712
H19   H     H_    0.667259 0.657012 0.217702 0.180184
H20   H     H_    0.332732 0.157016 0.782292 0.180181
H21   H     H_    0.830876 0.655938 0.251647 0.128115
H22   H     H_    0.169123 0.155936 0.748350 0.128110
H23   H     H_    0.750815 0.599483 0.304549 0.175199
H24   H     H_    0.249181 0.099490 0.695441 0.175199
O11   O     O_R   0.056480 0.288780 0.942210 -0.536034
O12   O     O_R   0.943520 0.788780 0.057790 -0.536033
O13   O     O_R   0.058700 0.616820 0.085490 -0.540031
O14   O     O_R   0.941300 0.116820 0.914510 -0.540034
C57   C     C_R   0.073785 0.448711 0.110640 0.732015
C58   C     C_R   0.926213 0.948710 0.889361 0.732021
O15   O     O_R   0.063520 0.618570 0.944410 -0.537576
O16   O     O_R   0.936480 0.118570 0.055590 -0.537576
O17   O     O_R   0.948420 0.787670 0.915740 -0.528683
O18   O     O_R   0.051580 0.287670 0.084260 -0.528678
C59   C     C_R   0.079036 0.450303 0.924283 0.734325
C60   C     C_R   0.920963 0.950302 0.075716 0.734336
O19   O     O_3   0.962260 0.453430 0.990800 -0.361871
O20   O     O_3   0.037740 0.953430 0.009200 -0.361866
V3    V     V_3+5 0.007000 0.728750 0.001710 1.521548
V4    V     V_3+5 0.993000 0.228750 0.998290 1.521546
I1    I     I_    0.897758 0.921843 0.325234 -0.374993
I2    I     I_    0.102235 0.421822 0.674763 -0.374994
I3    I     I_    0.657531 0.302061 0.285881 -0.459212
I4    I     I_    0.342466 0.802068 0.714116 -0.459215
I5    I     I_    0.703458 0.914766 0.061511 -0.364894
I6    I     I_    0.296540 0.414808 0.938480 -0.364925
C61   C     C_2   0.794051 0.124913 0.573427 0.502746
H25   H     H_    0.792082 0.048363 0.524883 0.060276
O21   O     O_2   0.813508 0.289131 0.577667 -0.494155
C62   C     C_2   0.205963 0.625054 0.426561 0.502736
H26   H     H_    0.207935 0.548524 0.475110 0.060220
O22   O     O_2   0.186510 0.789275 0.422315 -0.494150
C63   C     C_2   0.623774 0.914311 0.183891 0.531347
H27   H     H_    0.626059 0.059833 0.164814 0.111148
O23   O     O_2   0.574536 0.835075 0.179091 -0.504441
C64   C     C_2   0.376224 0.414304 0.816101 0.531352
H28   H     H_    0.373943 0.559829 0.835177 0.111156
O24   O     O_2   0.425460 0.335055 0.820902 -0.504442
I7    I     I_    0.808250 0.652930 0.885022 -0.360735
I8    I     I_    0.191719 0.152755 0.115037 -0.360746
C65   C     C_2   0.678594 0.945226 0.550953 0.338909
H29   H     H_    0.662161 0.806714 0.531174 0.038353
O25   O     O_2   0.671304 0.087604 0.514126 -0.514965
C66   C     C_2   0.321418 0.445412 0.449040 0.338981
H30   H     H_    0.337826 0.306905 0.468849 0.038270
O26   O     O_2   0.328742 0.587856 0.485829 -0.514891
C67   C     C_2   0.784961 0.764805 0.391966 0.500808
H31   H     H_    0.798995 0.901042 0.415904 0.061926
O27   O     O_2   0.785944 0.621762 0.428285 -0.489888
C68   C     C_2   0.215033 0.264821 0.608027 0.500784
H32   H     H_    0.201000 0.401060 0.584090 0.061913
O28   O     O_2   0.214050 0.121780 0.571706 -0.489882

loop_
_geom_bond_atom_site_label_1
_geom_bond_atom_site_label_2
_ccdc_geom_bond_type
C40   C52   T    
C24   C62   S    
C36   H12   S    
C7    C29   A    
C11   C13   A    
C33   H21   S    
C41   C49   S    
O1    C3    A    
O2    C4    A    
O11   C59   A    
C2    O7    A    
C67   H31   S    
C23   C25   A    
O5    C3    A    
O19   V3    S    
C46   C48   S    
C16   C20   A    
C19   C21   A    
C5    C29   A    
C10   H6    S    
O11   V4    S    
C43   C67   S    
C44   H24   S    
C35   C37   S    
C42   C50   S    
O20   V3    S    
C36   C38   S    
C61   H25   S    
O16   C60   A    
C7    C27   A    
C62   H26   S    
C18   C26   A    
C34   C44   S    
O14   C58   A    
C37   I3    S    
C15   C17   A    
O18   V4    S    
C14   C16   A    
C19   C27   A    
C9    C31   A    
C57   O18   A    
C10   C32   A    
C50   H18   S    
C44   C68   S    
O14   V4    S    
C49   H17   S    
O6    V2    S    
C46   C52   S    
C11   H9    S    
C33   I1    S    
C13   C15   A    
C45   C47   S    
C3    C32   S    
C50   I6    S    
C4    C31   S    
C49   I5    S    
O12   C60   A    
C6    C30   A    
C34   I2    S    
C53   C55   T    
C1    C40   S    
C35   H13   S    
C9    H5    S    
C36   H14   S    
O19   V4    S    
O12   V3    S    
O16   V4    S    
C55   C60   S    
C8    C57   S    
C48   C64   S    
C39   C51   T    
C34   H22   S    
C44   C46   S    
O15   C59   A    
C27   I7    S    
C43   C45   S    
C12   H10   S    
C36   C42   S    
O5    V1    S    
C61   O21   D    
C5    H3    S    
C48   H20   S    
C16   C18   A    
C33   C43   S    
O4    V2    S    
C38   I4    S    
C25   C65   S    
O6    C4    A    
O13   C57   A    
C45   C51   S    
O1    V2    S    
C5    C21   A    
C23   C61   S    
O2    V1    S    
C47   C49   S    
C63   H27   S    
C33   C41   S    
O13   V3    S    
O4    C2    A    
C2    C39   S    
C47   C63   S    
C34   C42   S    
O9    V1    S    
C17   C31   A    
C15   C19   A    
C20   C28   A    
C18   C32   A    
C20   C22   A    
O3    V1    S    
C64   O24   D    
C65   H29   S    
C13   H7    S    
C47   H19   S    
C67   O27   D    
C14   H8    S    
C28   I8    S    
C6    H4    S    
C10   C12   A    
C48   C50   S    
C24   C26   A    
O3    C1    A    
H1    C29   S    
C35   H11   S    
C68   O28   D    
C9    C11   A    
C58   O17   A    
O15   V3    S    
C54   C56   T    
C8    C30   A    
C12   C14   A    
C6    C22   A    
C17   C25   A    
C1    O8    A    
C21   C23   A    
O8    V2    S    
C37   H15   S    
C22   C24   A    
O20   V4    S    
C8    C28   A    
C38   C46   S    
C66   H30   S    
O10   V2    S    
O7    V1    S    
C37   C45   S    
C42   C54   S    
C62   O22   D    
C63   O23   D    
C41   C53   S    
C68   H32   S    
C38   H16   S    
C7    C58   S    
C43   H23   S    
C66   O26   D    
O9    V2    S    
O17   V3    S    
C56   C59   S    
O10   V1    S    
C26   C66   S    
C35   C41   S    
H2    C30   S    
C64   H28   S    
C65   O25   D    
