data_mof_unit_40238.cif
_audit_creation_date              2012-12-10T20:49:26-0500
_audit_creation_method            fapswitch 2.2
_symmetry_space_group_name_H-M    P1
_symmetry_Int_Tables_number       1
_space_group_crystal_system       triclinic
_cell_length_a                    15.79768
_cell_length_b                    8.932121
_cell_length_c                    8.114436
_cell_angle_alpha                 89.994881
_cell_angle_beta                  89.762864
_cell_angle_gamma                 90.015029
_cell_volume                      1144.99215994

loop_
_atom_site_label
_atom_site_type_symbol
_atom_type_description
_atom_site_fract_x
_atom_site_fract_y
_atom_site_fract_z
_atom_type_partial_charge
C1    C     C_1   0.500000 0.065197 0.500007 -0.159246
C2    C     C_3   0.971357 0.637421 0.528792 0.310206
C3    C     C_1   0.249171 0.500216 0.501525 -0.114907
C4    C     C_1   0.750829 0.499783 0.498475 -0.114906
C5    C     C_3   0.025788 0.546637 0.650315 -0.244426
C6    C     C_3   0.974212 0.453363 0.349685 -0.244426
C7    C     C_3   0.083876 0.500989 0.504660 -0.014896
C8    C     C_3   0.916124 0.499011 0.495340 -0.014896
C9    C     C_1   0.174278 0.500530 0.503156 0.189312
C10   C     C_1   0.825721 0.499470 0.496843 0.189312
C11   C     C_2   0.948869 0.401264 0.181673 0.484082
C12   C     C_1   0.500000 0.934803 0.499993 -0.159246
C13   C     C_2   0.051131 0.598736 0.818327 0.484084
C14   C     C_R   0.499999 0.218014 0.500005 0.934987
C15   C     C_R   0.500001 0.781986 0.499995 0.934987
C16   C     C_R   0.337612 0.499977 0.500342 0.889455
C17   C     C_R   0.662388 0.500023 0.499658 0.889457
C18   C     C_3   0.970752 0.407769 0.615372 0.312366
C19   C     C_3   0.029247 0.592231 0.384628 0.312366
C20   C     C_3   0.028643 0.362579 0.471207 0.310206
H1    H     H_    0.010012 0.154012 0.429617 0.360574
H2    H     H_    0.989988 0.845987 0.570383 0.360575
H3    H     H_    0.988407 0.264533 0.787547 0.349933
H4    H     H_    0.011593 0.735467 0.212453 0.349933
H5    H     H_    0.997287 0.370930 0.092683 0.090376
H6    H     H_    0.002713 0.629069 0.907317 0.090376
N1    N     N_1   0.500010 0.500000 0.073640 -0.013875
N2    N     N_1   0.499990 0.500000 0.926360 -0.013875
O1    O     O_R   0.500000 0.285340 0.636850 -0.613989
O2    O     O_3   0.939527 0.781424 0.555867 -0.728314
O3    O     O_3   0.938232 0.309483 0.733864 -0.711322
O4    O     O_3   0.061767 0.690517 0.266136 -0.711322
O5    O     O_2   0.874340 0.392656 0.144115 -0.533037
O6    O     O_2   0.125660 0.607344 0.855885 -0.533038
O7    O     O_R   0.500000 0.714660 0.363150 -0.613989
O8    O     O_R   0.500000 0.285340 0.363150 -0.613538
O9    O     O_R   0.500000 0.714660 0.636850 -0.613537
O10   O     O_R   0.376770 0.500000 0.636850 -0.603458
O11   O     O_R   0.623230 0.500000 0.363150 -0.603458
O12   O     O_R   0.376780 0.500000 0.363100 -0.607009
O13   O     O_R   0.623220 0.500000 0.636900 -0.607009
O14   O     O_3   0.060473 0.218576 0.444133 -0.728314
Zn1   Zn    Zn3+2 0.499990 0.500000 0.682780 1.036723
Zn2   Zn    Zn3+2 0.500010 0.500000 0.317220 1.036724

loop_
_geom_bond_atom_site_label_1
_geom_bond_atom_site_label_2
_ccdc_geom_bond_type
O9    Zn1   S    
C20   O14   S    
H4    O4    S    
O11   Zn2   S    
C3    C9    T    
C11   O5    D    
C6    C20   S    
N2    Zn1   S    
C18   C20   S    
C12   C15   S    
O12   Zn2   S    
C2    O2    S    
C5    C18   S    
C5    C7    S    
O10   Zn1   S    
O1    Zn1   S    
O7    Zn2   S    
O13   Zn1   S    
C1    C12   T    
C16   O12   A    
C19   O4    S    
C15   O7    A    
C18   O3    S    
C6    C19   S    
C7    C19   S    
C14   O8    A    
C17   O13   A    
C13   H6    S    
O8    Zn2   S    
C2    C5    S    
C4    C17   S    
C14   O1    A    
C4    C10   T    
H1    O14   S    
C13   O6    D    
C8    C10   S    
C7    C20   S    
C17   O11   A    
C2    C8    S    
C6    C11   S    
C7    C9    S    
C11   H5    S    
C15   O9    A    
C6    C8    S    
C1    C14   S    
H2    O2    S    
C2    C19   S    
C5    C13   S    
N1    Zn2   S    
C8    C18   S    
C3    C16   S    
C16   O10   A    
N1    N2    T    
H3    O3    S    
