data_mof_unit_48367.cif
_audit_creation_date              2012-12-11T17:57:11-0500
_audit_creation_method            fapswitch 2.2
_symmetry_space_group_name_H-M    P1
_symmetry_Int_Tables_number       1
_space_group_crystal_system       triclinic
_cell_length_a                    8.21701
_cell_length_b                    12.940816
_cell_length_c                    17.344291
_cell_angle_alpha                 99.742837
_cell_angle_beta                  96.720823
_cell_angle_gamma                 99.034086
_cell_volume                      1775.5087854

loop_
_atom_site_label
_atom_site_type_symbol
_atom_type_description
_atom_site_fract_x
_atom_site_fract_y
_atom_site_fract_z
_atom_type_partial_charge
Ba1   Ba    Ba6+2 0.843240 0.548600 0.461650 1.689474
Ba2   Ba    Ba6+2 0.346590 0.451490 0.538360 1.691064
C1    C     C_3   0.528955 0.847729 0.149015 -0.275060
C2    C     C_3   0.369301 0.515947 0.215970 0.094011
C3    C     C_2   0.300129 0.505319 0.130547 -0.146732
C4    C     C_3   0.035914 0.748093 0.247965 0.421161
C5    C     C_2   0.133875 0.475428 0.108223 0.002568
C6    C     C_2   0.027609 0.448435 0.170601 -0.132452
C7    C     C_1   0.094605 0.463896 0.246924 0.061725
C8    C     C_R   0.884079 0.464087 0.860429 -0.132945
C9    C     C_R   0.817933 0.452969 0.781346 0.008630
C10   C     C_R   0.078849 0.543487 0.752716 0.065539
C11   C     C_R   0.147096 0.554872 0.833172 -0.062219
C12   C     C_3   0.487189 0.762671 0.198011 0.307438
C13   C     C_R   0.051308 0.512121 0.887478 0.014270
C14   C     C_2   0.056394 0.466807 0.024339 -0.074853
C15   C     C_2   0.126710 0.520752 0.971877 -0.072210
C16   C     C_3   0.990372 0.762430 0.163244 -0.285947
C17   C     C_R   0.916136 0.488844 0.727398 -0.288963
C18   C     C_R   0.769761 0.183404 0.541267 -0.239408
C19   C     C_R   0.428235 0.808371 0.466893 -0.273334
C20   C     C_R   0.391101 0.983573 0.446159 -0.025591
C21   C     C_R   0.329916 0.874733 0.436401 -0.018797
C22   C     C_R   0.582938 0.849935 0.513719 0.040012
C23   C     C_3   0.373538 0.224766 0.294012 0.207218
C24   C     C_R   0.645753 0.962775 0.526442 -0.047720
C25   C     C_R   0.548774 0.029649 0.490163 -0.037205
C26   C     C_R   0.612626 0.140650 0.498034 0.018159
C27   C     C_R   0.868863 0.119267 0.574628 0.021038
C28   C     C_3   0.257423 0.780836 0.630007 0.302021
C29   C     C_R   0.805014 0.010351 0.570056 -0.054835
C30   C     C_3   0.292335 0.901811 0.648328 -0.366102
C31   C     C_3   0.900497 0.207170 0.345171 0.247045
C32   C     C_3   0.818066 0.094283 0.303124 -0.245271
C33   C     C_3   0.777994 0.708270 0.698319 0.289129
C34   C     C_3   0.312193 0.153807 0.211817 -0.186675
C35   C     C_3   0.812543 0.743754 0.788285 -0.212153
C36   C     C_2   0.811545 0.017319 0.357410 0.854067
C37   C     C_2   0.964596 0.829424 0.813556 0.899663
C38   C     C_2   0.463693 0.329812 0.283583 0.788220
C39   C     C_2   0.241182 0.043270 0.217885 0.885301
C40   C     C_3   0.072425 0.208457 0.757727 0.290494
C41   C     C_3   0.167192 0.235690 0.841404 -0.299437
C42   C     C_3   0.606367 0.190652 0.729947 0.387037
C43   C     C_3   0.629644 0.104515 0.777801 -0.379073
C44   C     C_2   0.239577 0.527765 0.269865 -0.253452
H1    H     H_    0.445149 0.796740 0.253452 0.061719
H2    H     H_    0.676718 0.637278 0.684062 0.052199
H3    H     H_    0.625096 0.914316 0.183617 0.158543
H4    H     H_    0.829550 0.674239 0.815997 0.000721
H5    H     H_    0.703527 0.774251 0.809670 0.079098
H6    H     H_    0.384591 0.702939 0.161407 -0.048495
H7    H     H_    0.415519 0.878942 0.130142 0.087749
H8    H     H_    0.261939 0.235137 0.322661 -0.034871
H9    H     H_    0.217797 0.189070 0.178456 0.029251
H10   H     H_    0.417376 0.147829 0.177349 0.083531
H11   H     H_    0.576990 0.812670 0.095144 0.097186
H12   H     H_    0.416148 0.929761 0.684693 0.104900
H13   H     H_    0.100349 0.803911 0.142211 0.114060
H14   H     H_    0.032629 0.282604 0.744092 -0.011832
H15   H     H_    0.961940 0.146320 0.755723 0.019330
H16   H     H_    0.271395 0.303568 0.846553 0.154948
H17   H     H_    0.082188 0.258963 0.883916 0.056681
H18   H     H_    0.217942 0.165926 0.856653 0.120984
H19   H     H_    0.729050 0.220845 0.713306 -0.133137
H20   H     H_    0.517127 0.155289 0.675122 0.067930
H21   H     H_    0.677317 0.039240 0.742141 0.103404
H22   H     H_    0.509195 0.071978 0.795400 0.136226
H23   H     H_    0.291869 0.933742 0.593056 0.078428
H24   H     H_    0.943835 0.682127 0.258414 0.113750
H25   H     H_    0.720789 0.138607 0.832130 0.120825
H26   H     H_    0.245732 0.573968 0.991037 0.076029
H27   H     H_    0.895682 0.416854 0.152927 0.127773
H28   H     H_    0.802377 0.435805 0.899743 0.069942
H29   H     H_    0.936617 0.414565 0.007015 0.075070
H30   H     H_    0.385476 0.517626 0.088393 0.071448
H31   H     H_    0.273931 0.596420 0.853237 0.091930
H32   H     H_    0.267024 0.582183 0.326525 0.063975
H33   H     H_    0.862687 0.479080 0.666015 0.067229
H34   H     H_    0.195583 0.932208 0.680801 0.153973
H35   H     H_    0.311034 0.031664 0.420936 0.131546
H36   H     H_    0.160693 0.725009 0.253402 -0.182518
H37   H     H_    0.884742 0.963026 0.596531 0.102180
H38   H     H_    0.820788 0.266434 0.543615 0.042819
H39   H     H_    0.378265 0.724126 0.458876 0.058750
H40   H     H_    0.949696 0.683099 0.123837 0.061856
H41   H     H_    0.361906 0.751579 0.603962 -0.013264
H42   H     H_    0.141768 0.754613 0.586947 0.076771
H43   H     H_    0.711185 0.872230 0.375110 0.325239
H44   H     H_    0.075274 0.979026 0.811385 0.300386
H45   H     H_    0.809240 0.246201 0.376062 0.008082
H46   H     H_    0.381845 0.411804 0.375898 0.272769
H47   H     H_    0.281489 0.912397 0.258434 0.297415
H48   H     H_    0.887790 0.808516 0.158934 0.178602
H49   H     H_    0.011145 0.207188 0.388638 0.067195
H50   H     H_    0.691241 0.094277 0.273442 0.125257
H51   H     H_    0.889041 0.065282 0.256175 0.135937
H52   H     H_    0.891434 0.686690 0.676073 -0.027354
O1    O     O_2   0.825360 0.427200 0.308020 -0.382061
O2    O     O_2   0.203804 0.122617 0.556006 -0.459806
O3    O     O_3   0.174515 0.167830 0.704981 -0.580424
O4    O     O_3   0.099050 0.435020 0.406000 -0.523536
O5    O     O_3   0.588300 0.633530 0.539940 -0.485590
O6    O     O_2   0.332090 0.232110 0.462130 -0.473496
O7    O     O_3   0.484627 0.176871 0.338317 -0.640957
O8    O     O_2   0.481242 0.462788 0.780093 -0.484297
O9    O     O_3   0.541400 0.270278 0.775774 -0.579230
O10   O     O_3   0.623690 0.628090 0.355970 -0.433188
O11   O     O_2   0.707343 0.538803 0.222289 -0.455005
O12   O     O_3   0.729717 0.791831 0.664727 -0.620317
O13   O     O_3   0.953514 0.259267 0.286670 -0.644540
O14   O     O_3   0.630194 0.720438 0.216979 -0.598385
O15   O     O_2   0.857620 0.767930 0.537920 -0.475230
O16   O     O_3   0.055170 0.686660 0.395490 -0.508788
O17   O     O_2   0.001633 0.873541 0.453299 -0.429955
O18   O     O_2   0.912700 0.035260 0.417272 -0.616577
O19   O     O_R   0.695618 0.922676 0.337342 -0.736160
O20   O     O_2   0.086069 0.812860 0.854297 -0.616438
O21   O     O_R   0.965900 0.928206 0.791032 -0.752766
O22   O     O_2   0.539090 0.335365 0.227331 -0.586161
O23   O     O_3   0.033886 0.841857 0.302701 -0.578898
O24   O     O_R   0.467156 0.421470 0.339085 -0.709369
O25   O     O_2   0.101668 0.001814 0.184104 -0.636665
O26   O     O_R   0.339537 0.986801 0.259555 -0.747556
O27   O     O_2   0.364350 0.572830 0.692030 -0.460598
O28   O     O_3   0.090660 0.565070 0.594010 -0.517297
O29   O     O_3   0.566030 0.372000 0.644040 -0.484077
O30   O     O_3   0.240922 0.743541 0.700351 -0.609225
O31   O     O_3   0.601410 0.366560 0.460070 -0.453942
O32   O     O_3   0.134540 0.313430 0.604520 -0.469191
P1    P     P_3+3 0.996360 0.395990 0.320310 0.994105
P2    P     P_3+3 0.688190 0.753610 0.561600 0.985248
P3    P     P_3+3 0.109130 0.821436 0.396818 0.980455
P4    P     P_3+3 0.193350 0.604100 0.679700 0.997281
P5    P     P_3+3 0.092360 0.177880 0.609423 1.001018
P6    P     P_3+3 0.576557 0.602757 0.252347 1.019696
P7    P     P_3+3 0.511431 0.229016 0.440370 0.947002
P8    P     P_3+3 0.600798 0.391722 0.746562 0.977910

loop_
_geom_bond_atom_site_label_1
_geom_bond_atom_site_label_2
_ccdc_geom_bond_type
O27   P4    D    
C4    H36   S    
O15   P2    D    
C34   C39   S    
C43   H25   S    
C14   H29   S    
C1    H7    S    
C42   H20   S    
O32   P5    S    
H47   O26   S    
C30   H12   S    
Ba1   P2    S    
Ba1   O1    S    
Ba1   O10   S    
C1    H3    S    
C23   O7    S    
C5    C6    S    
C2    C44   S    
C12   O14   S    
C9    C17   A    
C24   C25   A    
Ba2   P4    S    
C39   O26   S    
C33   C35   S    
C9    P8    S    
C22   C24   A    
O10   P6    S    
O30   P4    S    
C8    C13   A    
C31   H45   S    
C23   C38   S    
C35   H5    S    
O8    P8    D    
Ba2   O4    S    
C32   H51   S    
C29   H37   S    
O6    P7    D    
C4    H24   S    
Ba1   Ba2   S    
C36   O19   S    
C12   H6    S    
C14   C15   D    
C43   H21   S    
C18   H38   S    
O12   P2    S    
C31   O13   S    
O29   P8    S    
C33   H52   S    
O5    P2    S    
Ba1   O5    S    
O2    P5    D    
C2    P6    S    
Ba2   O29   S    
O3    P5    S    
C7    C44   D    
C10   P4    S    
O11   P6    D    
C42   H19   S    
Ba1   O15   S    
O14   P6    S    
C33   H2    S    
C31   H49   S    
C41   H18   S    
C28   O30   S    
C18   C27   A    
C7    P1    S    
C4    C16   S    
C11   H31   S    
C21   P3    S    
C41   H17   S    
C20   H35   S    
O4    P1    S    
C40   H14   S    
C3    C5    D    
C6    C7    D    
C18   C26   A    
C19   H39   S    
C34   H10   S    
H46   O24   S    
C30   H34   S    
C36   O18   D    
C22   P2    S    
Ba2   O6    S    
C43   H22   S    
C31   C32   S    
C16   H40   S    
C23   H8    S    
C17   H33   S    
C33   O12   S    
C40   H15   S    
C12   H1    S    
C1    C12   S    
O17   P3    D    
Ba2   O28   S    
O13   P1    S    
C5    C14   S    
C27   P5    S    
H43   O19   S    
C20   C25   A    
C19   C21   A    
Ba1   O28   S    
C16   H48   S    
C40   C41   S    
C28   H42   S    
C40   O3    S    
C1    H11   S    
C25   C26   A    
C42   C43   S    
C44   H32   S    
C42   O9    S    
C13   C15   S    
C38   O22   D    
C32   C36   S    
C26   P7    S    
C32   H50   S    
C2    C3    S    
Ba1   P1    S    
C30   H23   S    
C37   O20   D    
C38   O24   S    
Ba1   O31   S    
O1    P1    D    
H44   O21   S    
C39   O25   D    
C3    H30   S    
C11   C13   A    
C35   C37   S    
C34   H9    S    
C28   C30   S    
C35   H4    S    
C8    H28   S    
Ba2   O5    S    
O9    P8    S    
C37   O21   S    
C10   C17   A    
C6    H27   S    
Ba2   O32   S    
O16   P3    S    
C8    C9    A    
C23   C34   S    
O7    P7    S    
Ba2   O27   S    
C16   H13   S    
C24   C29   A    
O31   P7    S    
C10   C11   A    
O28   P4    S    
C15   H26   S    
C27   C29   A    
Ba1   O16   S    
C19   C22   A    
Ba2   O31   S    
C20   C21   A    
C4    O23   S    
O23   P3    S    
C28   H41   S    
Ba1   O4    S    
C41   H16   S    
