data_mof_unit_32798.cif
_audit_creation_date              2013-03-05T16:31:38-0500
_audit_creation_method            fapswitch 2.2
_symmetry_space_group_name_H-M    P1
_symmetry_Int_Tables_number       1
_space_group_crystal_system       triclinic
_cell_length_a                    9.549582
_cell_length_b                    10.81907
_cell_length_c                    15.513934
_cell_angle_alpha                 89.849475
_cell_angle_beta                  74.351387
_cell_angle_gamma                 89.825836
_cell_volume                      1543.44090722

loop_
_atom_site_label
_atom_site_type_symbol
_atom_site_description
_atom_site_fract_x
_atom_site_fract_y
_atom_site_fract_z
_atom_type_partial_charge
O1    O     O_R   0.118810 0.319640 0.500000 -0.575906
O2    O     O_R   0.881230 0.319680 0.499990 -0.587973
C1    C     C_R   0.000728 0.262487 0.498835 0.846226
O3    O     O_R   0.055580 0.499970 0.629840 -0.573415
O4    O     O_R   0.818000 0.500010 0.629830 -0.591899
C2    C     C_R   0.918230 0.501156 0.671972 0.840298
Cu1   Cu    Cu3+1 0.140670 0.499980 0.500000 0.983020
Cu2   Cu    Cu3+1 0.859330 0.500020 0.500000 0.961137
O5    O     O_R   0.118770 0.680320 0.500010 -0.562052
O6    O     O_R   0.881190 0.680360 0.500000 -0.578570
O7    O     O_R   0.182000 0.499990 0.370170 -0.591241
O8    O     O_R   0.944420 0.500030 0.370160 -0.591018
C3    C     C_R   0.000303 0.737676 0.499271 0.797855
C4    C     C_R   0.081800 0.499374 0.327930 0.785527
C5    C     C_R   0.872654 0.512574 0.769667 -0.026093
C6    C     C_R   0.126944 0.496211 0.229710 -0.045065
C7    C     C_R   0.917300 0.578996 0.908305 -0.208314
C8    C     C_R   0.968349 0.555239 0.817061 -0.167763
C9    C     C_R   0.727005 0.490800 0.814550 -0.212475
C10   C     C_R   0.671206 0.518788 0.905809 0.092762
C11   C     C_R   0.770008 0.561261 0.952925 0.165489
C12   C     C_R   0.520633 0.506488 0.951201 0.067993
C13   C     C_R   0.473402 0.527753 0.045194 0.069196
C14   C     C_R   0.575964 0.570425 0.089330 -0.212885
C15   C     C_R   0.720895 0.587245 0.043806 -0.227811
C16   C     C_R   0.415236 0.476803 0.905461 -0.195496
C17   C     C_R   0.269564 0.463393 0.950667 -0.220942
C18   C     C_R   0.223022 0.477502 0.043060 0.159039
C19   C     C_R   0.324476 0.507978 0.091571 0.093127
C20   C     C_R   0.075602 0.460292 0.087662 -0.202636
C21   C     C_R   0.027422 0.471228 0.180360 -0.198502
C22   C     C_R   0.273734 0.513973 0.185306 -0.243571
H1    H     H_    0.795204 0.621085 0.080242 0.146522
H2    H     H_    0.347226 0.528472 0.225874 0.144332
H3    H     H_    0.913398 0.456620 0.213472 0.154071
H4    H     H_    0.192912 0.440416 0.912860 0.163757
H5    H     H_    0.992450 0.613840 0.943699 0.144257
H6    H     H_    0.081381 0.573287 0.783295 0.159912
H7    H     H_    0.659631 0.451785 0.776177 0.143241
H8    H     H_    0.547549 0.595745 0.158898 0.134832
H9    H     H_    0.440388 0.466134 0.833964 0.144404
H10   H     H_    0.997788 0.436641 0.050914 0.149736
C23   C     C_R   0.119236 0.063492 0.510498 -0.068229
C24   C     C_R   0.005014 0.129501 0.491956 -0.037308
C25   C     C_R   0.897888 0.065151 0.463669 -0.177080
H11   H     H_    0.811799 0.113916 0.444352 0.160054
C26   C     C_R   0.897651 0.936262 0.464114 -0.161030
H12   H     H_    0.811759 0.888460 0.444815 0.157000
C27   C     C_R   0.004394 0.870975 0.492809 -0.116564
C28   C     C_R   0.119616 0.936084 0.510378 0.019573
C29   C     C_3   0.180948 0.928753 0.589477 0.385841
C30   C     C_3   0.181222 0.069467 0.589465 0.099011
H13   H     H_    0.107051 0.883837 0.649103 0.118677
H14   H     H_    0.291535 0.111515 0.572887 0.145185
C31   C     C_R   0.605531 0.540699 0.426887 0.242760
N1    N     N_R   0.648210 0.500930 0.499430 -0.184189
C32   C     C_R   0.544563 0.447661 0.568121 -0.052126
H15   H     H_    0.575369 0.406605 0.623937 0.144502
C33   C     C_R   0.395751 0.447912 0.568212 -0.058884
H16   H     H_    0.315761 0.407601 0.624130 0.170986
N2    N     N_R   0.352300 0.500890 0.499430 -0.182533
C34   C     C_R   0.458283 0.540477 0.426815 0.251908
C35   C     C_3   0.469578 0.665879 0.385616 -0.461856
C36   C     C_3   0.628229 0.666486 0.386252 -0.489651
H17   H     H_    0.454682 0.664136 0.317117 0.170690
H18   H     H_    0.402786 0.736034 0.430699 0.276431
H19   H     H_    0.704857 0.665618 0.318101 0.184855
H20   H     H_    0.651584 0.736220 0.432715 0.231749
F1    F     F_    0.320351 0.880388 0.566394 -0.672963
N3    N     N_R   0.080408 0.122854 0.669178 0.111301
O9    O     O_R   0.124294 0.211326 0.712098 -0.372960
O10   O     O_R   0.946781 0.084125 0.697349 -0.368257

loop_
_geom_bond_atom_site_label_1
_geom_bond_atom_site_label_2
_geom_bond_distance
_ccdc_geom_bond_type
C5    C8    1.398439 A    
C31   N1    1.364434 A    
C35   H17   1.109749 S    
C9    C10   1.405124 A    
Cu2   N1    2.018506 S    
Cu1   Cu2   2.686677 S    
C26   C27   1.405332 A    
C25   H11   1.083269 S    
C6    C21   1.399169 A    
C5    C9    1.397691 A    
C16   C17   1.386525 A    
C36   H20   1.108674 S    
C18   C19   1.417879 A    
C19   C22   1.404940 A    
C20   C21   1.391921 A    
O7    C4    1.297459 A    
C23   C30   1.499102 S    
C32   C33   1.420708 A    
C31   C34   1.406467 A    
N1    C32   1.370651 A    
O5    C3    1.291418 A    
Cu1   N2    2.018665 S    
C2    C5    1.465139 S    
C13   C14   1.416858 A    
N3    O9    1.300590 A    
C35   H18   1.109641 S    
C33   H16   1.081125 S    
O3    Cu1   1.958262 S    
C30   H14   1.113090 S    
C7    C8    1.391540 A    
C25   C26   1.394473 A    
C1    C24   1.442660 S    
C33   N2    1.368780 A    
C29   C30   1.522400 S    
C36   H19   1.111781 S    
C14   C15   1.385997 A    
O3    C2    1.298162 A    
C7    C11   1.403614 A    
O1    C1    1.292094 A    
C22   H2    1.073662 S    
Cu1   O7    1.945203 S    
C23   C24   1.394990 A    
C34   C35   1.489979 S    
C26   H12   1.079705 S    
Cu2   O8    1.958262 S    
C31   C36   1.489969 S    
C28   C29   1.497376 S    
C7    H5    1.083486 S    
C9    H7    1.075246 S    
C3    C27   1.445303 S    
C10   C12   1.426746 A    
C4    C6    1.467904 S    
C13   C19   1.426559 A    
C24   C25   1.404265 A    
Cu1   O5    1.961651 S    
C11   C15   1.389766 A    
O1    Cu1   1.962878 S    
O2    Cu2   1.961650 S    
O8    C4    1.298727 A    
O6    C3    1.294537 A    
O4    Cu2   1.945200 S    
C23   C28   1.378428 A    
C17   H4    1.084021 S    
C6    C22   1.398737 A    
C18   C20   1.403832 A    
O2    C1    1.292354 A    
C8    H6    1.083229 S    
C32   H15   1.080870 S    
O4    C2    1.296710 A    
C14   H8    1.075455 S    
C21   H3    1.083232 S    
N2    C34   1.364506 A    
C30   N3    1.465573 S    
C35   C36   1.517784 S    
C10   C11   1.418491 A    
Cu2   O6    1.962878 S    
C27   C28   1.395969 A    
C12   C16   1.417105 A    
C17   C18   1.390136 A    
C12   C13   1.424441 A    
C20   H10   1.083120 S    
N3    O10   1.302452 A    
C29   F1    1.383407 S    
C29   H13   1.112381 S    
C16   H9    1.076160 S    
C15   H1    1.084510 S    
