data_mof_unit_66022.cif
_audit_creation_date              2012-12-10T19:31:16-0500
_audit_creation_method            fapswitch 2.2
_symmetry_space_group_name_H-M    P1
_symmetry_Int_Tables_number       1
_space_group_crystal_system       triclinic
_cell_length_a                    35.974737
_cell_length_b                    43.278681
_cell_length_c                    28.087973
_cell_angle_alpha                 90.00106
_cell_angle_beta                  129.737364
_cell_angle_gamma                 89.996263
_cell_volume                      33628.5922691

loop_
_atom_site_label
_atom_site_type_symbol
_atom_type_description
_atom_site_fract_x
_atom_site_fract_y
_atom_site_fract_z
_atom_type_partial_charge
C1    C     C_R   0.599752 0.250032 0.999950 0.821151
C2    C     C_R   0.463306 0.016114 0.993472 -0.182152
C3    C     C_R   0.809987 0.729737 0.666245 -0.182864
C4    C     C_R   0.310455 0.770589 0.666237 -0.182741
C5    C     C_R   0.688396 0.228524 0.333768 -0.182759
C6    C     C_R   0.690042 0.770175 0.333787 -0.182784
C7    C     C_R   0.311630 0.228628 0.666239 -0.182261
C8    C     C_R   0.816534 0.249735 0.633377 0.114794
C9    C     C_R   0.183458 0.750246 0.366619 0.114956
C10   C     C_R   0.183336 0.249834 0.366610 0.115185
C11   C     C_R   0.816524 0.750195 0.633374 0.114944
C12   C     C_R   0.316489 0.749729 0.633380 0.114885
C13   C     C_R   0.463302 0.983892 0.993467 -0.182127
C14   C     C_R   0.683507 0.250193 0.366628 0.114458
C15   C     C_R   0.683521 0.749670 0.366622 0.114799
C16   C     C_R   0.316281 0.250486 0.633419 0.114942
C17   C     C_R   0.854030 0.227916 0.666165 -0.182614
C18   C     C_R   0.144660 0.771152 0.333841 -0.182822
C19   C     C_R   0.145438 0.228275 0.333806 -0.183055
C20   C     C_R   0.855800 0.770736 0.666120 -0.182548
C21   C     C_R   0.355260 0.728803 0.666153 -0.182807
C22   C     C_R   0.645861 0.271900 0.333884 -0.182531
C23   C     C_R   0.644270 0.729113 0.333832 -0.182823
C24   C     C_R   0.536698 0.016108 0.006531 -0.182094
C25   C     C_R   0.353798 0.272292 0.666228 -0.183001
C26   C     C_R   0.886352 0.227961 0.730705 -0.193360
C27   C     C_R   0.112370 0.771130 0.269308 -0.193121
C28   C     C_R   0.113185 0.228278 0.269275 -0.192806
C29   C     C_R   0.888092 0.770741 0.730659 -0.193969
C30   C     C_R   0.387566 0.728831 0.730686 -0.192398
C31   C     C_R   0.613493 0.271835 0.269358 -0.191844
C32   C     C_R   0.611968 0.729154 0.269297 -0.192000
C33   C     C_R   0.386181 0.272183 0.730761 -0.194315
C34   C     C_R   0.881625 0.249784 0.763535 -0.002862
C35   C     C_R   0.036685 0.483886 0.006507 -0.182149
C36   C     C_R   0.118370 0.750212 0.236463 -0.003422
C37   C     C_R   0.118317 0.249814 0.236445 -0.003101
C38   C     C_R   0.881629 0.750196 0.763531 -0.004167
C39   C     C_R   0.381610 0.749777 0.763537 -0.003680
C40   C     C_R   0.618374 0.250159 0.236478 -0.002879
C41   C     C_R   0.618400 0.749752 0.236465 -0.003635
C42   C     C_R   0.381581 0.250265 0.763569 -0.003370
C43   C     C_R   0.763784 0.221966 0.532053 -0.183679
C44   C     C_R   0.234348 0.778051 0.467952 -0.183464
C45   C     C_R   0.200416 0.245852 0.467737 -0.182286
C46   C     C_R   0.963315 0.516114 0.993494 -0.182145
C47   C     C_R   0.766218 0.777993 0.532040 -0.183659
C48   C     C_R   0.265585 0.721923 0.532043 -0.183419
C49   C     C_R   0.736251 0.277965 0.467925 -0.183682
C50   C     C_R   0.733792 0.721862 0.467958 -0.183576
C51   C     C_R   0.299179 0.254553 0.532347 -0.182216
C52   C     C_R   0.731574 0.222093 0.467523 -0.182312
C53   C     C_R   0.266549 0.777920 0.532469 -0.182196
C54   C     C_R   0.232551 0.246064 0.532256 -0.183895
C55   C     C_R   0.734020 0.777856 0.467519 -0.182202
C56   C     C_R   0.233387 0.722055 0.467525 -0.182207
C57   C     C_R   0.963311 0.483892 0.993489 -0.182095
C58   C     C_R   0.768475 0.277838 0.532456 -0.182323
C59   C     C_R   0.765987 0.722000 0.532482 -0.182180
C60   C     C_R   0.267056 0.254301 0.467834 -0.183721
C61   C     C_R   0.717554 0.250084 0.434925 0.106186
C62   C     C_R   0.282439 0.749850 0.565073 0.106240
C63   C     C_R   0.282212 0.250421 0.565112 0.105621
C64   C     C_R   0.717553 0.749793 0.434932 0.106303
C65   C     C_R   0.217497 0.750125 0.434924 0.106203
C66   C     C_R   0.782496 0.249845 0.565063 0.106215
C67   C     C_R   0.782468 0.750066 0.565065 0.106214
C68   C     C_R   0.036689 0.516108 0.006512 -0.182119
C69   C     C_R   0.217381 0.249956 0.434950 0.105939
C70   C     C_R   0.506996 0.614932 0.048545 0.427547
C71   C     C_R   0.493487 0.385049 0.951674 0.432877
C72   C     C_R   0.492658 0.614980 0.951025 0.429347
C73   C     C_R   0.506332 0.385147 0.048156 0.424678
C74   C     C_R   0.005181 0.114987 0.047256 0.427116
C75   C     C_R   0.994322 0.885069 0.952254 0.433252
C76   C     C_R   0.994245 0.115035 0.951957 0.427451
C77   C     C_R   0.005683 0.885137 0.047762 0.426967
C78   C     C_R   0.499999 0.334261 0.000007 0.821756
C79   C     C_R   0.500003 0.032543 0.000004 0.105293
C80   C     C_R   0.499994 0.665758 0.999986 0.820337
C81   C     C_R   0.999976 0.834272 0.999986 0.822616
C82   C     C_R   0.999953 0.165767 0.999927 0.820872
C83   C     C_R   0.505651 0.582627 0.047126 -0.279941
C84   C     C_R   0.494222 0.417329 0.952508 -0.279572
C85   C     C_R   0.493579 0.582721 0.952045 -0.282126
C86   C     C_R   0.505130 0.417438 0.046783 -0.283347
C87   C     C_R   0.004218 0.082725 0.046034 -0.284195
C88   C     C_R   0.995225 0.917361 0.953256 -0.279788
C89   C     C_R   0.995392 0.082765 0.953228 -0.280280
C90   C     C_R   0.499997 0.967457 0.999994 0.105290
C91   C     C_R   0.005174 0.917406 0.046895 -0.283210
C92   C     C_R   0.499496 0.566419 0.999462 -0.029161
C93   C     C_R   0.499587 0.433658 0.999522 -0.028050
C94   C     C_R   0.999874 0.066478 0.999664 -0.026302
C95   C     C_R   0.000316 0.933656 0.000128 -0.027466
C96   C     C_R   0.500001 0.165834 0.000001 0.786268
C97   C     C_R   0.499999 0.834166 0.999998 0.786443
C98   C     C_R   0.000001 0.665834 0.000002 0.786398
C99   C     C_R   0.999999 0.334166 0.999998 0.786268
C100  C     C_R   0.456676 0.884643 0.958277 -0.188850
C101  C     C_R   0.000003 0.532543 0.000006 0.105300
C102  C     C_R   0.543323 0.115357 0.041727 -0.188988
C103  C     C_R   0.543317 0.884639 0.041716 -0.188813
C104  C     C_R   0.456684 0.115362 0.958278 -0.188797
C105  C     C_R   0.956673 0.384643 0.958293 -0.188998
C106  C     C_R   0.043326 0.615357 0.041711 -0.188851
C107  C     C_R   0.043320 0.384638 0.041702 -0.188765
C108  C     C_R   0.956680 0.615361 0.958295 -0.188822
C109  C     C_R   0.456687 0.916870 0.958256 -0.181120
C110  C     C_R   0.543312 0.083130 0.041747 -0.181227
C111  C     C_R   0.543305 0.916865 0.041733 -0.181195
C112  C     C_R   0.400248 0.749968 0.000050 0.820891
C113  C     C_R   0.999997 0.467457 0.999996 0.105308
C114  C     C_R   0.456695 0.083135 0.958260 -0.181024
C115  C     C_R   0.956684 0.416870 0.958272 -0.181240
C116  C     C_R   0.043315 0.583130 0.041732 -0.181120
C117  C     C_R   0.043308 0.416865 0.041719 -0.181015
C118  C     C_R   0.956692 0.583135 0.958278 -0.181206
C119  C     C_R   0.499996 0.933295 0.999994 0.114188
C120  C     C_R   0.500004 0.066705 0.000004 0.114181
C121  C     C_R   0.999996 0.433295 0.999996 0.114175
C122  C     C_R   0.000004 0.566705 0.000005 0.114181
C123  C     C_R   0.499404 0.467657 0.999249 0.168594
C124  C     C_R   0.526285 0.516146 0.987204 -0.193415
C125  C     C_R   0.499364 0.532443 0.999233 0.168507
C126  C     C_R   0.000175 0.967674 0.999963 0.168905
C127  C     C_R   0.999901 0.032461 0.999684 0.168969
C128  C     C_R   0.499997 0.868223 0.999997 -0.006123
C129  C     C_R   0.500003 0.131777 0.000003 -0.006062
C130  C     C_R   0.999997 0.368222 0.999997 -0.006075
C131  C     C_R   0.000003 0.631777 0.000003 -0.006121
C132  C     C_3   0.562558 0.632155 0.147997 0.129573
C133  C     C_3   0.568925 0.633633 0.207002 -0.827481
C134  C     C_3   0.439028 0.368467 0.851256 0.129441
C135  C     C_R   0.472370 0.483956 0.011090 -0.193328
C136  C     C_3   0.434391 0.372843 0.793633 -0.832790
C137  C     C_3   0.437288 0.631818 0.851110 0.126937
C138  C     C_3   0.431684 0.632266 0.792574 -0.827081
C139  C     C_3   0.560596 0.368007 0.147589 0.132068
C140  C     C_3   0.565432 0.361725 0.204638 -0.821680
C141  C     C_3   0.057146 0.131216 0.147923 0.127972
C142  C     C_3   0.059092 0.133885 0.203495 -0.824411
C143  C     C_3   0.940444 0.868815 0.851530 0.129086
C144  C     C_3   0.936718 0.873121 0.794612 -0.832777
C145  C     C_3   0.940795 0.132556 0.852358 0.129580
C146  C     C_R   0.472352 0.516132 0.011097 -0.193908
C147  C     C_3   0.936357 0.134382 0.794794 -0.827383
C148  C     C_3   0.057790 0.868247 0.147945 0.129323
C149  C     C_3   0.060032 0.865846 0.203840 -0.825024
C150  C     C_R   0.526319 0.483976 0.987228 -0.194287
C151  C     C_R   0.026527 0.016167 0.987151 -0.193709
C152  C     C_R   0.973545 0.983941 0.012472 -0.193390
C153  C     C_R   0.973388 0.016102 0.012316 -0.193684
C154  C     C_R   0.026620 0.984004 0.987241 -0.193972
C155  C     C_R   0.499944 0.631574 0.999868 -0.255546
C156  C     C_R   0.400249 0.250032 0.000053 0.820931
C157  C     C_R   0.499996 0.368475 0.999997 -0.255379
C158  C     C_R   0.999804 0.131615 0.999720 -0.254791
C159  C     C_R   0.000026 0.868490 0.000062 -0.255400
C160  C     C_3   0.742576 0.721131 0.009871 -0.161901
C161  C     C_3   0.257216 0.278833 0.989712 -0.161842
C162  C     C_3   0.260777 0.720755 0.996836 -0.161368
C163  C     C_3   0.738084 0.279285 0.000879 -0.161169
C164  C     C_3   0.242782 0.221167 0.010286 -0.161749
C165  C     C_3   0.757427 0.778870 0.990134 -0.161758
C166  C     C_3   0.761919 0.220712 0.999126 -0.161071
C167  C     C_R   0.599751 0.749967 0.999948 0.820741
C168  C     C_3   0.239223 0.779245 0.003165 -0.161311
C169  C     C_3   0.289916 0.240048 0.055190 -0.163472
C170  C     C_3   0.710157 0.760152 0.944958 -0.163338
C171  C     C_3   0.712038 0.235753 0.948728 -0.163958
C172  C     C_3   0.288498 0.763236 0.052346 -0.163749
C173  C     C_3   0.789846 0.739849 0.055048 -0.163469
C174  C     C_3   0.210083 0.259952 0.944808 -0.163478
C175  C     C_3   0.211503 0.736764 0.947655 -0.163830
C176  C     C_3   0.787965 0.264244 0.051276 -0.164070
C177  C     C_1   0.360539 0.250054 0.000097 -0.142465
C178  C     C_R   0.099752 0.750032 0.999950 0.821171
C179  C     C_1   0.639462 0.749946 0.999904 -0.142526
C180  C     C_1   0.639465 0.250050 0.999910 -0.142549
C181  C     C_1   0.360536 0.749950 0.000091 -0.142542
C182  C     C_1   0.860539 0.750054 0.000097 -0.142461
C183  C     C_1   0.139461 0.249946 0.999902 -0.142438
C184  C     C_1   0.139464 0.750050 0.999909 -0.142460
C185  C     C_1   0.860536 0.249949 0.000091 -0.142396
C186  C     C_3   0.240034 0.231148 0.955144 -0.160607
C187  C     C_3   0.760104 0.768690 0.045131 -0.160587
C188  C     C_3   0.762717 0.234985 0.050353 -0.160971
C189  C     C_R   0.900248 0.249968 0.000050 0.821093
C190  C     C_3   0.237891 0.765982 0.950865 -0.160794
C191  C     C_3   0.739899 0.731311 0.954875 -0.160525
C192  C     C_3   0.259965 0.268852 0.044854 -0.160621
C193  C     C_3   0.262109 0.734017 0.049136 -0.160718
C194  C     C_3   0.737286 0.265013 0.949651 -0.160905
C195  C     C_3   0.286513 0.250025 0.000048 0.201286
C196  C     C_3   0.713488 0.749976 0.999954 0.201223
C197  C     C_3   0.713488 0.250019 0.999955 0.201380
C198  C     C_3   0.286512 0.749979 0.000046 0.201247
C199  C     C_3   0.786515 0.750025 0.000051 0.201204
C200  C     C_R   0.900249 0.750032 0.000053 0.821192
C201  C     C_3   0.213485 0.249975 0.999950 0.201279
C202  C     C_3   0.213488 0.750020 0.999955 0.201231
C203  C     C_3   0.786514 0.249978 0.000049 0.201360
C204  C     C_1   0.327116 0.250052 0.000093 -0.084387
C205  C     C_1   0.672884 0.749949 0.999909 -0.084354
C206  C     C_1   0.672887 0.250046 0.999914 -0.084417
C207  C     C_1   0.327113 0.749953 0.000087 -0.084337
C208  C     C_1   0.827118 0.750052 0.000095 -0.084261
C209  C     C_1   0.172883 0.249948 0.999906 -0.084283
C210  C     C_1   0.172887 0.750046 0.999914 -0.084266
C211  C     C_R   0.099751 0.249968 0.999947 0.821307
C212  C     C_1   0.827114 0.249952 0.000089 -0.084384
C213  C     C_R   0.415785 0.250088 0.831661 0.777117
C214  C     C_R   0.584223 0.749907 0.168351 0.777965
C215  C     C_R   0.584214 0.250075 0.168357 0.778602
C216  C     C_R   0.415779 0.749911 0.831649 0.777880
C217  C     C_R   0.915784 0.750086 0.831647 0.777361
C218  C     C_R   0.084210 0.249917 0.168343 0.778198
C219  C     C_R   0.084218 0.750087 0.168351 0.778066
C220  C     C_R   0.915781 0.249910 0.831648 0.777528
C221  C     C_R   0.843978 0.271499 0.730729 -0.189533
C222  C     C_R   0.536694 0.983886 0.006526 -0.182135
C223  C     C_R   0.157296 0.729402 0.269260 -0.189607
C224  C     C_R   0.156313 0.271292 0.269236 -0.189648
C225  C     C_R   0.842237 0.729743 0.730757 -0.189160
C226  C     C_R   0.342709 0.770605 0.730747 -0.189666
C227  C     C_R   0.656173 0.228546 0.269246 -0.189845
C228  C     C_R   0.657784 0.770209 0.269274 -0.189890
C229  C     C_R   0.343971 0.228522 0.730753 -0.189101
C230  C     C_R   0.811765 0.271503 0.666211 -0.182738
C231  C     C_R   0.189532 0.729411 0.333770 -0.182694
C232  C     C_R   0.188484 0.271325 0.333743 -0.182224
H1    H     H_    0.547883 0.528276 0.978724 0.139517
H2    H     H_    0.138908 0.787229 0.358123 0.130851
H3    H     H_    0.836268 0.713738 0.754914 0.158675
H4    H     H_    0.337152 0.786934 0.754890 0.158650
H5    H     H_    0.660827 0.211592 0.245078 0.158345
H6    H     H_    0.663731 0.786252 0.245147 0.158713
H7    H     H_    0.339689 0.211289 0.754878 0.158207
H8    H     H_    0.782779 0.288319 0.641971 0.130429
H9    H     H_    0.219545 0.713346 0.358001 0.130471
H10   H     H_    0.217020 0.288443 0.357931 0.130172
H11   H     H_    0.779599 0.713967 0.642033 0.130452
H12   H     H_    0.280463 0.786670 0.642015 0.130413
H13   H     H_    0.141073 0.211182 0.358051 0.130230
H14   H     H_    0.717484 0.211780 0.357995 0.130552
H15   H     H_    0.720413 0.785958 0.358026 0.130440
H16   H     H_    0.283394 0.211313 0.641976 0.130420
H17   H     H_    0.577324 0.653692 0.144202 0.147504
H18   H     H_    0.584425 0.612216 0.152679 0.111420
H19   H     H_    0.555049 0.612063 0.212238 0.249738
H20   H     H_    0.607838 0.636161 0.247592 0.200360
H21   H     H_    0.548601 0.653576 0.205172 0.261371
H22   H     H_    0.415683 0.386353 0.849891 0.107724
H23   H     H_    0.424676 0.345132 0.849109 0.153979
H24   H     H_    0.861913 0.786511 0.641814 0.130907
H25   H     H_    0.456815 0.355354 0.792862 0.262538
H26   H     H_    0.395980 0.370082 0.751465 0.203249
H27   H     H_    0.446922 0.396511 0.793879 0.247362
H28   H     H_    0.422156 0.653633 0.853456 0.148956
H29   H     H_    0.415553 0.611987 0.847172 0.111626
H30   H     H_    0.445632 0.610286 0.788659 0.249201
H31   H     H_    0.392921 0.634715 0.751429 0.200212
H32   H     H_    0.452189 0.651953 0.793852 0.261418
H33   H     H_    0.581119 0.389610 0.156444 0.114055
H34   H     H_    0.577356 0.348556 0.141377 0.140331
H35   H     H_    0.360983 0.712706 0.641868 0.131024
H36   H     H_    0.546038 0.340138 0.198346 0.261541
H37   H     H_    0.604202 0.359360 0.245897 0.197646
H38   H     H_    0.549514 0.381175 0.212140 0.250447
H39   H     H_    0.074569 0.151938 0.146379 0.147814
H40   H     H_    0.078424 0.110347 0.155133 0.112842
H41   H     H_    0.041738 0.113331 0.205818 0.250811
H42   H     H_    0.097285 0.135077 0.246697 0.199502
H43   H     H_    0.039842 0.155037 0.199800 0.260146
H44   H     H_    0.917139 0.886891 0.849724 0.107712
H45   H     H_    0.925550 0.845618 0.848813 0.154737
H46   H     H_    0.641043 0.288655 0.358180 0.131176
H47   H     H_    0.958709 0.855234 0.793869 0.262435
H48   H     H_    0.898376 0.870982 0.751997 0.202236
H49   H     H_    0.950353 0.896543 0.795819 0.247752
H50   H     H_    0.925875 0.154125 0.855803 0.149602
H51   H     H_    0.918460 0.112563 0.846252 0.111869
H52   H     H_    0.950284 0.112802 0.789621 0.249720
H53   H     H_    0.897855 0.137161 0.753319 0.198350
H54   H     H_    0.957186 0.154396 0.797948 0.261261
H55   H     H_    0.079762 0.888764 0.155166 0.111327
H56   H     H_    0.074440 0.847153 0.145865 0.147960
H57   H     H_    0.638166 0.713299 0.358096 0.131100
H58   H     H_    0.039162 0.845429 0.199282 0.262051
H59   H     H_    0.098221 0.863489 0.246705 0.199014
H60   H     H_    0.044293 0.887057 0.207067 0.250039
H61   H     H_    0.357765 0.289632 0.641966 0.130665
H62   H     H_    0.915009 0.210917 0.754839 0.158792
H63   H     H_    0.082687 0.787447 0.245188 0.159130
H64   H     H_    0.084385 0.211330 0.245143 0.158266
H65   H     H_    0.450757 0.471832 0.019526 0.139649
H66   H     H_    0.918149 0.786775 0.754756 0.160956
H67   H     H_    0.417225 0.712496 0.754803 0.159651
H68   H     H_    0.584649 0.288726 0.245274 0.156692
H69   H     H_    0.581914 0.713121 0.245174 0.159289
H70   H     H_    0.414651 0.289352 0.754921 0.160558
H71   H     H_    0.773498 0.200112 0.556142 0.129608
H72   H     H_    0.223188 0.799987 0.443868 0.129534
H73   H     H_    0.162196 0.242946 0.443459 0.130711
H74   H     H_    0.777851 0.799937 0.556110 0.129636
H75   H     H_    0.276742 0.699986 0.556124 0.129626
H76   H     H_    0.450736 0.528249 0.019543 0.139631
H77   H     H_    0.726513 0.299818 0.443825 0.129715
H78   H     H_    0.722162 0.699919 0.443888 0.129677
H79   H     H_    0.337398 0.257495 0.556640 0.131069
H80   H     H_    0.717077 0.200326 0.443089 0.130588
H81   H     H_    0.279582 0.799758 0.556890 0.130524
H82   H     H_    0.218505 0.243258 0.556473 0.130493
H83   H     H_    0.721456 0.799706 0.443097 0.130535
H84   H     H_    0.220357 0.700217 0.443101 0.130568
H85   H     H_    0.782976 0.299608 0.556876 0.130496
H86   H     H_    0.778546 0.700152 0.556909 0.130569
H87   H     H_    0.547952 0.471869 0.978788 0.139230
H88   H     H_    0.281152 0.257066 0.443670 0.130234
H89   H     H_    0.510509 0.570303 0.084340 0.164746
H90   H     H_    0.489497 0.429566 0.915317 0.164359
H91   H     H_    0.488507 0.570445 0.914683 0.164575
H92   H     H_    0.509514 0.429787 0.083662 0.163444
H93   H     H_    0.007871 0.070446 0.082375 0.162911
H94   H     H_    0.990815 0.929636 0.916266 0.163597
H95   H     H_    0.991593 0.070523 0.916726 0.164032
H96   H     H_    0.009381 0.929747 0.083656 0.162875
H97   H     H_    0.422765 0.872598 0.925418 0.158198
H98   H     H_    0.047806 0.028279 0.978167 0.138967
H99   H     H_    0.577233 0.127402 0.074591 0.158099
H100  H     H_    0.577229 0.872591 0.074577 0.158205
H101  H     H_    0.422772 0.127410 0.925412 0.158183
H102  H     H_    0.922759 0.372598 0.925446 0.158106
H103  H     H_    0.077240 0.627402 0.074561 0.158209
H104  H     H_    0.077235 0.372591 0.074551 0.158211
H105  H     H_    0.922766 0.627409 0.925443 0.158207
H106  H     H_    0.422891 0.928959 0.925018 0.129899
H107  H     H_    0.577107 0.071041 0.074989 0.129813
H108  H     H_    0.577102 0.928950 0.074971 0.129842
H109  H     H_    0.952321 0.971778 0.021495 0.139322
H110  H     H_    0.422900 0.071050 0.925018 0.129948
H111  H     H_    0.922885 0.428959 0.925046 0.129814
H112  H     H_    0.077114 0.571041 0.074961 0.129917
H113  H     H_    0.077108 0.428950 0.074946 0.129966
H114  H     H_    0.922893 0.571050 0.925049 0.129848
H115  H     H_    0.565008 0.971795 0.010695 0.130336
H116  H     H_    0.434991 0.028205 0.989302 0.130309
H117  H     H_    0.434986 0.971805 0.989295 0.130326
H118  H     H_    0.565014 0.028195 0.010703 0.130352
H119  H     H_    0.064993 0.471796 0.010660 0.130304
H120  H     H_    0.951999 0.028153 0.021205 0.138981
H121  H     H_    0.935007 0.528205 0.989340 0.130321
H122  H     H_    0.935002 0.471806 0.989333 0.130335
H123  H     H_    0.064999 0.528194 0.010669 0.130327
H124  H     H_    0.323233 0.231861 0.100528 0.133817
H125  H     H_    0.676900 0.768502 0.899740 0.133953
H126  H     H_    0.680327 0.224038 0.906615 0.133534
H127  H     H_    0.320647 0.774122 0.095342 0.133745
H128  H     H_    0.823103 0.731498 0.100265 0.133855
H129  H     H_    0.176766 0.268139 0.899470 0.133809
H130  H     H_    0.179353 0.725878 0.904659 0.133703
H131  H     H_    0.047902 0.971896 0.978258 0.138987
H132  H     H_    0.819675 0.275959 0.093390 0.133444
H133  H     H_    0.735949 0.697414 0.017967 0.134894
H134  H     H_    0.263673 0.302520 0.981272 0.134937
H135  H     H_    0.270156 0.696732 0.994242 0.135338
H136  H     H_    0.727766 0.303342 0.001590 0.135390
H137  H     H_    0.236326 0.197480 0.018725 0.135026
H138  H     H_    0.764055 0.802587 0.982038 0.135099
H139  H     H_    0.772237 0.196656 0.998414 0.135550
H140  H     H_    0.229844 0.803267 0.005759 0.135415
H141  H     H_    0.767869 0.784059 0.082189 0.134853
H142  H     H_    0.858746 0.211080 0.641888 0.130909
H143  H     H_    0.232380 0.215645 0.918310 0.134774
H144  H     H_    0.228478 0.779130 0.910513 0.134780
H145  H     H_    0.772628 0.222633 0.091704 0.134642
H146  H     H_    0.267619 0.284355 0.081688 0.134762
H147  H     H_    0.732133 0.715942 0.917817 0.134876
H148  H     H_    0.727375 0.277365 0.908301 0.134667
H149  H     H_    0.271523 0.720870 0.089488 0.134823
H150  H     H_    0.839432 0.288545 0.754870 0.158255
H151  H     H_    0.162886 0.713095 0.245121 0.158632
H152  H     H_    0.161044 0.288205 0.245093 0.158421
O1    O     O_3   0.500000 0.250020 0.000000 -0.480989
O2    O     O_R   0.899640 0.268150 0.963690 -0.639902
O3    O     O_R   0.899640 0.731850 0.963690 -0.640109
O4    O     O_R   0.100360 0.268150 0.036310 -0.640046
O5    O     O_R   0.452240 0.268200 0.861400 -0.646528
O6    O     O_R   0.547760 0.731800 0.138600 -0.645708
O7    O     O_R   0.547760 0.268200 0.138600 -0.645750
O8    O     O_R   0.452240 0.731800 0.861400 -0.645479
O9    O     O_R   0.952240 0.768200 0.861400 -0.646879
O10   O     O_R   0.047760 0.231800 0.138600 -0.646328
O11   O     O_R   0.047760 0.768200 0.138600 -0.646609
O12   O     O_3   0.500000 0.749980 0.000000 -0.481079
O13   O     O_R   0.952240 0.231800 0.861400 -0.646449
O14   O     O_R   0.503360 0.319320 0.963650 -0.604817
O15   O     O_R   0.496640 0.680680 0.036350 -0.603733
O16   O     O_R   0.496640 0.319320 0.036350 -0.601785
O17   O     O_R   0.503360 0.680680 0.963650 -0.603039
O18   O     O_R   0.003360 0.819320 0.963650 -0.604472
O19   O     O_R   0.996640 0.180680 0.036350 -0.601992
O20   O     O_R   0.996640 0.819320 0.036350 -0.603198
O21   O     O_R   0.003360 0.180680 0.963650 -0.605220
O22   O     O_R   0.539730 0.180720 0.036330 -0.645883
O23   O     O_3   0.000000 0.750020 0.000000 -0.480851
O24   O     O_R   0.460270 0.819280 0.963670 -0.645729
O25   O     O_R   0.460270 0.180720 0.963670 -0.645787
O26   O     O_R   0.539730 0.819280 0.036330 -0.645666
O27   O     O_R   0.039730 0.680720 0.036330 -0.645751
O28   O     O_R   0.960270 0.319280 0.963670 -0.645860
O29   O     O_R   0.960270 0.680720 0.963670 -0.645692
O30   O     O_R   0.039730 0.319280 0.036330 -0.645792
O31   O     O_R   0.409160 0.231870 0.861420 -0.646698
O32   O     O_R   0.590840 0.768130 0.138580 -0.647027
O33   O     O_R   0.590840 0.231870 0.138580 -0.647039
O34   O     O_3   0.000000 0.249980 0.000000 -0.480963
O35   O     O_R   0.409160 0.768130 0.861420 -0.647022
O36   O     O_R   0.909160 0.731870 0.861420 -0.646696
O37   O     O_R   0.090840 0.268130 0.138580 -0.646881
O38   O     O_R   0.090840 0.731870 0.138580 -0.646875
O39   O     O_R   0.909160 0.268130 0.861420 -0.646788
O40   O     O_R   0.564010 0.268190 0.963640 -0.630795
O41   O     O_R   0.435990 0.731810 0.036360 -0.631141
O42   O     O_R   0.435990 0.268190 0.036360 -0.631116
O43   O     O_R   0.564010 0.731810 0.963640 -0.631121
O44   O     O_R   0.064010 0.768190 0.963640 -0.630746
O45   O     O_R   0.600360 0.231850 0.036310 -0.639845
O46   O     O_R   0.935990 0.231810 0.036360 -0.630832
O47   O     O_R   0.935990 0.768190 0.036360 -0.630808
O48   O     O_R   0.064010 0.231810 0.963640 -0.630443
O49   O     O_3   0.512736 0.629803 0.096456 -0.575415
O50   O     O_3   0.488501 0.369989 0.904451 -0.576672
O51   O     O_3   0.487028 0.629992 0.903260 -0.574973
O52   O     O_3   0.511031 0.370241 0.095297 -0.575043
O53   O     O_3   0.008246 0.129920 0.093224 -0.574527
O54   O     O_3   0.989751 0.870044 0.905312 -0.576559
O55   O     O_3   0.990192 0.129899 0.905196 -0.574735
O56   O     O_R   0.399640 0.768150 0.963690 -0.639991
O57   O     O_3   0.008812 0.870173 0.093719 -0.575206
O58   O     O_R   0.399640 0.231850 0.963690 -0.639984
O59   O     O_R   0.600360 0.768150 0.036310 -0.640066
O60   O     O_R   0.100360 0.731850 0.036310 -0.640015
Zn1   Zn    Zn3+2 0.443260 0.224070 0.948090 0.962426
Zn2   Zn    Zn3+2 0.495180 0.724020 0.051930 0.983212
Zn3   Zn    Zn3+2 0.495180 0.275980 0.051930 0.983519
Zn4   Zn    Zn3+2 0.504820 0.724020 0.948070 0.983620
Zn5   Zn    Zn3+2 0.004820 0.775980 0.948070 0.983027
Zn6   Zn    Zn3+2 0.995180 0.224020 0.051930 0.983378
Zn7   Zn    Zn3+2 0.995180 0.775980 0.051930 0.982923
Zn8   Zn    Zn3+2 0.004820 0.224020 0.948070 0.982836
Zn9   Zn    Zn3+2 0.556740 0.775930 0.051910 0.962407
Zn10  Zn    Zn3+2 0.556740 0.224070 0.051910 0.962705
Zn11  Zn    Zn3+2 0.443260 0.775930 0.948090 0.962527
Zn12  Zn    Zn3+2 0.943260 0.724070 0.948090 0.962628
Zn13  Zn    Zn3+2 0.056740 0.275930 0.051910 0.962731
Zn14  Zn    Zn3+2 0.056740 0.724070 0.051910 0.962710
Zn15  Zn    Zn3+2 0.943260 0.275930 0.948090 0.962495
Zn16  Zn    Zn3+2 0.504820 0.275980 0.948070 0.982929

loop_
_geom_bond_atom_site_label_1
_geom_bond_atom_site_label_2
_ccdc_geom_bond_type
C154  H131  S    
C149  H59   S    
O31   Zn1   S    
C167  C179  S    
C45   H73   S    
C145  H50   S    
C211  O48   A    
C190  C198  S    
C168  H140  S    
O59   Zn9   S    
C192  H146  S    
C50   C59   A    
C218  O10   A    
C164  C186  S    
C125  C146  A    
C188  H145  S    
C187  C196  S    
C49   H77   S    
C54   C63   A    
C91   H96   S    
C143  C144  S    
C87   C94   A    
C143  H45   S    
C168  C190  S    
O19   Zn6   S    
C201  C209  S    
C89   C94   A    
O37   Zn13  S    
C108  C131  A    
C147  H54   S    
C44   C53   A    
C11   C67   S    
C98   C131  S    
C35   H119  S    
C4    C12   A    
C114  H110  S    
O1    Zn10  S    
C160  C196  S    
C25   H61   S    
C88   C95   A    
C105  H102  S    
C176  C203  S    
C107  H104  S    
O41   Zn2   S    
C215  O33   A    
C176  C188  S    
O10   Zn6   S    
C71   C157  A    
O9    Zn5   S    
C11   C20   A    
C82   O21   A    
O34   Zn13  S    
C45   C69   A    
C68   C101  A    
C81   O18   A    
C133  H21   S    
O26   Zn9   S    
C174  C201  S    
C118  H114  S    
O12   Zn9   S    
C228  H6    S    
C216  O35   A    
C77   O57   S    
C152  H109  S    
O56   Zn11  S    
C79   C120  S    
O34   Zn6   S    
C10   C232  A    
C177  C204  T    
C165  C187  S    
O48   Zn8   S    
C220  O39   A    
C77   C159  A    
O33   Zn10  S    
C71   O50   S    
C172  H127  S    
C104  C129  A    
C143  H44   S    
C98   O29   A    
C166  C188  S    
C160  H133  S    
C21   C30   A    
C16   C25   A    
C77   C91   A    
C139  O52   S    
C213  O31   A    
C231  H9    S    
C73   O52   S    
C214  O32   A    
C93   C123  S    
C160  C191  S    
C213  O5    A    
C139  C140  S    
C18   H2    S    
C173  H128  S    
C162  C198  S    
C101  C122  S    
C132  O49   S    
C52   C61   A    
O6    Zn2   S    
C108  H105  S    
C169  H124  S    
C8    C17   A    
C147  H52   S    
C14   C61   S    
C43   C66   A    
C12   C21   A    
O15   Zn2   S    
C168  C202  S    
C35   C113  A    
C182  C208  T    
C84   C93   A    
C9    C65   S    
C3    C11   A    
C49   C58   A    
C109  H106  S    
C10   C69   S    
C5    C227  A    
C148  H56   S    
C144  H49   S    
C142  H43   S    
O36   Zn12  S    
C13   H117  S    
C96   C129  S    
C179  C205  T    
C115  C121  A    
C24   H118  S    
O12   Zn2   S    
C160  C173  S    
C96   O25   A    
C5    H14   S    
C81   O20   A    
C92   C125  S    
C72   C85   A    
C169  C195  S    
C94   C127  S    
C134  O50   S    
C2    H116  S    
C166  H139  S    
O8    Zn4   S    
C33   C42   A    
C186  H143  S    
O12   Zn11  S    
C134  H23   S    
O38   Zn14  S    
C82   C158  S    
C43   C52   A    
C73   C157  A    
C226  H4    S    
C140  H37   S    
C111  C119  A    
C118  C122  A    
C141  H40   S    
C98   O27   A    
C85   H91   S    
C39   C226  A    
C78   C157  S    
C59   C67   A    
O1    Zn16  S    
C126  C152  A    
C163  H136  S    
C221  C230  A    
C102  H99   S    
C172  C198  S    
C161  H134  S    
C74   C87   A    
C229  H7    S    
C76   C89   A    
O5    Zn16  S    
C139  H33   S    
C68   H123  S    
C44   C65   A    
C189  O2    A    
C97   C128  S    
C219  O11   A    
C57   H122  S    
C36   C219  S    
O47   Zn7   S    
C85   C92   A    
C132  H17   S    
C46   C101  A    
C70   C155  A    
C224  H152  S    
C187  H141  S    
C88   H94   S    
C221  H150  S    
C57   C113  A    
C162  C175  S    
C163  C194  S    
C150  H87   S    
C170  C191  S    
C52   H80   S    
C123  C135  A    
C42   C229  A    
C103  C128  A    
C86   C93   A    
C24   C79   A    
C48   C62   A    
C15   C64   S    
C211  O4    A    
C19   C28   A    
C142  H41   S    
C138  H32   S    
C89   H95   S    
C28   H64   S    
C145  H51   S    
C80   C155  S    
C106  H103  S    
C145  O55   S    
C173  C187  S    
C149  H58   S    
C198  C207  S    
C100  C128  A    
C105  C115  A    
C48   H75   S    
C175  C202  S    
C23   H57   S    
C22   H46   S    
C185  C189  S    
C105  C130  A    
O16   Zn3   S    
C116  H112  S    
C14   C22   A    
C58   H85   S    
C42   C213  S    
C170  C196  S    
C95   C126  S    
C28   C37   A    
O12   Zn4   S    
C162  C193  S    
C199  C208  S    
O43   Zn4   S    
C144  H47   S    
C166  C203  S    
C31   H68   S    
C87   H93   S    
C151  H98   S    
C91   C95   A    
C147  H53   S    
C170  H125  S    
C56   H84   S    
C9    C18   A    
C100  C109  A    
C113  C121  S    
C152  C153  A    
C163  C197  S    
C200  O47   A    
C136  H25   S    
C111  H108  S    
C26   H62   S    
C51   C60   A    
C86   H92   S    
C214  O6    A    
C25   C33   A    
C137  H29   S    
C191  H147  S    
C13   C90   A    
C173  C199  S    
C217  O36   A    
C80   O15   A    
C167  O59   A    
C175  C190  S    
C197  C206  S    
C171  H126  S    
O25   Zn1   S    
O4    Zn13  S    
C116  C122  A    
C17   H142  S    
C232  H10   S    
C37   C218  S    
C135  H65   S    
O21   Zn8   S    
C1    C180  S    
C34   C220  S    
C223  H151  S    
C31   C40   A    
C161  C195  S    
C103  C111  A    
C54   H82   S    
C2    C79   A    
C138  H30   S    
C223  C231  A    
O1    Zn1   S    
C192  C201  S    
C140  H36   S    
C16   C63   S    
C4    C226  A    
O27   Zn14  S    
C133  H19   S    
C141  O53   S    
C110  H107  S    
C34   C221  A    
C60   H88   S    
O45   Zn10  S    
C115  H111  S    
C149  H60   S    
C38   C217  S    
C172  C193  S    
C107  C130  A    
C156  O42   A    
C145  C147  S    
O11   Zn7   S    
C20   H24   S    
C51   H79   S    
C106  C131  A    
C49   C61   A    
C74   C158  A    
C6    H15   S    
C182  C200  S    
C99   O30   A    
C195  C204  S    
C72   O51   S    
C43   H71   S    
O42   Zn3   S    
C193  C202  S    
C44   H72   S    
C106  C116  A    
O13   Zn8   S    
O14   Zn16  S    
C117  H113  S    
C55   H83   S    
C29   H66   S    
C32   H69   S    
C10   C19   A    
C136  H27   S    
C82   O19   A    
C51   C63   A    
C27   H63   S    
C112  O56   A    
C74   O53   S    
C70   C83   A    
C36   C223  A    
C1    O45   A    
C5    C14   A    
O32   Zn9   S    
C38   C225  A    
C124  H1    S    
C7    C16   A    
C161  C192  S    
O46   Zn6   S    
C146  H76   S    
O17   Zn4   S    
C102  C110  A    
C109  C119  A    
C7    C229  A    
C165  C170  S    
C124  C150  A    
C80   O17   A    
C99   C130  S    
O23   Zn12  S    
C46   H121  S    
C184  C210  T    
C24   C222  A    
C27   C36   A    
C100  H97   S    
C219  O38   A    
C175  H130  S    
C178  O60   A    
C23   C32   A    
C165  C199  S    
C41   C214  S    
C188  C197  S    
O58   Zn1   S    
O1    Zn3   S    
O60   Zn14  S    
C140  H38   S    
C141  H39   S    
O40   Zn16  S    
C168  C172  S    
C103  H100  S    
C167  O43   A    
C141  C142  S    
C107  C117  A    
C114  C120  A    
C8    C66   S    
C81   C159  S    
C78   O16   A    
C50   C64   A    
C230  H8    S    
C112  O41   A    
C137  O51   S    
C102  C129  A    
C190  H144  S    
C96   O22   A    
C99   O28   A    
C127  C153  A    
C132  H18   S    
C97   O26   A    
O44   Zn5   S    
C83   C92   A    
C76   C158  A    
C176  H132  S    
C39   C216  S    
C17   C26   A    
C60   C69   A    
C191  C199  S    
C90   C222  A    
C224  C232  A    
C6    C228  A    
C30   H67   S    
C112  C181  S    
C183  C211  S    
C56   C65   A    
C227  H5    S    
C215  O7    A    
C12   C62   S    
C216  O8    A    
C153  H120  S    
C156  C177  S    
C151  C154  A    
O23   Zn7   S    
C196  C205  S    
C2    C13   A    
C117  C121  A    
C6    C15   A    
C8    C230  A    
C58   C66   A    
C132  C133  S    
C59   H86   S    
C148  H55   S    
C30   C39   A    
C70   O49   S    
C156  O58   A    
C3    C225  A    
C127  C151  A    
C135  C146  A    
C15   C23   A    
O35   Zn11  S    
C166  C171  S    
C72   C155  A    
C220  O13   A    
C164  C169  S    
C202  C210  S    
C171  C194  S    
C180  C206  T    
C163  C176  S    
C47   C67   A    
C222  H115  S    
C97   O24   A    
C26   C34   A    
C217  O9    A    
C20   C29   A    
C218  O37   A    
C22   C31   A    
C225  H3    S    
C174  H129  S    
C108  C118  A    
C186  C195  S    
C148  C149  S    
C134  H22   S    
C200  O3    A    
C164  C201  S    
C110  C120  A    
C134  C136  S    
C75   O54   S    
C7    H16   S    
C189  O46   A    
O24   Zn11  S    
C84   H90   S    
C29   C38   A    
C83   H89   S    
C53   C62   A    
O20   Zn7   S    
C133  H20   S    
C123  C150  A    
C32   C41   A    
C55   C64   A    
C185  C212  T    
C144  H48   S    
C3    H11   S    
O18   Zn5   S    
C162  H135  S    
C181  C207  T    
O7    Zn3   S    
C50   H78   S    
C104  C114  A    
C139  H34   S    
C45   C54   A    
O39   Zn15  S    
C78   O14   A    
C46   C57   A    
C136  H26   S    
C203  C212  S    
C164  H137  S    
O23   Zn14  S    
C126  C154  A    
C19   H13   S    
C47   C55   A    
C71   C84   A    
C137  H28   S    
C75   C159  A    
C48   C56   A    
C142  H42   S    
C178  O44   A    
C165  H138  S    
C18   C27   A    
C37   C224  A    
C161  C174  S    
C193  H149  S    
C183  C209  T    
C76   O55   S    
C137  C138  S    
C169  C192  S    
O34   Zn15  S    
C9    C231  A    
O29   Zn12  S    
C90   C119  S    
O23   Zn5   S    
C40   C227  A    
O3    Zn12  S    
C171  C197  S    
C104  H101  S    
C174  C186  S    
C33   H70   S    
C35   C68   A    
C194  C203  S    
C40   C215  S    
C4    H12   S    
C47   H74   S    
C194  H148  S    
C73   C86   A    
C41   C228  A    
C21   H35   S    
C143  O54   S    
C75   C88   A    
C138  H31   S    
O34   Zn8   S    
O30   Zn13  S    
C53   H81   S    
C1    O40   A    
C148  O57   S    
O28   Zn15  S    
O22   Zn10  S    
C178  C184  S    
O2    Zn15  S    
C124  C125  A    
