data_mof_unit_42489.cif
_audit_creation_date              2012-12-10T18:47:03-0500
_audit_creation_method            fapswitch 2.2
_symmetry_space_group_name_H-M    P1
_symmetry_Int_Tables_number       1
_space_group_crystal_system       triclinic
_cell_length_a                    10.664598
_cell_length_b                    9.833611
_cell_length_c                    15.042857
_cell_angle_alpha                 89.614121
_cell_angle_beta                  90.65022
_cell_angle_gamma                 90.074868
_cell_volume                      1577.42854708

loop_
_atom_site_label
_atom_site_type_symbol
_atom_type_description
_atom_site_fract_x
_atom_site_fract_y
_atom_site_fract_z
_atom_type_partial_charge
C1    C     C_R   0.260504 0.499861 0.499480 0.891198
C2    C     C_R   0.739496 0.500139 0.500522 0.891200
C3    C     C_R   0.393858 0.280257 0.049781 -0.002452
C4    C     C_R   0.606095 0.719771 0.950221 -0.002455
C5    C     C_R   0.063221 0.439927 0.428152 -0.054793
C6    C     C_R   0.936778 0.560075 0.571851 -0.054794
C7    C     C_R   0.933379 0.440834 0.428185 -0.058020
C8    C     C_R   0.066621 0.559167 0.571818 -0.058024
C9    C     C_R   0.871994 0.500497 0.500178 -0.128890
C10   C     C_R   0.128005 0.499504 0.499825 -0.128892
C11   C     C_R   0.570684 0.071446 0.560510 -0.046080
C12   C     C_R   0.429316 0.928554 0.439490 -0.046096
C13   C     C_R   0.429289 0.072506 0.439499 -0.049647
C14   C     C_R   0.570711 0.927494 0.560501 -0.049643
C15   C     C_R   0.504421 0.500565 0.326854 0.897854
C16   C     C_R   0.495579 0.499434 0.673146 0.897841
C17   C     C_R   0.543612 0.607668 0.813330 -0.233526
C18   C     C_R   0.456352 0.392345 0.186671 -0.233529
C19   C     C_R   0.489151 0.498544 0.768880 -0.113143
C20   C     C_R   0.510839 0.501457 0.231121 -0.113139
C21   C     C_R   0.431420 0.391398 0.815544 -0.053708
C22   C     C_R   0.568579 0.608601 0.184457 -0.053701
C23   C     C_R   0.437516 0.390493 0.908636 0.061805
C24   C     C_R   0.562451 0.609527 0.091366 0.061801
C25   C     C_R   0.496629 0.500163 0.953486 0.044691
C26   C     C_R   0.503322 0.499865 0.046515 0.044682
C27   C     C_R   0.548613 0.610375 0.905369 0.067145
C28   C     C_R   0.451340 0.389649 0.094633 0.067151
C29   C     C_R   0.386997 0.281796 0.957734 -0.239628
C30   C     C_R   0.612966 0.718228 0.042268 -0.239613
H1    H     H_    0.584719 0.689843 0.775214 0.181013
H2    H     H_    0.415242 0.310166 0.224787 0.181011
H3    H     H_    0.342550 0.196318 0.924843 0.165550
H4    H     H_    0.657423 0.803705 0.075160 0.165546
H5    H     H_    0.627168 0.125624 0.608865 0.138884
H6    H     H_    0.372833 0.874376 0.391135 0.138885
H7    H     H_    0.372747 0.127518 0.391163 0.141620
H8    H     H_    0.627253 0.872482 0.608836 0.141622
N1    N     N_R   0.500000 0.857200 0.500000 -0.088246
N2    N     N_R   0.500000 0.142800 0.500000 -0.088245
O1    O     O_R   0.316770 0.614620 0.499990 -0.617678
O2    O     O_R   0.683230 0.385380 0.500010 -0.617683
O3    O     O_R   0.683230 0.614620 0.500010 -0.613637
O4    O     O_R   0.316770 0.385380 0.499990 -0.613641
O5    O     O_R   0.499980 0.614680 0.367850 -0.621609
O6    O     O_R   0.500020 0.385320 0.632150 -0.621609
O7    O     O_R   0.500020 0.614680 0.632150 -0.621531
O8    O     O_R   0.499980 0.385320 0.367850 -0.621532
Zn1   Zn    Zn3+2 0.500000 0.653120 0.500000 0.979979
Zn2   Zn    Zn3+2 0.500000 0.346880 0.500000 0.979977
C31   C     C_1   0.362398 0.286131 0.768223 0.189608
N3    N     N_1   0.307396 0.202441 0.730542 -0.180955
C32   C     C_1   0.637675 0.713809 0.231776 0.189596
N4    N     N_1   0.692746 0.797441 0.269458 -0.180957
C33   C     C_1   0.340966 0.164478 0.096138 0.173514
N5    N     N_1   0.298735 0.071900 0.133185 -0.191573
C34   C     C_1   0.658996 0.835549 0.903863 0.173509
N6    N     N_1   0.701237 0.928125 0.866815 -0.191570
C35   C     C_1   0.129597 0.380922 0.353930 0.184094
N7    N     N_1   0.181946 0.333699 0.294722 -0.213388
C36   C     C_1   0.870401 0.619083 0.646069 0.184092
N8    N     N_1   0.818048 0.666311 0.705272 -0.213384
C37   C     C_1   0.863190 0.384600 0.353472 0.194698
N9    N     N_1   0.807308 0.339980 0.294033 -0.183124
C38   C     C_1   0.136810 0.615401 0.646531 0.194689
N10   N     N_1   0.192692 0.660022 0.705969 -0.183119

loop_
_geom_bond_atom_site_label_1
_geom_bond_atom_site_label_2
_ccdc_geom_bond_type
C4    C34   S    
C21   C31   S    
C33   N5    T    
C6    C8    A    
C14   H8    S    
C20   C22   A    
O6    Zn2   S    
C1    O4    A    
C26   C28   A    
O5    Zn1   S    
C2    O3    A    
C25   C27   A    
C7    C9    A    
C4    C27   A    
C12   N1    A    
C11   H5    S    
C25   C26   A    
C5    C10   A    
O7    Zn1   S    
C32   N4    T    
O8    Zn2   S    
C7    C37   S    
C34   N6    T    
C11   N2    A    
C18   H2    S    
C3    C33   S    
C15   O8    A    
O2    Zn2   S    
C16   C19   S    
N2    Zn2   S    
C23   C29   A    
C16   O7    A    
C1    O1    A    
C3    C28   A    
C17   C19   A    
C2    O2    A    
C22   C32   S    
C18   C20   A    
C23   C25   A    
C21   C23   A    
C36   N8    T    
C17   H1    S    
C11   C14   A    
C24   C30   A    
C8    C38   S    
C12   H6    S    
C5    C35   S    
C16   O6    A    
C37   N9    T    
C17   C27   A    
C29   H3    S    
C35   N7    T    
C6    C9    A    
C18   C28   A    
C12   C13   A    
C6    C36   S    
C5    C7    A    
C38   N10   T    
C22   C24   A    
O1    Zn1   S    
C3    C29   A    
C30   H4    S    
O3    Zn1   S    
C13   N2    A    
O4    Zn2   S    
N1    Zn1   S    
C14   N1    A    
C2    C9    S    
C13   H7    S    
C8    C10   A    
C4    C30   A    
C1    C10   S    
C31   N3    T    
C24   C26   A    
C15   C20   S    
C19   C21   A    
C15   O5    A    
