data_mof_unit_33956.cif
_audit_creation_date              2013-03-05T15:40:53-0500
_audit_creation_method            fapswitch 2.2
_symmetry_space_group_name_H-M    P1
_symmetry_Int_Tables_number       1
_space_group_crystal_system       triclinic
_cell_length_a                    27.947413
_cell_length_b                    18.755963
_cell_length_c                    16.685049
_cell_angle_alpha                 89.947056
_cell_angle_beta                  63.492834
_cell_angle_gamma                 90.092759
_cell_volume                      7826.56614268

loop_
_atom_site_label
_atom_site_type_symbol
_atom_site_description
_atom_site_fract_x
_atom_site_fract_y
_atom_site_fract_z
_atom_type_partial_charge
O1    O     O_R   0.255040 0.869590 0.478480 -0.555986
O2    O     O_R   0.744960 0.130410 0.521520 -0.548985
O3    O     O_R   0.744960 0.869590 0.521520 -0.549864
O4    O     O_R   0.255040 0.130410 0.478480 -0.555399
O5    O     O_R   0.755040 0.369590 0.478480 -0.547324
O6    O     O_R   0.244960 0.630410 0.521520 -0.560359
O7    O     O_R   0.244960 0.369590 0.521520 -0.551851
O8    O     O_R   0.755040 0.630410 0.478480 -0.552136
O9    O     O_R   0.182050 0.796550 0.624440 -0.525299
O10   O     O_R   0.817950 0.203450 0.375560 -0.524658
O11   O     O_R   0.817950 0.796550 0.375560 -0.517351
O12   O     O_R   0.182050 0.203450 0.624440 -0.518271
O13   O     O_R   0.682050 0.296550 0.624440 -0.519017
O14   O     O_R   0.317950 0.703450 0.375560 -0.526304
O15   O     O_R   0.317950 0.296550 0.375560 -0.515671
O16   O     O_R   0.682050 0.703450 0.624440 -0.498669
Cu1   Cu    Cu3+1 0.209920 0.785290 0.495070 1.157679
Cu2   Cu    Cu3+1 0.790080 0.214710 0.504930 1.182700
Cu3   Cu    Cu3+1 0.790080 0.785290 0.504930 1.150192
Cu4   Cu    Cu3+1 0.209920 0.214710 0.495070 1.191787
Cu5   Cu    Cu3+1 0.709920 0.285290 0.495070 1.157735
Cu6   Cu    Cu3+1 0.290080 0.714710 0.504930 1.177788
Cu7   Cu    Cu3+1 0.290080 0.285290 0.504930 1.174108
Cu8   Cu    Cu3+1 0.709920 0.714710 0.495070 1.173532
C1    C     C_R   0.297177 0.733692 0.328226 0.846500
C2    C     C_R   0.703755 0.268293 0.671708 0.891784
C3    C     C_R   0.702729 0.733502 0.672042 0.849678
C4    C     C_R   0.296894 0.267040 0.328049 0.877027
C5    C     C_R   0.796258 0.231589 0.328431 0.842886
C6    C     C_R   0.202683 0.766183 0.671809 0.900676
C7    C     C_R   0.202967 0.233270 0.671949 0.837367
C8    C     C_R   0.796983 0.766651 0.328074 0.850191
O17   O     O_R   0.250530 0.763330 0.367210 -0.582850
O18   O     O_R   0.749470 0.236670 0.632790 -0.540105
O19   O     O_R   0.749470 0.763330 0.632790 -0.587179
O20   O     O_R   0.250530 0.236670 0.367210 -0.540303
O21   O     O_R   0.750530 0.263330 0.367210 -0.584350
O22   O     O_R   0.249470 0.736670 0.632790 -0.530470
O23   O     O_R   0.249470 0.263330 0.632790 -0.580000
O24   O     O_R   0.750530 0.736670 0.367210 -0.581977
O25   O     O_R   0.177260 0.690030 0.513710 -0.580310
O26   O     O_R   0.822740 0.309970 0.486290 -0.576601
O27   O     O_R   0.822740 0.690030 0.486290 -0.587855
O28   O     O_R   0.177260 0.309970 0.513710 -0.569180
O29   O     O_R   0.677260 0.190030 0.513710 -0.588710
O30   O     O_R   0.322740 0.809970 0.486290 -0.568892
O31   O     O_R   0.322740 0.190030 0.486290 -0.567611
O32   O     O_R   0.677260 0.809970 0.513710 -0.566040
C9    C     C_R   0.196864 0.631742 0.526930 0.823899
C10   C     C_R   0.800261 0.369070 0.483619 0.855759
C11   C     C_R   0.802955 0.631667 0.473677 0.834690
C12   C     C_R   0.199720 0.369140 0.516439 0.849989
C13   C     C_R   0.697109 0.131378 0.525779 0.821567
C14   C     C_R   0.299569 0.869179 0.485355 0.864541
C15   C     C_R   0.303484 0.131668 0.472137 0.825507
C16   C     C_R   0.696123 0.868049 0.529463 0.830475
H1    H     H_    0.495941 0.769715 0.639368 0.215581
H2    H     H_    0.491215 0.233383 0.414303 0.211272
H3    H     H_    0.416701 0.771550 0.624219 0.208360
H4    H     H_    0.557979 0.236703 0.466987 0.184244
H5    H     H_    0.046732 0.258343 0.485028 0.199134
H6    H     H_    0.961325 0.745851 0.485591 0.196704
H7    H     H_    0.954150 0.258119 0.511769 0.197483
H8    H     H_    0.030773 0.746034 0.531939 0.204286
C17   C     C_R   0.040917 0.630544 0.528722 -0.012390
C18   C     C_R   0.946593 0.373550 0.512649 -0.003750
C19   C     C_R   0.957862 0.630609 0.474205 -0.006719
C20   C     C_R   0.054317 0.373822 0.484214 -0.001990
C21   C     C_R   0.548027 0.126566 0.510328 -0.004918
C22   C     C_R   0.425118 0.879956 0.571456 0.001868
C23   C     C_R   0.465829 0.123341 0.455188 -0.013350
C24   C     C_R   0.523846 0.875507 0.583732 -0.009407
C25   C     C_R   0.017386 0.694877 0.520498 -0.137146
C26   C     C_R   0.973449 0.308952 0.507374 -0.110371
C27   C     C_R   0.977999 0.695017 0.490272 -0.129199
C28   C     C_R   0.027489 0.309093 0.489252 -0.105664
C29   C     C_R   0.535993 0.187555 0.474459 -0.133064
C30   C     C_R   0.440069 0.819681 0.605345 -0.133449
C31   C     C_R   0.497255 0.185088 0.443388 -0.132154
C32   C     C_R   0.488047 0.817630 0.611641 -0.135051
C33   C     C_R   0.977544 0.566514 0.491077 0.030703
C34   C     C_R   0.025956 0.437736 0.496957 0.027148
C35   C     C_R   0.022578 0.566604 0.508328 0.030941
C36   C     C_R   0.974981 0.437592 0.499762 0.027854
C37   C     C_R   0.478320 0.061752 0.491163 0.028527
C38   C     C_R   0.508926 0.936874 0.551343 0.027495
C39   C     C_R   0.522426 0.062162 0.511153 0.032482
C40   C     C_R   0.460801 0.938292 0.541780 0.026555
C41   C     C_R   0.446878 0.999959 0.507913 -0.033089
C42   C     C_R   0.539447 0.999102 0.536437 -0.036087
C43   C     C_R   0.952214 0.501921 0.491331 -0.032382
C44   C     C_R   0.048435 0.502126 0.506437 -0.031925
C45   C     C_R   0.367279 0.939667 0.516767 -0.031859
C46   C     C_R   0.612660 0.064731 0.544767 -0.026666
C47   C     C_R   0.608292 0.934479 0.560949 -0.029708
C48   C     C_R   0.386074 0.062917 0.461404 -0.028168
C49   C     C_R   0.874128 0.437489 0.500734 -0.029362
C50   C     C_R   0.114424 0.565270 0.537963 -0.029968
C51   C     C_R   0.126233 0.437763 0.498178 -0.026163
C52   C     C_R   0.885423 0.565302 0.462252 -0.029473
C53   C     C_R   0.325629 0.936915 0.489689 -0.076803
C54   C     C_R   0.664676 0.064888 0.541292 -0.069748
C55   C     C_R   0.662827 0.934186 0.548156 -0.062169
C56   C     C_R   0.334575 0.064639 0.461847 -0.061074
C57   C     C_R   0.827825 0.436218 0.485266 -0.081037
C58   C     C_R   0.165865 0.565217 0.536915 -0.055046
C59   C     C_R   0.172155 0.436351 0.514791 -0.083599
C60   C     C_R   0.833817 0.565178 0.463964 -0.060972
C61   C     C_R   0.308319 0.000187 0.466980 -0.159801
C62   C     C_R   0.688951 0.999560 0.541139 -0.162045
C63   C     C_R   0.807837 0.500270 0.469681 -0.163788
C64   C     C_R   0.191809 0.500372 0.531338 -0.168562
H9    H     H_    0.272556 0.999794 0.457054 0.217150
H10   H     H_    0.729814 0.999541 0.532114 0.211239
H11   H     H_    0.770423 0.499920 0.464912 0.216489
H12   H     H_    0.229009 0.500081 0.536810 0.215696
C65   C     C_R   0.400499 0.000613 0.494224 -0.007292
C66   C     C_R   0.587303 0.999100 0.546218 -0.007013
C67   C     C_R   0.903937 0.501509 0.484125 -0.000066
C68   C     C_R   0.096357 0.501688 0.514763 -0.001981
C69   C     C_R   0.572972 0.874388 0.590421 0.281297
C70   C     C_R   0.422750 0.121240 0.431951 0.276463
C71   C     C_R   0.374935 0.885198 0.569460 0.294026
C72   C     C_R   0.583967 0.128056 0.548182 0.248475
C73   C     C_R   0.108823 0.377820 0.465135 0.289170
C74   C     C_R   0.918761 0.627221 0.441961 0.258522
C75   C     C_R   0.891908 0.377371 0.532882 0.285628
C76   C     C_R   0.080950 0.626974 0.558903 0.267249
C77   C     C_R   0.222817 0.769904 0.949303 0.052319
C78   C     C_R   0.789478 0.251200 0.038717 0.046611
C79   C     C_R   0.773693 0.777589 0.052588 0.050241
C80   C     C_R   0.214281 0.243991 0.958865 0.051761
C81   C     C_R   0.727684 0.281254 0.947357 0.050035
C82   C     C_R   0.278711 0.731759 0.048957 0.048704
C83   C     C_R   0.280383 0.264338 0.045340 0.050594
C84   C     C_R   0.712392 0.748100 0.960070 0.047920
C85   C     C_R   0.251924 0.705351 0.929967 0.012068
C86   C     C_R   0.749807 0.304310 0.072331 0.011635
C87   C     C_R   0.735026 0.722990 0.083205 0.007426
C88   C     C_R   0.261955 0.284036 0.916477 0.011826
C89   C     C_R   0.766345 0.226873 0.916089 0.012901
C90   C     C_R   0.249792 0.796480 0.068071 0.012056
C91   C     C_R   0.232346 0.224949 0.088169 0.011108
C92   C     C_R   0.752702 0.800664 0.926620 0.011308
C93   C     C_R   0.278688 0.685254 0.981893 0.030446
C94   C     C_R   0.721931 0.323364 0.021860 0.033444
C95   C     C_R   0.700442 0.714318 0.042650 0.034376
C96   C     C_R   0.296397 0.291062 0.957904 0.039028
C97   C     C_R   0.801134 0.217856 0.956163 0.030673
C98   C     C_R   0.222922 0.816505 0.016226 0.032668
C99   C     C_R   0.197880 0.217952 0.046663 0.033367
C100  C     C_R   0.779869 0.819925 0.978072 0.032599
C101  C     C_R   0.161936 0.850904 0.923125 -0.004993
C102  C     C_R   0.864422 0.188140 0.045200 -0.003511
C103  C     C_R   0.838927 0.852157 0.074573 -0.017790
C104  C     C_R   0.134792 0.190177 0.955581 0.005627
C105  C     C_R   0.662019 0.355561 0.926616 -0.010426
C106  C     C_R   0.338749 0.649978 0.076250 -0.017749
C107  C     C_R   0.361747 0.314281 0.046167 0.002458
C108  C     C_R   0.635836 0.688023 0.954788 0.002893
C109  C     C_R   0.124343 0.859954 0.887731 -0.196812
C110  C     C_R   0.886299 0.155945 0.099312 -0.166405
C111  C     C_R   0.875979 0.859675 0.111137 -0.194862
C112  C     C_R   0.110379 0.161705 0.903022 -0.180184
C113  C     C_R   0.626576 0.365208 0.887439 -0.192531
C114  C     C_R   0.375767 0.640079 0.112649 -0.202017
C115  C     C_R   0.388404 0.339308 0.096922 -0.176004
C116  C     C_R   0.610567 0.661100 0.903037 -0.183435
C117  C     C_R   0.132700 0.821608 0.809793 0.254924
C118  C     C_R   0.862156 0.169876 0.192043 0.263942
C119  C     C_R   0.867165 0.820492 0.188771 0.259456
C120  C     C_R   0.129698 0.183906 0.812830 0.263530
C121  C     C_R   0.638044 0.331246 0.806084 0.244104
C122  C     C_R   0.367078 0.678183 0.191029 0.260719
C123  C     C_R   0.370330 0.315360 0.186020 0.255179
C124  C     C_R   0.629137 0.683974 0.813295 0.265876
C125  C     C_R   0.176386 0.775132 0.770998 -0.136908
C126  C     C_R   0.822537 0.222988 0.229246 -0.184455
C127  C     C_R   0.822152 0.776035 0.228817 -0.160739
C128  C     C_R   0.175753 0.227496 0.772034 -0.170286
C129  C     C_R   0.679877 0.281451 0.770019 -0.146625
C130  C     C_R   0.323643 0.725101 0.228952 -0.156325
C131  C     C_R   0.323102 0.274033 0.228209 -0.156076
C132  C     C_R   0.674974 0.727994 0.772273 -0.164706
C133  C     C_R   0.198718 0.747598 0.826198 -0.042569
C134  C     C_R   0.804464 0.259537 0.172638 -0.070611
C135  C     C_R   0.797173 0.751791 0.175578 -0.076888
C136  C     C_R   0.199081 0.256445 0.825579 -0.073411
C137  C     C_R   0.703469 0.255673 0.824929 -0.048504
C138  C     C_R   0.301994 0.753285 0.173115 -0.081732
C139  C     C_R   0.297691 0.248087 0.176149 -0.047514
C140  C     C_R   0.696856 0.759270 0.826756 -0.074580
C141  C     C_R   0.193984 0.788817 0.900330 0.015771
C142  C     C_R   0.818984 0.232180 0.086191 0.003132
C143  C     C_R   0.804040 0.792882 0.099886 -0.001359
C144  C     C_R   0.182897 0.229579 0.912919 0.004379
C145  C     C_R   0.696971 0.296578 0.900604 0.008967
C146  C     C_R   0.307072 0.712401 0.098560 -0.003507
C147  C     C_R   0.312952 0.276501 0.089851 0.004996
C148  C     C_R   0.682169 0.730873 0.913047 0.002106
C149  C     C_R   0.171113 0.902089 0.976365 0.285007
C150  C     C_R   0.884795 0.178048 0.951589 0.310918
C151  C     C_R   0.833520 0.902506 0.016374 0.278420
C152  C     C_R   0.112600 0.184183 0.050098 0.304451
C153  C     C_R   0.666927 0.405130 0.985959 0.283994
C154  C     C_R   0.329625 0.599048 0.022728 0.277550
C155  C     C_R   0.382673 0.321586 0.952097 0.308632
C156  C     C_R   0.616107 0.676616 0.048183 0.316817
C157  C     C_R   0.199482 0.884228 0.023979 -0.192633
C158  C     C_R   0.850854 0.184243 0.911094 -0.181578
C159  C     C_R   0.808242 0.884249 0.964019 -0.196760
C160  C     C_R   0.145174 0.192405 0.093183 -0.187517
C161  C     C_R   0.692680 0.386849 0.037502 -0.195935
C162  C     C_R   0.301765 0.617320 0.974464 -0.196362
C163  C     C_R   0.349156 0.315935 0.910632 -0.194543
C164  C     C_R   0.650515 0.681111 0.087799 -0.192141
C165  C     C_R   0.225916 0.681649 0.809567 0.374470
C166  C     C_R   0.771846 0.321424 0.198164 0.351738
C167  C     C_R   0.765190 0.689189 0.195230 0.354263
C168  C     C_R   0.237096 0.312975 0.797135 0.352839
C169  C     C_R   0.734787 0.192665 0.805945 0.371505
C170  C     C_R   0.275198 0.819523 0.189422 0.354612
C171  C     C_R   0.258778 0.192553 0.204704 0.378920
C172  C     C_R   0.731642 0.819362 0.800271 0.351004
C173  C     C_R   0.253299 0.662804 0.859047 -0.217843
C174  C     C_R   0.742510 0.339960 0.151477 -0.250527
C175  C     C_R   0.732562 0.677877 0.152379 -0.253157
C176  C     C_R   0.270903 0.321686 0.838130 -0.255918
C177  C     C_R   0.768084 0.181619 0.847638 -0.209051
C178  C     C_R   0.248455 0.838993 0.139039 -0.242381
C179  C     C_R   0.223644 0.186544 0.165846 -0.196773
C180  C     C_R   0.761396 0.835973 0.846694 -0.247810
H13   H     H_    0.206018 0.926765 0.061293 0.176595
H14   H     H_    0.866664 0.172264 0.840413 0.185038
H15   H     H_    0.805483 0.925276 0.920898 0.177795
H16   H     H_    0.127049 0.185673 0.165128 0.184978
H17   H     H_    0.694915 0.427497 0.081382 0.176996
H18   H     H_    0.295133 0.574859 0.937156 0.177007
H19   H     H_    0.366790 0.323170 0.838797 0.176705
H20   H     H_    0.634813 0.668427 0.158317 0.174755
H21   H     H_    0.275157 0.613513 0.840568 0.181496
H22   H     H_    0.715014 0.383805 0.177565 0.185869
H23   H     H_    0.707812 0.630496 0.169232 0.192239
H24   H     H_    0.300964 0.363164 0.813330 0.191092
H25   H     H_    0.792680 0.134237 0.830752 0.185345
H26   H     H_    0.227017 0.888617 0.157000 0.186414
H27   H     H_    0.193027 0.145797 0.190976 0.184300
H28   H     H_    0.790187 0.878606 0.820185 0.186317
O33   O     O_R   0.051640 0.926880 0.885090 -0.520538
O34   O     O_R   0.948360 0.073120 0.114910 -0.511236
O35   O     O_R   0.948360 0.926880 0.114910 -0.518868
O36   O     O_R   0.051640 0.073120 0.885090 -0.517875
O37   O     O_R   0.551640 0.426880 0.885090 -0.512733
O38   O     O_R   0.448360 0.573120 0.114910 -0.515833
O39   O     O_R   0.448360 0.426880 0.114910 -0.521703
O40   O     O_R   0.551640 0.573120 0.885090 -0.520266
Cu9   Cu    Cu3+1 0.495240 0.500000 0.924150 1.180841
Cu10  Cu    Cu3+1 0.504760 0.500000 0.075850 1.171960
Cu11  Cu    Cu3+1 0.995240 0.000000 0.924150 1.174313
Cu12  Cu    Cu3+1 0.004760 0.000000 0.075850 1.180601
C181  C     C_R   0.923739 0.906644 0.069076 0.868341
C182  C     C_R   0.070554 0.101717 0.936306 0.856705
C183  C     C_R   0.076640 0.907164 0.930530 0.862497
C184  C     C_R   0.927981 0.099512 0.064751 0.866590
C185  C     C_R   0.429103 0.398521 0.063770 0.861416
C186  C     C_R   0.570713 0.601395 0.936212 0.857388
C187  C     C_R   0.577485 0.409251 0.930079 0.856130
C188  C     C_R   0.423432 0.592928 0.069538 0.854596
O41   O     O_R   0.940620 0.926560 0.986760 -0.566544
O42   O     O_R   0.059380 0.073440 0.013240 -0.552881
O43   O     O_R   0.059380 0.926560 0.013240 -0.564543
O44   O     O_R   0.940620 0.073440 0.986760 -0.558746
O45   O     O_R   0.440620 0.426560 0.986760 -0.552006
O46   O     O_R   0.559380 0.573440 0.013240 -0.551410
O47   O     O_R   0.559380 0.426560 0.013240 -0.572280
O48   O     O_R   0.440620 0.573440 0.986760 -0.567344
N1    N     N_R   0.581909 0.818702 0.641345 0.128873
O49   O     O_R   0.583572 0.752286 0.617645 -0.312826
O50   O     O_R   0.592548 0.834913 0.707500 -0.298555
N2    N     N_R   0.421321 0.170816 0.367003 0.130451
O51   O     O_R   0.415283 0.147068 0.298806 -0.296566
O52   O     O_R   0.419975 0.239267 0.380383 -0.310631
N3    N     N_R   0.328159 0.850677 0.637723 0.116520
O53   O     O_R   0.284370 0.887157 0.679757 -0.388466
O54   O     O_R   0.329211 0.785382 0.662887 -0.376384
N4    N     N_R   0.577101 0.181508 0.614826 0.167011
O55   O     O_R   0.587563 0.165609 0.681356 -0.277606
O56   O     O_R   0.552839 0.241320 0.617880 -0.296692
N5    N     N_R   0.147691 0.336496 0.391787 0.138123
O57   O     O_R   0.193432 0.365159 0.338552 -0.381338
O58   O     O_R   0.135878 0.274446 0.370644 -0.365304
N6    N     N_R   0.921722 0.675357 0.371952 0.154612
O59   O     O_R   0.908474 0.652668 0.310834 -0.287297
O60   O     O_R   0.943258 0.738278 0.361789 -0.304350
N7    N     N_R   0.853385 0.335895 0.606832 0.139907
O61   O     O_R   0.807943 0.364476 0.660986 -0.384189
O62   O     O_R   0.865239 0.273634 0.627285 -0.360177
N8    N     N_R   0.078996 0.675091 0.627782 0.145976
O63   O     O_R   0.084656 0.650127 0.695852 -0.280084
O64   O     O_R   0.074153 0.743553 0.621699 -0.309496
N9    N     N_R   0.095523 0.826324 0.772292 0.166806
O65   O     O_R   0.098893 0.878461 0.718396 -0.278338
O66   O     O_R   0.053460 0.785429 0.803556 -0.263827
N10   N     N_R   0.874536 0.125024 0.250133 0.149083
O67   O     O_R   0.848699 0.065410 0.279850 -0.341405
O68   O     O_R   0.911952 0.143383 0.272423 -0.274823
N11   N     N_R   0.905438 0.821940 0.224246 0.168457
O69   O     O_R   0.903893 0.872336 0.278984 -0.272890
O70   O     O_R   0.947112 0.780740 0.189275 -0.261210
N12   N     N_R   0.101093 0.164568 0.762779 0.158071
O71   O     O_R   0.111504 0.104176 0.719803 -0.299658
O72   O     O_R   0.076641 0.214155 0.740753 -0.288305
N13   N     N_R   0.608807 0.350392 0.757217 0.157213
O73   O     O_R   0.618998 0.410332 0.713094 -0.296425
O74   O     O_R   0.576697 0.304495 0.748383 -0.209174
N14   N     N_R   0.402233 0.671165 0.232439 0.162436
O75   O     O_R   0.399891 0.613888 0.278281 -0.292164
O76   O     O_R   0.423532 0.728488 0.246811 -0.283210
N15   N     N_R   0.402428 0.329057 0.231735 0.166377
O77   O     O_R   0.393044 0.384993 0.282762 -0.292009
O78   O     O_R   0.447713 0.295821 0.205935 -0.271332
N16   N     N_R   0.599340 0.665268 0.765034 0.174336
O79   O     O_R   0.612015 0.608235 0.715337 -0.289588
O80   O     O_R   0.552650 0.694024 0.788544 -0.275179
Br1   Br    Br    0.165204 0.002103 0.960526 -0.514078
Br2   Br    Br    0.959252 0.189804 0.871664 -0.373634
Br3   Br    Br    0.836159 0.002442 0.035125 -0.534172
Br4   Br    Br    0.037023 0.193791 0.126158 -0.405548
Br5   Br    Br    0.663061 0.505181 0.969654 -0.527587
Br6   Br    Br    0.334650 0.498981 0.039265 -0.521214
Br7   Br    Br    0.457192 0.308035 0.873801 -0.333232
Br8   Br    Br    0.541865 0.687729 0.130161 -0.365318
N17   N     N_R   0.220947 0.629224 0.750685 0.125998
O81   O     O_R   0.175175 0.619191 0.749516 -0.320634
O82   O     O_R   0.259950 0.585304 0.706833 -0.300478
N18   N     N_R   0.774660 0.372087 0.260760 0.146692
O83   O     O_R   0.734549 0.414109 0.305779 -0.309512
O84   O     O_R   0.819651 0.382558 0.264595 -0.341681
N19   N     N_R   0.769933 0.632810 0.249929 0.141809
O85   O     O_R   0.815929 0.619193 0.248624 -0.303108
O86   O     O_R   0.730064 0.589643 0.292928 -0.313045
N20   N     N_R   0.235669 0.368725 0.738722 0.149450
O87   O     O_R   0.277841 0.407579 0.693165 -0.314767
O88   O     O_R   0.190677 0.385919 0.738269 -0.327940
N21   N     N_R   0.728661 0.135722 0.753346 0.133355
O89   O     O_R   0.682253 0.123098 0.755627 -0.318619
O90   O     O_R   0.767605 0.091267 0.711321 -0.300805
N22   N     N_R   0.279924 0.871501 0.249035 0.138062
O91   O     O_R   0.241235 0.916130 0.291797 -0.307320
O92   O     O_R   0.325302 0.880391 0.252025 -0.330204
N23   N     N_R   0.260812 0.134602 0.259925 0.137705
O93   O     O_R   0.306262 0.115409 0.257190 -0.318908
O94   O     O_R   0.218464 0.096217 0.306056 -0.307653
N24   N     N_R   0.730149 0.871327 0.737832 0.144020
O95   O     O_R   0.771986 0.910252 0.690634 -0.315670
O96   O     O_R   0.685017 0.886534 0.736793 -0.306152

loop_
_geom_bond_atom_site_label_1
_geom_bond_atom_site_label_2
_geom_bond_distance
_ccdc_geom_bond_type
N16   O80   1.301231 A    
Cu2   Cu5   2.671418 S    
C59   C64   1.397729 A    
C23   C70   1.420547 A    
C119  C127  1.403416 A    
N9    O65   1.302397 A    
O37   C187  1.295670 A    
C187  O47   1.288947 A    
C118  C126  1.412387 A    
C75   N7    1.447905 S    
C4    C131  1.496281 S    
C69   N1    1.436607 S    
C83   C147  1.426570 A    
C38   C40   1.423674 A    
Cu6   O22   1.962353 S    
C6    O22   1.297367 A    
C117  C125  1.403047 A    
C86   C174  1.412168 A    
Cu4   O28   1.968511 S    
C165  N17   1.440302 S    
C112  C182  1.502050 S    
O3    Cu3   1.965292 S    
C36   C43   1.400894 A    
C155  C163  1.394862 A    
C178  H26   1.075690 S    
C49   C57   1.428180 A    
C154  C162  1.390046 A    
C91   C99   1.421232 A    
C25   C27   1.400549 A    
O25   C9    1.285839 A    
C136  C168  1.422502 A    
C101  C149  1.407372 A    
C29   C31   1.394209 A    
N12   O72   1.301001 A    
C114  C122  1.413799 A    
C88   C176  1.405683 A    
C45   C71   1.424579 A    
C105  C153  1.409279 A    
C97   C158  1.401706 A    
C38   C42   1.399477 A    
C45   C53   1.425112 A    
N20   O87   1.301720 A    
C3    O19   1.296769 A    
N17   O81   1.301405 A    
C101  C109  1.426756 A    
N14   O75   1.302690 A    
C172  N24   1.440166 S    
O35   Cu12  1.965829 S    
C176  H24   1.081321 S    
C13   C54   1.493361 S    
O38   C188  1.291335 A    
C152  C160  1.397564 A    
N13   O74   1.297635 A    
O13   Cu5   1.952237 S    
O33   C183  1.293395 A    
C50   C68   1.414325 A    
O34   C184  1.302086 A    
H2    C31   1.075796 S    
C100  C159  1.403465 A    
C34   C36   1.404363 A    
C48   C56   1.436402 A    
H6    C27   1.079855 S    
C163  H19   1.081702 S    
N8    O63   1.301460 A    
C78   C86   1.409113 A    
C139  C171  1.423900 A    
C123  C131  1.415908 A    
C137  C145  1.418943 A    
C124  C132  1.415652 A    
C81   C145  1.423360 A    
C179  H27   1.081240 S    
C150  Br2   1.917806 S    
C16   C55   1.499121 S    
N18   O83   1.301692 A    
O2    C13   1.307306 A    
C70   N2    1.441318 S    
C107  C155  1.415729 A    
C9    C58   1.484082 S    
H7    C26   1.080846 S    
C50   C58   1.429915 A    
C60   C63   1.397671 A    
C7    C128  1.498166 S    
Cu12  O43   1.976069 S    
N6    O60   1.299990 A    
Cu3   O19   1.960754 S    
N4    O56   1.300989 A    
O10   Cu2   1.952237 S    
N22   O91   1.301632 A    
C106  C146  1.415310 A    
C159  H15   1.079078 S    
C140  C148  1.412599 A    
C84   C148  1.422858 A    
C108  C148  1.413619 A    
C93   C162  1.409389 A    
O4    Cu4   1.965294 S    
C77   C85   1.414720 A    
C40   C41   1.415975 A    
C46   C54   1.428775 A    
C167  N19   1.440597 S    
C130  C138  1.420127 A    
C89   C177  1.406966 A    
C166  C174  1.403696 A    
C73   N5    1.447852 S    
N15   O78   1.300911 A    
Cu10  O46   1.971271 S    
C14   C53   1.481183 S    
C21   C29   1.399812 A    
N23   O93   1.301894 A    
O32   C16   1.286853 A    
C122  C130  1.402549 A    
C23   C31   1.411841 A    
N13   O73   1.302793 A    
C34   C44   1.401712 A    
N7    O62   1.300508 A    
C134  C166  1.420386 A    
C150  C158  1.393599 A    
C26   C28   1.401687 A    
C55   C62   1.403823 A    
C166  N18   1.440435 S    
C169  N21   1.440648 S    
C162  H18   1.076806 S    
O7    C12   1.304411 A    
C138  C170  1.414232 A    
C30   C32   1.391495 A    
C174  H22   1.077216 S    
C18   C26   1.408265 A    
C120  N12   1.436530 S    
Cu9   Cu10  2.660543 S    
C117  N9    1.435043 S    
C85   C173  1.414137 A    
C107  C115  1.433622 A    
C10   C57   1.481951 S    
H8    C25   1.077029 S    
C62   H10   1.083244 S    
C181  O41   1.291733 A    
O36   C182  1.304036 A    
C177  H25   1.082251 S    
O28   C12   1.284933 A    
O16   C3    1.300785 A    
C183  O43   1.294913 A    
O29   C13   1.288305 A    
N1    O49   1.301915 A    
H1    C32   1.077658 S    
C151  C159  1.389264 A    
C45   C65   1.412161 A    
C103  C151  1.409726 A    
H3    C30   1.074528 S    
C149  C157  1.390875 A    
C33   C35   1.410747 A    
C47   C55   1.441577 A    
N17   O82   1.301610 A    
Cu5   O29   1.965304 S    
H5    C28   1.080823 S    
C52   C60   1.429717 A    
Cu7   O31   1.968511 S    
C99   C160  1.406509 A    
Cu8   O32   1.968511 S    
C48   C65   1.423147 A    
C103  C143  1.411768 A    
N2    O51   1.301431 A    
C105  C113  1.421094 A    
C103  C111  1.424057 A    
C15   C56   1.495261 S    
C153  Br5   1.906064 S    
C180  H28   1.077995 S    
C126  C134  1.429323 A    
C49   C67   1.415183 A    
C108  C156  1.417794 A    
C109  C183  1.492159 S    
Cu4   Cu7   2.667972 S    
C110  C184  1.488414 S    
C188  O48   1.296627 A    
N5    O57   1.302105 A    
O5    Cu5   1.961594 S    
C52   C67   1.415011 A    
O9    C6    1.299463 A    
O35   C181  1.292957 A    
C74   N6    1.448425 S    
C185  O45   1.288500 A    
O26   C10   1.285507 A    
O11   C8    1.303739 A    
C19   C33   1.402397 A    
O12   C7    1.302421 A    
C43   C67   1.407005 A    
O13   C2    1.303124 A    
C112  C120  1.415062 A    
C19   C27   1.407483 A    
C169  C177  1.403924 A    
C64   H12   1.083501 S    
C1    C130  1.491288 S    
C115  C123  1.412308 A    
C116  C124  1.414181 A    
C134  C142  1.409952 A    
C41   C65   1.413031 A    
Cu11  O41   1.971271 S    
C20   C28   1.408476 A    
C164  H20   1.082504 S    
O1    Cu1   1.961594 S    
C20   C34   1.401289 A    
O14   Cu6   1.952237 S    
C44   C68   1.406848 A    
C24   C32   1.405663 A    
C118  N10   1.437225 S    
C46   C66   1.414176 A    
C47   C69   1.431266 A    
C86   C94   1.424696 A    
O7    Cu7   1.965292 S    
C107  C147  1.414831 A    
O8    Cu8   1.965294 S    
Cu12  O42   1.971271 S    
C79   C87   1.407164 A    
C153  C161  1.388503 A    
O37   Cu9   1.970227 S    
C101  C141  1.415297 A    
C170  C178  1.399934 A    
N24   O95   1.301747 A    
N3    O53   1.301993 A    
C91   C179  1.405018 A    
C20   C73   1.412142 A    
C165  C173  1.398732 A    
C72   N4    1.445882 S    
C24   C69   1.426453 A    
C108  C116  1.429421 A    
O11   Cu3   1.951532 S    
N8    O64   1.300022 A    
C42   C66   1.417826 A    
C85   C93   1.425118 A    
C104  C144  1.414871 A    
N20   O88   1.301880 A    
C127  C135  1.427027 A    
C53   C61   1.396638 A    
O6    Cu6   1.961592 S    
C125  C133  1.420469 A    
C168  C176  1.401350 A    
C87   C175  1.407079 A    
C128  C136  1.427475 A    
C124  N16   1.436356 S    
C129  C137  1.430825 A    
C154  Br6   1.911256 S    
C12   C59   1.485032 S    
Cu3   O27   1.968511 S    
C132  C140  1.428461 A    
N21   O90   1.301644 A    
C111  C119  1.411197 A    
C21   C39   1.399868 A    
C155  Br7   1.918924 S    
C120  C128  1.414898 A    
C50   C76   1.431484 A    
N16   O79   1.303071 A    
C57   C63   1.397941 A    
O39   Cu10  1.965829 S    
C121  C129  1.406355 A    
C184  O44   1.284003 A    
C79   C100  1.418541 A    
Cu1   O17   1.962352 S    
C170  N22   1.440767 S    
C102  C150  1.416549 A    
C171  C179  1.401876 A    
N9    O66   1.300495 A    
C123  N15   1.436293 S    
N11   O69   1.302294 A    
C106  C154  1.406781 A    
C17   C76   1.418776 A    
C140  C172  1.422245 A    
N18   O84   1.301791 A    
C19   C74   1.418535 A    
N7    O61   1.302109 A    
C37   C41   1.403728 A    
C58   C64   1.398732 A    
O39   C185  1.307833 A    
C21   C72   1.405278 A    
C116  C186  1.498475 S    
C115  C185  1.505428 S    
C182  O42   1.291100 A    
N19   O85   1.301644 A    
C110  C118  1.409576 A    
C119  N11   1.435357 S    
O30   C14   1.290010 A    
N22   O92   1.301706 A    
C121  N13   1.434057 S    
Cu6   O30   1.965304 S    
C5    C126  1.489992 S    
O4    C15   1.310248 A    
C152  Br4   1.927000 S    
C52   C74   1.430279 A    
O5    C10   1.304385 A    
C54   C62   1.400974 A    
C138  C146  1.414254 A    
C82   C93   1.419617 A    
N12   O71   1.303148 A    
Cu9   O48   1.976067 S    
Cu10  O47   1.976069 S    
C92   C180  1.408780 A    
N2    O52   1.301067 A    
C78   C142  1.420638 A    
C149  Br1   1.911794 S    
C102  C110  1.430579 A    
C24   C38   1.411459 A    
N23   O94   1.301739 A    
C151  Br3   1.907325 S    
C80   C88   1.412168 A    
C51   C59   1.429092 A    
C81   C89   1.407608 A    
Cu1   Cu6   2.671418 S    
C48   C70   1.426347 A    
C90   C98   1.425972 A    
Cu2   O26   1.965304 S    
Cu3   Cu8   2.667972 S    
C84   C92   1.409529 A    
O10   C5    1.300096 A    
O27   C11   1.284770 A    
O15   C4    1.302770 A    
C156  Br8   1.920444 S    
C186  O46   1.289135 A    
C160  H16   1.081788 S    
C105  C145  1.411519 A    
C158  H14   1.082664 S    
O14   C1    1.300789 A    
C94   C161  1.402664 A    
C90   C178  1.414804 A    
N15   O77   1.302892 A    
C33   C43   1.401236 A    
C2    C129  1.490330 S    
Cu5   O21   1.962352 S    
C4    O20   1.292891 A    
C92   C100  1.423188 A    
C39   C42   1.408269 A    
C5    O21   1.292805 A    
C80   C99   1.411806 A    
C81   C94   1.420828 A    
C167  C175  1.403328 A    
O36   Cu11  1.965829 S    
C22   C30   1.408425 A    
C49   C75   1.429905 A    
C22   C40   1.411213 A    
C88   C96   1.419607 A    
C89   C97   1.414760 A    
C51   C73   1.429523 A    
C135  C167  1.421063 A    
C35   C44   1.402959 A    
C87   C95   1.414921 A    
C133  C165  1.414292 A    
N6    O59   1.302062 A    
C139  C147  1.410283 A    
C161  H17   1.078365 S    
C172  C180  1.401070 A    
C175  H23   1.082222 S    
N4    O55   1.302318 A    
C137  C169  1.421127 A    
C17   C35   1.403973 A    
C82   C90   1.415042 A    
O38   Cu10  1.970223 S    
C113  C121  1.401779 A    
C17   C25   1.410695 A    
C18   C75   1.412339 A    
C173  H21   1.075722 S    
C3    C132  1.500207 S    
Cu8   O24   1.960752 S    
C51   C68   1.417338 A    
C23   C37   1.415486 A    
C22   C71   1.421217 A    
C2    O18   1.291664 A    
C11   C60   1.484737 S    
C79   C143  1.421775 A    
C8    C127  1.492547 S    
C168  N20   1.441478 S    
C61   H9    1.083586 S    
O15   Cu7   1.951532 S    
O16   Cu8   1.951532 S    
O12   Cu4   1.951532 S    
O33   Cu11  1.970227 S    
O34   Cu12  1.970223 S    
C157  H13   1.076790 S    
C37   C39   1.413386 A    
C47   C66   1.415605 A    
H4    C29   1.082791 S    
C98   C157  1.409487 A    
C95   C164  1.400145 A    
Cu4   O20   1.960752 S    
N11   O70   1.300480 A    
O1    C14   1.299774 A    
O3    C16   1.311349 A    
O40   Cu9   1.965829 S    
C78   C97   1.412876 A    
Cu2   O18   1.962353 S    
O8    C11   1.305483 A    
C136  C144  1.411274 A    
O9    Cu1   1.952237 S    
N10   O67   1.301615 A    
N19   O86   1.301600 A    
N24   O96   1.301271 A    
N1    O50   1.300951 A    
N14   O76   1.301368 A    
Cu11  Cu12  2.660543 S    
C104  C152  1.417983 A    
C96   C163  1.404584 A    
O31   C15   1.286702 A    
C82   C146  1.425106 A    
O40   C186  1.303361 A    
C111  C181  1.486305 S    
C135  C143  1.416736 A    
C133  C141  1.414618 A    
O2    Cu2   1.961592 S    
C131  C139  1.430353 A    
C77   C141  1.425102 A    
C76   N8    1.443703 S    
Cu9   O45   1.971271 S    
C109  C117  1.412108 A    
C77   C98   1.419681 A    
C71   N3    1.446459 S    
Cu7   O23   1.960754 S    
N10   O68   1.302519 A    
C83   C91   1.413595 A    
N5    O58   1.300513 A    
C6    C125  1.490802 S    
C7    O23   1.293375 A    
C8    O24   1.291626 A    
O6    C9    1.306645 A    
Cu1   O25   1.965304 S    
C84   C95   1.413658 A    
C18   C36   1.400944 A    
C102  C142  1.411318 A    
C106  C114  1.426486 A    
C104  C112  1.432987 A    
C156  C164  1.391382 A    
C83   C96   1.412437 A    
C113  C187  1.484708 S    
C1    O17   1.295270 A    
C80   C144  1.424730 A    
C114  C188  1.491211 S    
C56   C61   1.395695 A    
C63   H11   1.083498 S    
C122  N14   1.437424 S    
N21   O89   1.301761 A    
C171  N23   1.441757 S    
Cu11  O44   1.976067 S    
N3    O54   1.298900 A    
C46   C72   1.421051 A    
