data_mof_unit_64397.cif
_audit_creation_date              2013-03-05T16:17:43-0500
_audit_creation_method            fapswitch 2.2
_symmetry_space_group_name_H-M    P1
_symmetry_Int_Tables_number       1
_space_group_crystal_system       triclinic
_cell_length_a                    28.47946
_cell_length_b                    26.391265
_cell_length_c                    18.122466
_cell_angle_alpha                 90.088897
_cell_angle_beta                  89.984042
_cell_angle_gamma                 90.586775
_cell_volume                      13620.2769595

loop_
_atom_site_label
_atom_site_type_symbol
_atom_site_description
_atom_site_fract_x
_atom_site_fract_y
_atom_site_fract_z
_atom_type_partial_charge
O1    O     O_R   0.049930 0.450080 0.561970 -0.543644
O2    O     O_R   0.950070 0.549920 0.438030 -0.543091
O3    O     O_R   0.950070 0.549920 0.561970 -0.543405
O4    O     O_R   0.049930 0.450080 0.438030 -0.542836
O5    O     O_R   0.950070 0.450080 0.438030 -0.547793
O6    O     O_R   0.049930 0.549920 0.561970 -0.546937
O7    O     O_R   0.049930 0.549920 0.438030 -0.548708
O8    O     O_R   0.950070 0.450080 0.561970 -0.547818
O9    O     O_R   0.549930 0.950080 0.561970 -0.543133
O10   O     O_R   0.450070 0.049920 0.438030 -0.543671
O11   O     O_R   0.450070 0.049920 0.561970 -0.542789
O12   O     O_R   0.549930 0.950080 0.438030 -0.543368
O13   O     O_R   0.450070 0.950080 0.438030 -0.546887
O14   O     O_R   0.549930 0.049920 0.561970 -0.547620
O15   O     O_R   0.549930 0.049920 0.438030 -0.547866
O16   O     O_R   0.450070 0.950080 0.561970 -0.548755
C1    C     C_R   0.068290 0.435376 0.499959 0.877622
C2    C     C_R   0.931702 0.564616 0.500065 0.877600
C3    C     C_R   0.929767 0.438417 0.499998 0.874467
C4    C     C_R   0.070233 0.561583 0.500028 0.874463
C5    C     C_R   0.568304 0.935391 0.499936 0.877611
C6    C     C_R   0.431705 0.064620 0.500038 0.877662
C7    C     C_R   0.429761 0.938428 0.499976 0.874475
C8    C     C_R   0.570231 0.061585 0.499999 0.874520
C9    C     C_R   0.004667 0.545431 0.198754 0.144942
C10   C     C_R   0.995106 0.454615 0.801291 0.144614
C11   C     C_R   0.995427 0.454643 0.198486 0.144857
C12   C     C_R   0.004842 0.545336 0.801535 0.144583
C13   C     C_R   0.504904 0.045384 0.198709 0.144648
C14   C     C_R   0.495277 0.954546 0.801224 0.144977
C15   C     C_R   0.495168 0.954663 0.198463 0.144570
C16   C     C_R   0.504552 0.045330 0.801539 0.144815
Cu1   Cu    Cu3+1 0.000000 0.500000 0.573360 1.098187
Cu2   Cu    Cu3+1 0.000000 0.500000 0.426640 1.098306
Cu3   Cu    Cu3+1 0.500000 0.000000 0.573360 1.098347
Cu4   Cu    Cu3+1 0.500000 0.000000 0.426640 1.098206
N1    N     N_R   0.000000 0.500000 0.316380 -0.314358
N2    N     N_R   0.000000 0.500000 0.683620 -0.313916
N3    N     N_R   0.500000 0.000000 0.316380 -0.313912
N4    N     N_R   0.500000 0.000000 0.683620 -0.314323
N5    N     N_R   0.027400 0.467421 0.036789 -0.129911
N6    N     N_R   0.972640 0.532607 0.963222 -0.129930
N7    N     N_R   0.972684 0.532644 0.036980 -0.129989
N8    N     N_R   0.027353 0.467381 0.963031 -0.130033
N9    N     N_R   0.527337 0.967372 0.036771 -0.129920
N10   N     N_R   0.472562 0.032550 0.963218 -0.129888
N11   N     N_R   0.472631 0.032606 0.036975 -0.130031
N12   N     N_R   0.527271 0.967319 0.963013 -0.130009
C17   C     C_R   0.006542 0.544813 0.277228 0.354999
C18   C     C_R   0.993141 0.455235 0.722816 0.353976
C19   C     C_R   0.993430 0.455209 0.276962 0.354229
C20   C     C_R   0.006894 0.544751 0.723056 0.353285
C21   C     C_R   0.506863 0.044764 0.277186 0.354012
C22   C     C_R   0.493434 0.955183 0.722750 0.355077
C23   C     C_R   0.493106 0.955247 0.276941 0.353205
C24   C     C_R   0.506588 0.044781 0.723064 0.354081
C25   C     C_R   0.861960 0.394914 0.566542 0.127104
C26   C     C_R   0.136481 0.607554 0.433505 0.127824
C27   C     C_R   0.137960 0.605282 0.566666 0.127149
C28   C     C_R   0.863599 0.392264 0.433385 0.127779
C29   C     C_R   0.130614 0.383910 0.432275 0.112119
C30   C     C_R   0.869842 0.616712 0.567878 0.111877
C31   C     C_R   0.871048 0.618000 0.432554 0.119799
C32   C     C_R   0.128352 0.381210 0.567517 0.119586
C33   C     C_R   0.363472 0.892584 0.566565 0.127851
C34   C     C_R   0.638035 0.105065 0.433426 0.127118
C35   C     C_R   0.636386 0.107789 0.566578 0.127746
C36   C     C_R   0.362021 0.894699 0.433397 0.127102
C37   C     C_R   0.630197 0.883313 0.432145 0.111740
C38   C     C_R   0.369315 0.116058 0.567679 0.111718
C39   C     C_R   0.371533 0.118603 0.432417 0.119512
C40   C     C_R   0.629011 0.882097 0.567474 0.119802
C41   C     C_R   0.828284 0.355683 0.567447 0.263238
C42   C     C_R   0.169523 0.647532 0.433467 0.263275
C43   C     C_R   0.171613 0.644535 0.567595 0.263252
C44   C     C_R   0.830559 0.352289 0.433331 0.263249
C45   C     C_R   0.165432 0.346511 0.432820 0.256024
C46   C     C_R   0.834961 0.654038 0.567176 0.255530
C47   C     C_R   0.837167 0.656401 0.433237 0.253440
C48   C     C_R   0.162178 0.342761 0.566632 0.253143
C49   C     C_R   0.330401 0.852633 0.566689 0.263350
C50   C     C_R   0.671702 0.144305 0.432480 0.263285
C51   C     C_R   0.669416 0.147773 0.566592 0.263220
C52   C     C_R   0.328341 0.855472 0.432552 0.263166
C53   C     C_R   0.665126 0.846032 0.432878 0.255497
C54   C     C_R   0.334375 0.153338 0.567059 0.255948
C55   C     C_R   0.337603 0.156940 0.433226 0.253041
C56   C     C_R   0.662931 0.843739 0.566826 0.253399
C57   C     C_R   0.814257 0.332420 0.500938 -0.236645
C58   C     C_R   0.185723 0.667612 0.501085 -0.236633
C59   C     C_R   0.180301 0.325235 0.499493 -0.227373
C60   C     C_R   0.819534 0.674586 0.500333 -0.227365
C61   C     C_R   0.314200 0.832488 0.499114 -0.236636
C62   C     C_R   0.685716 0.167611 0.498964 -0.236643
C63   C     C_R   0.680581 0.825543 0.499749 -0.227357
C64   C     C_R   0.319434 0.174477 0.500321 -0.227327
C65   C     C_R   0.999969 0.499971 0.924461 0.549527
C66   C     C_R   0.000069 0.500054 0.075554 0.549274
C67   C     C_R   0.499879 0.999905 0.924446 0.549282
C68   C     C_R   0.500025 0.000021 0.075538 0.549518
C69   C     C_R   0.885208 0.407780 0.500045 -0.286208
C70   C     C_R   0.114792 0.592225 0.500143 -0.286215
C71   C     C_R   0.109347 0.399987 0.499879 -0.269155
C72   C     C_R   0.890607 0.599960 0.500219 -0.269201
C73   C     C_R   0.385186 0.907814 0.499897 -0.286227
C74   C     C_R   0.614786 0.092230 0.499934 -0.286230
C75   C     C_R   0.609425 0.900079 0.499795 -0.269190
C76   C     C_R   0.390597 0.099949 0.500092 -0.269118
N13   N     N_R   0.790448 0.246795 0.461984 -0.131697
N14   N     N_R   0.259897 0.708424 0.539518 -0.118147
N15   N     N_R   0.209559 0.753126 0.462003 -0.131651
N16   N     N_R   0.739975 0.291808 0.539139 -0.118144
N17   N     N_R   0.209509 0.242013 0.537039 -0.124739
N18   N     N_R   0.790061 0.757482 0.461815 -0.124669
N19   N     N_R   0.742910 0.707217 0.538674 -0.125858
N20   N     N_R   0.257257 0.293006 0.462116 -0.125964
N21   N     N_R   0.239998 0.791705 0.460771 -0.118133
N22   N     N_R   0.709513 0.253249 0.537875 -0.131703
N23   N     N_R   0.759986 0.208236 0.460721 -0.118136
N24   N     N_R   0.290335 0.747003 0.538287 -0.131678
N25   N     N_R   0.710084 0.742680 0.538327 -0.124697
N26   N     N_R   0.290156 0.257624 0.462637 -0.124808
N27   N     N_R   0.242409 0.206628 0.537561 -0.125942
N28   N     N_R   0.757234 0.792946 0.461469 -0.125864
C77   C     C_R   0.218901 0.710856 0.501647 0.506263
C78   C     C_R   0.781054 0.289205 0.501475 0.506371
C79   C     C_R   0.783460 0.714049 0.500504 0.518724
C80   C     C_R   0.216368 0.285765 0.499216 0.518429
C81   C     C_R   0.718909 0.210837 0.498389 0.506332
C82   C     C_R   0.280997 0.789269 0.498633 0.506335
C83   C     C_R   0.283302 0.213876 0.500469 0.519146
C84   C     C_R   0.716683 0.786110 0.499634 0.519030
C85   C     C_R   0.000071 0.500046 0.158667 -0.246926
C86   C     C_R   0.999958 0.499970 0.841355 -0.246673
C87   C     C_R   0.500050 0.000028 0.158644 -0.246668
C88   C     C_R   0.499879 0.999922 0.841334 -0.246910
N29   N     N_R   0.018693 0.591748 0.313774 0.172498
O17   O     O_R   0.988870 0.613926 0.356780 -0.277701
O18   O     O_R   0.053186 0.619244 0.288212 -0.240145
N30   N     N_R   0.980517 0.408385 0.686369 0.172320
O19   O     O_R   0.009635 0.386365 0.642003 -0.278101
O20   O     O_R   0.946103 0.380978 0.712414 -0.241320
N31   N     N_R   0.981054 0.408272 0.313177 0.171994
O21   O     O_R   0.010352 0.386370 0.357239 -0.280122
O22   O     O_R   0.946885 0.380605 0.286842 -0.239166
N32   N     N_R   0.019695 0.591600 0.686905 0.171812
O23   O     O_R   0.991038 0.613364 0.641663 -0.280399
O24   O     O_R   0.053828 0.619166 0.713598 -0.240538
N33   N     N_R   0.519477 0.091612 0.313639 0.172335
O25   O     O_R   0.490331 0.113649 0.357941 -0.278036
O26   O     O_R   0.553915 0.119003 0.287638 -0.241393
N34   N     N_R   0.481304 0.908259 0.686167 0.172561
O27   O     O_R   0.511194 0.886039 0.643321 -0.277615
O28   O     O_R   0.446743 0.880804 0.711593 -0.240317
N35   N     N_R   0.480293 0.908395 0.313082 0.171779
O29   O     O_R   0.508904 0.886660 0.358423 -0.280417
O30   O     O_R   0.446200 0.880802 0.286319 -0.240440
N36   N     N_R   0.519037 0.091718 0.686895 0.171893
O31   O     O_R   0.489890 0.113561 0.642526 -0.280229
O32   O     O_R   0.553130 0.119414 0.713410 -0.238959
N37   N     N_R   0.008630 0.592765 0.160069 0.189287
O33   O     O_R   0.041775 0.599829 0.111609 -0.224262
O34   O     O_R   0.980485 0.629773 0.175837 -0.196416
N38   N     N_R   0.990991 0.407308 0.840014 0.189266
O35   O     O_R   0.957894 0.400425 0.888609 -0.224504
O36   O     O_R   0.018944 0.370149 0.824150 -0.197150
N39   N     N_R   0.991563 0.407335 0.159505 0.189433
O37   O     O_R   0.958399 0.400213 0.111090 -0.223970
O38   O     O_R   0.019784 0.370383 0.175027 -0.199958
N40   N     N_R   0.008883 0.592626 0.840528 0.189413
O39   O     O_R   0.042014 0.599565 0.889052 -0.224265
O40   O     O_R   0.980854 0.629731 0.824928 -0.200589
N41   N     N_R   0.509027 0.092691 0.159988 0.189267
O41   O     O_R   0.542113 0.099560 0.111371 -0.224512
O42   O     O_R   0.481088 0.129860 0.175864 -0.197137
N42   N     N_R   0.491274 0.907206 0.839884 0.189283
O43   O     O_R   0.458131 0.900169 0.888356 -0.224300
O44   O     O_R   0.519387 0.870173 0.824100 -0.196360
N43   N     N_R   0.491139 0.907374 0.159467 0.189411
O45   O     O_R   0.457993 0.900416 0.110972 -0.224245
O46   O     O_R   0.519190 0.870284 0.175047 -0.200691
N44   N     N_R   0.508400 0.092629 0.840548 0.189442
O47   O     O_R   0.541566 0.099752 0.888960 -0.223924
O48   O     O_R   0.480171 0.129575 0.825039 -0.200211
I1    I     I_    0.862241 0.444773 0.659251 -0.036074
I2    I     I_    0.138192 0.557471 0.341027 -0.042010
I3    I     I_    0.137666 0.555642 0.659380 -0.039798
I4    I     I_    0.861931 0.442097 0.340867 -0.045745
I5    I     I_    0.116207 0.414993 0.325179 -0.007290
I6    I     I_    0.885180 0.586956 0.675457 -0.004554
I7    I     I_    0.882977 0.584615 0.325996 -0.011853
I8    I     I_    0.115634 0.413376 0.674641 -0.008951
I9    I     I_    0.361795 0.942780 0.658927 -0.042311
I10   I     I_    0.637765 0.055154 0.340773 -0.036175
I11   I     I_    0.638073 0.057999 0.659139 -0.045562
I12   I     I_    0.362342 0.944236 0.340574 -0.039557
I13   I     I_    0.614755 0.912951 0.324532 -0.004396
I14   I     I_    0.384007 0.085298 0.674884 -0.006895
I15   I     I_    0.384365 0.086449 0.325312 -0.009116
I16   I     I_    0.617055 0.915506 0.674012 -0.012002
N45   N     N_R   0.808871 0.339264 0.636406 0.160993
O49   O     O_R   0.767964 0.355459 0.657261 -0.232029
O50   O     O_R   0.835285 0.315697 0.683466 -0.203269
N46   N     N_R   0.188561 0.665477 0.364739 0.166235
O51   O     O_R   0.233772 0.669077 0.355288 -0.257611
O52   O     O_R   0.160657 0.677126 0.310656 -0.194284
N47   N     N_R   0.190922 0.661162 0.636580 0.161070
O53   O     O_R   0.231806 0.645044 0.657568 -0.232440
O54   O     O_R   0.164421 0.684820 0.683550 -0.203353
N48   N     N_R   0.811619 0.334138 0.364583 0.166209
O55   O     O_R   0.766422 0.330528 0.355004 -0.257908
O56   O     O_R   0.839601 0.322329 0.310598 -0.194353
N49   N     N_R   0.184887 0.328719 0.364642 0.162452
O57   O     O_R   0.216827 0.355518 0.330731 -0.232759
O58   O     O_R   0.174977 0.283162 0.341409 -0.231780
N50   N     N_R   0.816022 0.672527 0.635330 0.162484
O59   O     O_R   0.784504 0.645962 0.670565 -0.232046
O60   O     O_R   0.825782 0.718454 0.657094 -0.232541
N51   N     N_R   0.819067 0.675663 0.364983 0.160949
O61   O     O_R   0.774680 0.670610 0.349293 -0.251191
O62   O     O_R   0.846374 0.701163 0.320688 -0.209429
N52   N     N_R   0.179736 0.322775 0.634793 0.160934
O63   O     O_R   0.223974 0.327766 0.651532 -0.250651
O64   O     O_R   0.152108 0.296710 0.677900 -0.209881
N53   N     N_R   0.311344 0.834777 0.635454 0.166232
O65   O     O_R   0.266130 0.831189 0.644882 -0.257662
O66   O     O_R   0.339232 0.823185 0.689582 -0.194256
N54   N     N_R   0.691118 0.160689 0.363506 0.160988
O67   O     O_R   0.732033 0.144496 0.342686 -0.232037
O68   O     O_R   0.664700 0.184210 0.316402 -0.203253
N55   N     N_R   0.688349 0.165962 0.635323 0.166213
O69   O     O_R   0.733546 0.169579 0.644906 -0.257868
O70   O     O_R   0.660363 0.177792 0.689292 -0.194368
N56   N     N_R   0.309036 0.838776 0.363600 0.161075
O71   O     O_R   0.268167 0.854898 0.342546 -0.232381
O72   O     O_R   0.335526 0.815029 0.316713 -0.203403
N57   N     N_R   0.684088 0.827533 0.364738 0.162678
O73   O     O_R   0.715371 0.854264 0.329269 -0.232012
O74   O     O_R   0.674754 0.781437 0.343369 -0.232906
N58   N     N_R   0.314849 0.171131 0.635203 0.162874
O75   O     O_R   0.283443 0.143922 0.669624 -0.232722
O76   O     O_R   0.323755 0.217103 0.657523 -0.232644
N59   N     N_R   0.319991 0.176809 0.365026 0.160838
O77   O     O_R   0.275774 0.171626 0.348270 -0.251054
O78   O     O_R   0.347532 0.202984 0.321924 -0.209917
N60   N     N_R   0.681051 0.824526 0.635097 0.160914
O79   O     O_R   0.725432 0.829643 0.650788 -0.251366
O80   O     O_R   0.653770 0.799005 0.679409 -0.209439

loop_
_geom_bond_atom_site_label_1
_geom_bond_atom_site_label_2
_geom_bond_distance
_ccdc_geom_bond_type
C32   C71   1.431369 A    
N36   O32   1.300989 A    
N10   C67   1.361144 A    
C35   C51   1.406440 A    
N19   N25   1.329633 A    
C17   N29   1.442745 S    
C34   C50   1.404196 A    
N35   O30   1.301133 A    
Cu2   N1    1.998183 S    
C3    C69   1.497731 S    
N45   O49   1.300856 A    
N26   C83   1.356054 A    
Cu3   Cu4   2.658926 S    
N7    C66   1.361084 A    
N13   N23   1.330619 A    
N54   O68   1.300637 A    
N37   O33   1.301358 A    
C37   C75   1.432509 A    
C45   N49   1.434304 S    
N39   O38   1.301194 A    
N17   C80   1.356111 A    
C31   C47   1.406504 A    
N49   O57   1.301231 A    
O10   C6    1.299751 A    
C23   N35   1.443669 S    
C14   C22   1.423271 A    
C66   C85   1.506215 S    
N28   C84   1.356594 A    
C49   N53   1.437295 S    
C12   C86   1.404547 A    
C65   C86   1.506086 S    
C16   N44   1.436818 S    
N38   O35   1.301363 A    
C29   C71   1.432167 A    
N50   O60   1.301391 A    
C10   C18   1.423404 A    
O16   Cu3   1.939399 S    
N1    C19   1.391244 A    
C18   N30   1.443178 S    
N31   O21   1.295997 A    
C15   C23   1.423469 A    
N2    C20   1.391716 A    
N40   O39   1.301369 A    
O3    Cu1   1.959513 S    
C25   C41   1.404192 A    
N59   O77   1.301246 A    
C7    C73   1.497776 S    
N57   O74   1.300986 A    
N19   C79   1.356574 A    
O13   C7    1.298612 A    
O3    C2    1.299420 A    
N31   O22   1.300973 A    
O14   C8    1.298992 A    
N3    C21   1.391458 A    
N44   O47   1.301369 A    
C24   N36   1.443312 S    
C43   C58   1.407912 A    
C32   I8    2.149765 S    
N10   N11   1.336674 A    
C43   N47   1.432342 S    
N3    C23   1.391776 A    
C29   C45   1.406263 A    
N4    C24   1.391327 A    
N15   C77   1.356490 A    
C54   N58   1.434568 S    
N34   O28   1.300895 A    
C27   I3    2.132140 S    
C26   C70   1.414060 A    
C53   C63   1.400684 A    
O12   Cu4   1.959513 S    
C9    C85   1.404877 A    
N6    N7    1.336678 A    
N16   C78   1.356598 A    
C68   C87   1.506086 S    
C44   C57   1.410084 A    
C52   C61   1.407903 A    
N18   N28   1.329658 A    
O2    Cu2   1.958999 S    
N42   O44   1.301197 A    
C40   C56   1.406460 A    
C56   C63   1.401342 A    
C38   I14   2.149631 S    
O6    Cu1   1.939746 S    
C39   C76   1.431439 A    
C55   C64   1.401159 A    
C29   I5    2.149513 S    
N46   O51   1.301403 A    
C32   C48   1.406377 A    
N33   O26   1.301077 A    
O1    C1    1.299755 A    
N56   O72   1.300621 A    
N45   O50   1.300622 A    
C34   C74   1.414968 A    
C35   I11   2.133276 S    
C14   N42   1.436849 S    
N54   O67   1.300862 A    
N37   O34   1.301194 A    
C45   C59   1.400652 A    
C11   C19   1.423366 A    
Cu1   Cu2   2.658926 S    
N32   O24   1.301129 A    
C57   C78   1.474085 S    
N41   O42   1.301200 A    
N60   O80   1.301067 A    
O8    C3    1.298460 A    
C59   C80   1.470391 S    
O1    Cu1   1.958999 S    
N47   O53   1.300866 A    
C62   C81   1.474104 S    
N30   O19   1.296096 A    
O13   Cu4   1.939750 S    
C15   C87   1.404509 A    
N6    C65   1.361105 A    
N14   N24   1.330634 A    
N39   O37   1.301366 A    
C21   N33   1.443139 S    
O9    Cu3   1.958999 S    
C22   N34   1.442665 S    
N59   O78   1.301067 A    
N41   O41   1.301361 A    
C51   C62   1.410099 A    
C50   N54   1.432324 S    
O12   C5    1.299450 A    
C28   C44   1.406452 A    
C30   C72   1.432447 A    
N11   C68   1.361048 A    
C15   N43   1.436857 S    
C13   C21   1.423418 A    
C36   C52   1.404143 A    
C52   N56   1.432346 S    
C10   C86   1.404638 A    
N23   C81   1.356603 A    
C40   I16   2.149775 S    
C56   N60   1.435904 S    
C49   C61   1.410154 A    
N8    C65   1.361056 A    
C47   N51   1.435889 S    
N17   N27   1.329679 A    
C40   C75   1.431187 A    
C37   I13   2.149605 S    
O5    Cu2   1.939750 S    
C30   I6    2.149571 S    
N58   O76   1.300827 A    
N53   O65   1.301404 A    
C47   C60   1.401380 A    
C36   I12   2.132026 S    
C2    C72   1.504058 S    
N50   O59   1.301202 A    
N52   O64   1.301085 A    
N21   C82   1.356618 A    
N29   O18   1.300904 A    
N1    C17   1.391004 A    
C5    C75   1.504113 S    
C54   C64   1.400828 A    
C64   C83   1.470371 S    
C39   C55   1.406275 A    
O4    C1    1.299777 A    
N48   O56   1.301163 A    
C12   N40   1.436859 S    
O15   C8    1.298424 A    
C13   C87   1.404662 A    
N46   O52   1.301161 A    
C36   C73   1.414887 A    
N48   O55   1.301408 A    
O16   C7    1.298829 A    
C9    N37   1.436845 S    
N55   O70   1.301161 A    
N36   O31   1.295974 A    
N5    N8    1.336678 A    
N24   C82   1.356486 A    
C26   I2    2.133675 S    
C8    C74   1.497722 S    
N56   O71   1.300863 A    
N25   C84   1.356010 A    
C46   N50   1.434476 S    
C28   C69   1.414039 A    
C38   C54   1.406544 A    
C60   C79   1.470404 S    
C27   C43   1.404157 A    
O15   Cu4   1.939395 S    
O14   Cu3   1.939746 S    
N55   O69   1.301405 A    
C37   C53   1.406356 A    
O7    Cu2   1.939395 S    
C26   C42   1.406538 A    
C16   C88   1.404747 A    
N32   O23   1.296007 A    
N20   N26   1.329607 A    
N9    N12   1.336677 A    
C44   N48   1.437308 S    
N51   O61   1.301252 A    
N12   C67   1.361076 A    
C50   C62   1.407929 A    
N60   O79   1.301249 A    
N42   O43   1.301356 A    
C20   N32   1.443599 S    
N44   O48   1.301194 A    
N27   C83   1.356524 A    
N5    C66   1.361133 A    
C27   C70   1.414914 A    
C25   I1    2.132404 S    
C30   C46   1.406232 A    
Cu4   N3    1.998183 S    
C13   N41   1.436878 S    
C31   C72   1.431174 A    
N9    C68   1.361120 A    
C33   C73   1.414106 A    
C35   C74   1.414005 A    
C39   I15   2.149872 S    
O5    C3    1.298959 A    
C19   N31   1.443197 S    
C25   C69   1.414958 A    
N29   O17   1.296076 A    
O11   C6    1.299839 A    
N4    C22   1.390971 A    
Cu1   N2    1.998183 S    
N2    C18   1.391491 A    
N15   N21   1.330622 A    
C46   C60   1.400599 A    
C42   C58   1.410178 A    
C48   C59   1.401270 A    
N38   O36   1.301199 A    
Cu3   N4    1.998183 S    
C1    C71   1.503940 S    
N49   O58   1.301547 A    
C41   C57   1.407921 A    
N22   C81   1.356497 A    
C38   C76   1.432340 A    
N33   O25   1.296105 A    
C14   C88   1.404881 A    
N16   N22   1.330613 A    
N18   C79   1.356033 A    
C12   C20   1.423473 A    
O9    C5    1.300155 A    
C63   C84   1.470394 S    
C41   N45   1.432329 S    
O6    C4    1.298552 A    
C31   I7    2.149726 S    
N57   O73   1.301067 A    
O11   Cu3   1.959513 S    
N58   O75   1.301025 A    
N53   O66   1.301161 A    
C58   C77   1.474200 S    
C67   C88   1.506202 S    
C33   I9    2.133824 S    
C53   N57   1.434600 S    
O8    Cu1   1.939399 S    
O4    Cu2   1.959513 S    
C6    C76   1.504087 S    
N52   O63   1.301269 A    
C9    C17   1.423280 A    
C10   N38   1.436877 S    
N14   C77   1.356633 A    
C48   N52   1.435913 S    
N43   O45   1.301371 A    
O2    C2    1.300159 A    
N13   C78   1.356493 A    
C4    C70   1.497776 S    
N34   O27   1.296087 A    
C42   N46   1.437291 S    
C28   I4    2.133362 S    
O7    C4    1.298890 A    
N20   C80   1.356473 A    
C11   C85   1.404784 A    
N35   O29   1.295989 A    
N47   O54   1.300627 A    
C33   C49   1.406555 A    
O10   Cu4   1.958999 S    
C51   N55   1.437308 S    
N40   O40   1.301194 A    
N30   O20   1.301081 A    
C34   I10   2.132464 S    
C16   C24   1.423385 A    
N51   O62   1.301046 A    
C55   N59   1.435909 S    
C61   C82   1.474158 S    
C11   N39   1.436821 S    
N43   O46   1.301192 A    
