data_mof_unit_65727.cif
_audit_creation_date              2012-10-26T19:16:39-0400
_audit_creation_method            fapswitch 2.2
_symmetry_space_group_name_H-M    P1
_symmetry_Int_Tables_number       1
_space_group_crystal_system       triclinic
_cell_length_a                    13.923339
_cell_length_b                    14.775149
_cell_length_c                    16.019225
_cell_angle_alpha                 89.9784
_cell_angle_beta                  89.975211
_cell_angle_gamma                 84.792631
_cell_volume                      3281.86372934

loop_
_atom_site_label
_atom_site_type_symbol
_atom_type_description
_atom_site_fract_x
_atom_site_fract_y
_atom_site_fract_z
_atom_type_partial_charge
C1    C     C_R   0.499972 0.500005 0.659069 0.546929
C2    C     C_R   0.490849 0.952173 0.425630 -0.121707
C3    C     C_1   0.500098 0.197343 0.499700 0.159626
C4    C     C_1   0.500112 0.802640 0.500271 0.160876
C5    C     C_R   0.683359 0.485403 0.499968 0.544604
C6    C     C_R   0.316640 0.514597 0.500030 0.546576
C7    C     C_1   0.213850 0.523659 0.500070 -0.011013
C8    C     C_1   0.786149 0.476342 0.499923 -0.014721
C9    C     C_2   0.023468 0.537830 0.500157 0.140534
C10   C     C_2   0.976531 0.462172 0.499831 0.139896
C11   C     C_1   0.872711 0.469183 0.499880 -0.002914
C12   C     C_R   0.500035 0.499991 0.340933 0.548595
C13   C     C_1   0.127288 0.530818 0.500110 -0.000195
C14   C     C_R   0.498270 0.417199 0.043802 0.134828
C15   C     C_R   0.501816 0.582105 0.955873 0.131158
C16   C     C_R   0.500057 0.499869 0.087409 -0.004867
C17   C     C_R   0.500024 0.499629 0.912585 0.017550
C18   C     C_R   0.501836 0.582427 0.043553 0.091932
C19   C     C_R   0.498253 0.417086 0.956412 0.120210
C20   C     C_1   0.500056 0.499963 0.177104 -0.068004
C21   C     C_1   0.500002 0.499854 0.822908 -0.019198
C22   C     C_1   0.499985 0.499959 0.748000 -0.009715
C23   C     C_1   0.500049 0.500004 0.252009 -0.026668
C24   C     C_R   0.490920 0.048350 0.424021 0.110170
C25   C     C_R   0.510134 0.951563 0.575861 0.109520
C26   C     C_R   0.500241 0.097105 0.499114 0.013576
C27   C     C_R   0.500423 0.902840 0.500807 0.013257
C28   C     C_R   0.509692 0.047782 0.574302 -0.121595
Cu1   Cu    Cu3+1 0.499970 0.410780 0.500000 1.004385
Cu2   Cu    Cu3+1 0.500030 0.589220 0.500000 1.011732
H1    H     H_    0.007580 0.339157 0.446615 0.233534
H2    H     H_    0.557515 0.323532 0.125494 0.232886
H3    H     H_    0.565477 0.696031 0.927556 0.253289
H4    H     H_    0.443357 0.708801 0.927616 0.255736
H5    H     H_    0.483434 0.915508 0.367760 0.108863
H6    H     H_    0.516949 0.084461 0.632187 0.109393
H7    H     H_    0.469957 0.052130 0.297295 0.230557
H8    H     H_    0.546150 0.123992 0.334281 0.230583
H9    H     H_    0.521391 0.948615 0.703511 0.229946
H10   H     H_    0.586502 0.864672 0.653065 0.233892
H11   H     H_    0.007607 0.338558 0.551932 0.232923
H12   H     H_    0.992417 0.660844 0.553373 0.233474
H13   H     H_    0.992392 0.661444 0.448056 0.232314
H14   H     H_    0.435241 0.336044 0.874943 0.231834
H15   H     H_    0.557465 0.323277 0.874881 0.229716
H16   H     H_    0.442605 0.676207 0.125148 0.240947
H17   H     H_    0.564860 0.663429 0.125095 0.240559
H18   H     H_    0.435283 0.336300 0.125545 0.237308
N1    N     N_1   0.499970 0.723290 0.500020 -0.186504
N2    N     N_3   0.519666 0.903143 0.653651 -0.606724
N3    N     N_1   0.500030 0.276710 0.499980 -0.187321
N4    N     N_3   0.028768 0.373826 0.499427 -0.626720
N5    N     N_3   0.971231 0.626175 0.500561 -0.630182
N6    N     N_3   0.496418 0.332299 0.913058 -0.576144
N7    N     N_3   0.503672 0.667179 0.086999 -0.637468
N8    N     N_3   0.496451 0.332496 0.087373 -0.570657
N9    N     N_3   0.503614 0.665509 0.910218 -0.600763
N10   N     N_3   0.480760 0.096825 0.346291 -0.610179
O1    O     O_R   0.499950 0.424680 0.619690 -0.499051
O2    O     O_R   0.500050 0.575320 0.380310 -0.495284
O3    O     O_R   0.500000 0.575360 0.619690 -0.476872
O4    O     O_R   0.500000 0.424640 0.380310 -0.486438
O5    O     O_R   0.637820 0.414010 0.499980 -0.496850
O6    O     O_R   0.362180 0.585990 0.500020 -0.492563
O7    O     O_R   0.637870 0.564690 0.499980 -0.484137
O8    O     O_R   0.362130 0.435310 0.500020 -0.479257

loop_
_geom_bond_atom_site_label_1
_geom_bond_atom_site_label_2
_ccdc_geom_bond_type
H16   N7    S    
C2    H5    S    
C15   C18   A    
C14   N8    S    
Cu1   O5    S    
C6    C7    S    
Cu2   O6    S    
C25   C27   A    
C3    C26   S    
C12   O4    A    
C9    C10   D    
H1    N4    S    
H11   N4    S    
C26   C28   A    
H7    N10   S    
H18   N8    S    
C20   C23   T    
C6    O8    A    
C4    N1    T    
C16   C20   S    
C2    C27   A    
C10   N4    S    
C4    C27   S    
C1    O1    A    
H17   N7    S    
C1    C22   S    
H8    N10   S    
C21   C22   T    
C25   C28   A    
C15   N9    S    
C12   C23   S    
C28   H6    S    
Cu1   Cu2   S    
C18   N7    S    
H4    N9    S    
H10   N2    S    
C19   N6    S    
C16   C18   A    
C17   C19   A    
Cu2   N1    S    
C24   C26   A    
H15   N6    S    
C8    C11   T    
H12   N5    S    
C2    C24   A    
C14   C16   A    
Cu2   O7    S    
C9    N5    S    
C10   C11   S    
Cu1   O8    S    
C12   O2    A    
C24   N10   S    
H14   N6    S    
C7    C13   T    
H9    N2    S    
C5    O5    A    
C5    O7    A    
Cu1   N3    S    
Cu2   O3    S    
C6    O6    A    
C15   C17   A    
C5    C8    S    
C9    C13   S    
C25   N2    S    
C3    N3    T    
Cu1   O4    S    
H13   N5    S    
C14   C19   A    
H2    N8    S    
H3    N9    S    
C17   C21   S    
Cu1   O1    S    
C1    O3    A    
Cu2   O2    S    
