data_mof_unit_59774.cif
_audit_creation_date              2012-12-10T16:52:03-0500
_audit_creation_method            fapswitch 2.2
_symmetry_space_group_name_H-M    P1
_symmetry_Int_Tables_number       1
_space_group_crystal_system       triclinic
_cell_length_a                    7.753395
_cell_length_b                    8.823586
_cell_length_c                    14.889377
_cell_angle_alpha                 90.172873
_cell_angle_beta                  85.524373
_cell_angle_gamma                 93.605791
_cell_volume                      1013.50484981

loop_
_atom_site_label
_atom_site_type_symbol
_atom_type_description
_atom_site_fract_x
_atom_site_fract_y
_atom_site_fract_z
_atom_type_partial_charge
Br1   Br    Br    0.199616 0.843787 0.922658 -0.601603
Br2   Br    Br    0.190218 0.089062 0.113402 -0.630993
C1    C     C_R   0.545801 0.794859 0.495486 0.956556
C2    C     C_R   0.493552 0.631265 0.816116 0.035533
C3    C     C_R   0.493193 0.498968 0.231390 -0.109608
C4    C     C_R   0.498132 0.492699 0.769855 -0.106049
C5    C     C_R   0.512188 0.635895 0.182955 0.076987
C6    C     C_R   0.459251 0.352827 0.815078 0.021372
C7    C     C_R   0.469947 0.633549 0.093634 0.061187
C8    C     C_R   0.436863 0.352169 0.910018 0.054822
C9    C     C_R   0.445868 0.493255 0.049982 -0.017543
C10   C     C_R   0.446933 0.490777 0.956037 0.007549
C11   C     C_R   0.425860 0.356658 0.098824 0.039539
C12   C     C_R   0.454126 0.205117 0.499740 0.954164
C13   C     C_R   0.453030 0.628304 0.909125 0.060074
C14   C     C_R   0.439076 0.766156 0.047381 -0.229928
C15   C     C_R   0.387607 0.220393 0.960761 -0.230268
C16   C     C_3   0.522555 0.217169 0.233786 -0.402009
C17   C     C_3   0.721523 0.213654 0.218071 -0.312651
C18   C     C_3   0.802158 0.146200 0.297887 -0.858974
C19   C     C_3   0.538142 0.780244 0.766465 -0.423299
C20   C     C_3   0.733189 0.805590 0.741515 -0.339898
C21   C     C_3   0.774832 0.955449 0.690770 -0.889995
C22   C     C_3   0.612368 0.773671 0.219258 -0.455478
C23   C     C_R   0.405016 0.756566 0.957310 0.229794
C24   C     C_3   0.790616 0.802517 0.166230 -0.312766
C25   C     C_3   0.904767 0.667615 0.168733 -0.724908
C26   C     C_3   0.432909 0.208414 0.761551 -0.447581
C27   C     C_3   0.239439 0.172900 0.750262 -0.281822
C28   C     C_3   0.208799 0.030948 0.693385 -0.848882
C29   C     C_R   0.366203 0.225654 0.054438 0.247339
C30   C     C_2   0.569636 0.957680 0.491191 -0.418240
C31   C     C_2   0.430806 0.042328 0.494133 -0.392657
C32   C     C_R   0.500829 0.497394 0.673146 0.893997
C33   C     C_R   0.498871 0.502453 0.327089 0.889682
C34   C     C_R   0.461622 0.357831 0.189702 0.029325
H1    H     H_    0.422525 0.871179 0.082730 0.203138
H2    H     H_    0.753699 0.146400 0.156483 0.233086
H3    H     H_    0.783940 0.329393 0.206313 0.242173
H4    H     H_    0.479344 0.214138 0.306616 0.207827
H5    H     H_    0.465052 0.111632 0.206641 0.214785
H6    H     H_    0.660034 0.995349 0.660456 0.262107
H7    H     H_    0.821792 0.045100 0.737091 0.271386
H8    H     H_    0.874747 0.939284 0.634839 0.251767
H9    H     H_    0.804307 0.806773 0.803593 0.251634
H10   H     H_    0.780001 0.711633 0.698576 0.237457
H11   H     H_    0.466004 0.782254 0.705220 0.210983
H12   H     H_    0.352517 0.116432 0.928516 0.219803
H13   H     H_    0.498747 0.876772 0.808084 0.235537
H14   H     H_    0.915628 0.631296 0.239343 0.255334
H15   H     H_    0.850431 0.571088 0.129627 0.247308
H16   H     H_    0.036689 0.700888 0.137798 0.276366
H17   H     H_    0.774316 0.831920 0.095032 0.247100
H18   H     H_    0.861180 0.900677 0.195776 0.252071
H19   H     H_    0.535891 0.874323 0.215823 0.181978
H20   H     H_    0.634859 0.762102 0.291434 0.198573
H21   H     H_    0.331645 0.984378 0.667297 0.260331
H22   H     H_    0.132056 0.941038 0.733629 0.290924
H23   H     H_    0.701394 0.008084 0.489245 0.189579
H24   H     H_    0.138154 0.060088 0.634558 0.244680
H25   H     H_    0.165792 0.157541 0.816949 0.246745
H26   H     H_    0.186655 0.270770 0.717110 0.237752
H27   H     H_    0.504676 0.216889 0.694204 0.201372
H28   H     H_    0.490673 0.115312 0.795010 0.208737
H29   H     H_    0.299344 0.991685 0.494800 0.186064
H30   H     H_    0.015511 0.384696 0.433343 0.191397
H31   H     H_    0.984861 0.615670 0.566574 0.190355
H32   H     H_    0.796748 0.226053 0.355101 0.290935
H33   H     H_    0.733168 0.036816 0.318939 0.254617
H34   H     H_    0.940641 0.127655 0.279557 0.273532
N1    N     N_2   0.950330 0.457950 0.475660 -0.183138
N2    N     N_2   0.049670 0.542050 0.524340 -0.174374
O1    O     O_R   0.389250 0.738570 0.505970 -0.613641
O2    O     O_R   0.610750 0.261430 0.494030 -0.627312
O3    O     O_R   0.678390 0.711620 0.490370 -0.628738
O4    O     O_R   0.321610 0.288380 0.509630 -0.628777
O5    O     O_R   0.355420 0.513510 0.639950 -0.617664
O6    O     O_R   0.644580 0.486490 0.360050 -0.624716
O7    O     O_R   0.644560 0.486560 0.624350 -0.635979
O8    O     O_R   0.355440 0.513440 0.375650 -0.624573
Zn1   Zn    Zn3+2 0.306940 0.517990 0.510420 0.943422
Zn2   Zn    Zn3+2 0.693060 0.482010 0.489580 0.925294

loop_
_geom_bond_atom_site_label_1
_geom_bond_atom_site_label_2
_ccdc_geom_bond_type
C28   H21   S    
C17   C18   S    
C15   H12   S    
C12   C31   S    
C19   H13   S    
C31   H29   S    
C22   H19   S    
C24   C25   S    
C21   H6    S    
C12   O2    A    
C26   C27   S    
C7    C14   A    
C22   C24   S    
H31   N2    S    
C32   O5    A    
C13   C23   A    
C8    C15   A    
C5    C22   S    
C3    C34   A    
C28   H22   S    
C33   O8    A    
C21   H7    S    
C16   C17   S    
C16   H4    S    
C25   H15   S    
C28   H24   S    
C1    O3    A    
N2    Zn1   S    
C25   H14   S    
C14   H1    S    
N1    Zn2   S    
C19   C20   S    
Br1   C23   S    
C18   H34   S    
O2    Zn2   S    
C24   H18   S    
O1    Zn1   S    
C18   H32   S    
C27   H25   S    
C11   C34   A    
C2    C4    A    
C16   H5    S    
C3    C5    A    
C4    C6    A    
C21   H8    S    
C4    C32   S    
Br2   C29   S    
C12   O4    A    
C27   C28   S    
C17   H2    S    
C32   O7    A    
O6    Zn2   S    
H30   N1    S    
C10   C13   A    
O5    Zn1   S    
C7    C9    A    
C8    C10   A    
C26   H28   S    
C20   H10   S    
C15   C29   A    
C18   H33   S    
C17   H3    S    
C24   H17   S    
C25   H16   S    
C14   C23   A    
C5    C7    A    
C27   H26   S    
C11   C29   A    
O8    Zn1   S    
O4    Zn1   S    
O7    Zn2   S    
C9    C10   A    
O3    Zn2   S    
C22   H20   S    
C33   O6    A    
C30   C31   D    
C2    C13   A    
N1    N2    D    
C2    C19   S    
C9    C11   A    
C6    C26   S    
C3    C33   S    
C1    C30   S    
C1    O1    A    
C26   H27   S    
C20   H9    S    
C6    C8    A    
C20   C21   S    
C30   H23   S    
C16   C34   S    
C19   H11   S    
