data_mof_unit_31665.cif
_audit_creation_date              2012-10-26T21:33:15-0400
_audit_creation_method            fapswitch 2.2
_symmetry_space_group_name_H-M    P1
_symmetry_Int_Tables_number       1
_space_group_crystal_system       triclinic
_cell_length_a                    28.13789
_cell_length_b                    18.46832
_cell_length_c                    17.049382
_cell_angle_alpha                 89.808022
_cell_angle_beta                  60.823503
_cell_angle_gamma                 89.663589
_cell_volume                      7735.61772704

loop_
_atom_site_label
_atom_site_type_symbol
_atom_type_description
_atom_site_fract_x
_atom_site_fract_y
_atom_site_fract_z
_atom_type_partial_charge
C1    C     C_R   0.701538 0.268065 0.676069 0.875422
C2    C     C_R   0.092032 0.493499 0.526240 0.079331
C3    C     C_R   0.189597 0.217569 0.905845 0.050016
C4    C     C_R   0.074262 0.099354 0.933749 0.910597
C5    C     C_R   0.926059 0.900251 0.065973 0.904347
C6    C     C_R   0.925962 0.099729 0.065936 0.914120
C7    C     C_R   0.073779 0.899973 0.934289 0.907668
C8    C     C_R   0.573884 0.599811 0.934063 0.918876
C9    C     C_R   0.425757 0.400583 0.066235 0.903617
C10   C     C_R   0.426454 0.600311 0.065514 0.911848
C11   C     C_R   0.574182 0.400442 0.933932 0.915226
C12   C     C_R   0.577572 0.111954 0.426107 0.075161
C13   C     C_R   0.405873 0.003921 0.481058 0.079740
C14   C     C_R   0.422533 0.887994 0.573656 0.075393
C15   C     C_R   0.479352 0.121017 0.417867 0.071870
C16   C     C_R   0.520751 0.878926 0.581876 0.072275
C17   C     C_R   0.072856 0.606119 0.432789 0.074365
C18   C     C_R   0.923345 0.375520 0.581685 0.069156
C19   C     C_R   0.974309 0.609054 0.424694 0.072693
C20   C     C_R   0.021832 0.372604 0.588448 0.072831
C21   C     C_R   0.569245 0.169836 0.378866 -0.063935
C22   C     C_R   0.430895 0.830079 0.620812 -0.069177
C23   C     C_R   0.518847 0.176674 0.379475 -0.071102
C24   C     C_R   0.594187 0.996061 0.518800 0.078569
C25   C     C_R   0.481292 0.823226 0.620177 -0.070247
C26   C     C_R   0.063734 0.661398 0.383294 -0.064525
C27   C     C_R   0.934472 0.317203 0.624950 -0.068397
C28   C     C_R   0.013406 0.664855 0.383035 -0.071474
C29   C     C_R   0.984952 0.313879 0.624143 -0.069933
C30   C     C_R   0.489940 0.060433 0.458434 0.000659
C31   C     C_R   0.510159 0.939515 0.541319 0.000862
C32   C     C_R   0.538108 0.056943 0.464697 0.005625
C33   C     C_R   0.461993 0.943006 0.535059 0.006793
C34   C     C_R   0.985833 0.550802 0.467201 0.001284
C35   C     C_R   0.070116 0.374351 0.594073 -0.162132
C36   C     C_R   0.009326 0.432354 0.549237 0.000092
C37   C     C_R   0.034433 0.549952 0.472368 0.004260
C38   C     C_R   0.960710 0.433246 0.544474 0.003991
C39   C     C_R   0.948792 0.492823 0.504139 -0.010536
C40   C     C_R   0.045260 0.491899 0.515761 -0.010566
C41   C     C_R   0.452441 0.002747 0.492185 -0.009483
C42   C     C_R   0.547646 0.997214 0.507603 -0.009512
C43   C     C_R   0.865057 0.434133 0.530026 0.023513
C44   C     C_R   0.126050 0.554611 0.500048 0.010581
C45   C     C_R   0.105775 0.433241 0.561382 0.020346
C46   C     C_R   0.924423 0.609148 0.423171 -0.174372
C47   C     C_R   0.885108 0.554945 0.466445 0.014340
C48   C     C_R   0.371022 0.943970 0.506311 0.007504
C49   C     C_R   0.629024 0.056021 0.493594 0.007571
C50   C     C_R   0.606613 0.934789 0.554515 0.023011
C51   C     C_R   0.393430 0.065207 0.445384 0.025337
C52   C     C_R   0.818497 0.434802 0.518792 -0.133356
C53   C     C_R   0.166061 0.560036 0.529208 -0.160940
C54   C     C_R   0.155220 0.433895 0.563895 -0.216231
C55   C     C_R   0.830650 0.559625 0.479918 -0.171630
C56   C     C_R   0.332599 0.939645 0.474115 -0.154866
C57   C     C_R   0.876420 0.376335 0.572114 -0.168714
C58   C     C_R   0.667418 0.060355 0.525852 -0.157013
C59   C     C_R   0.655373 0.934418 0.560165 -0.211662
C60   C     C_R   0.344643 0.065586 0.439801 -0.215687
C61   C     C_R   0.795950 0.499814 0.515197 -0.104160
C62   C     C_R   0.177356 0.499441 0.567367 -0.090689
C63   C     C_R   0.322669 0.000428 0.434724 -0.092049
C64   C     C_R   0.677339 0.999575 0.565258 -0.094130
C65   C     C_2   0.997720 0.248942 0.662728 0.333035
C66   C     C_2   0.002970 0.727169 0.337774 0.330997
C67   C     C_2   0.894180 0.258485 0.670654 0.336464
C68   C     C_R   0.118317 0.607442 0.447155 -0.179067
C69   C     C_2   0.105726 0.717306 0.332923 0.336910
C70   C     C_2   0.491132 0.758082 0.662092 0.339061
C71   C     C_2   0.509045 0.241758 0.337430 0.333009
C72   C     C_2   0.387971 0.775008 0.669588 0.346788
C73   C     C_2   0.612170 0.224941 0.330126 0.338242
C74   C     C_2   0.735395 0.503480 0.557863 0.489695
C75   C     C_2   0.207204 0.503325 0.619086 0.464835
C76   C     C_2   0.294349 0.997145 0.380500 0.461853
C77   C     C_2   0.705648 0.002850 0.619501 0.461688
C78   C     C_2   0.699108 0.130082 0.961625 0.389337
C79   C     C_R   0.569527 0.877247 0.586725 -0.160751
C80   C     C_2   0.284383 0.875838 0.063259 0.405950
C81   C     C_2   0.303608 0.129894 0.038133 0.388536
C82   C     C_2   0.712362 0.874412 0.939393 0.399950
C83   C     C_2   0.218896 0.629142 0.929547 0.413475
C84   C     C_2   0.802251 0.373139 0.032920 0.395239
C85   C     C_2   0.786721 0.629117 0.064515 0.374250
C86   C     C_2   0.195410 0.367707 0.964453 0.413185
C87   C     C_R   0.430535 0.122735 0.413123 -0.164796
C88   C     C_R   0.376909 0.890204 0.560063 -0.175797
C89   C     C_R   0.298237 0.731362 0.324042 0.887108
C90   C     C_R   0.623158 0.109777 0.439810 -0.177470
C91   C     C_R   0.720610 0.263418 0.953397 0.037256
C92   C     C_R   0.281718 0.739087 0.043800 0.051167
C93   C     C_R   0.280174 0.262897 0.045683 -0.045418
C94   C     C_R   0.718704 0.737686 0.955899 0.032464
C95   C     C_R   0.220476 0.763905 0.953852 0.043304
C96   C     C_R   0.780539 0.237953 0.045218 0.045602
C97   C     C_R   0.780112 0.764011 0.045273 0.014673
C98   C     C_R   0.220514 0.235223 0.953945 -0.042082
C99   C     C_R   0.726024 0.192221 0.978891 0.004499
C100  C     C_R   0.298314 0.268395 0.324088 0.860290
C101  C     C_R   0.266943 0.810594 0.033539 -0.007366
C102  C     C_R   0.275796 0.191323 0.020467 0.003068
C103  C     C_R   0.731696 0.809569 0.967528 -0.002489
C104  C     C_R   0.235884 0.692639 0.962874 -0.007876
C105  C     C_R   0.775404 0.309238 0.018971 -0.008214
C106  C     C_R   0.766917 0.692255 0.034218 0.015268
C107  C     C_R   0.224394 0.306640 0.980041 -0.009678
C108  C     C_R   0.756017 0.180567 0.024229 -0.144344
C109  C     C_R   0.235982 0.821669 0.990018 -0.220529
C110  C     C_R   0.245880 0.178555 0.975253 -0.137346
C111  C     C_R   0.701891 0.731107 0.675804 0.868057
C112  C     C_R   0.762704 0.821409 0.010774 -0.254982
C113  C     C_R   0.266182 0.681357 0.007628 -0.151739
C114  C     C_R   0.744981 0.320819 0.974534 -0.214733
C115  C     C_R   0.736331 0.680272 0.990081 -0.188909
C116  C     C_R   0.254595 0.319489 0.024723 -0.128530
C117  C     C_R   0.643833 0.325981 0.945938 -0.203919
C118  C     C_R   0.358582 0.677344 0.052074 -0.203741
C119  C     C_R   0.356309 0.326449 0.053860 -0.184694
C120  C     C_R   0.642360 0.675155 0.947195 -0.191953
C121  C     C_R   0.142853 0.824817 0.946727 -0.203291
C122  C     C_R   0.201732 0.768565 0.675950 0.881529
C123  C     C_R   0.856844 0.174939 0.053424 -0.204264
C124  C     C_R   0.857001 0.825834 0.053284 -0.190259
C125  C     C_R   0.144189 0.172426 0.945756 -0.188643
C126  C     C_R   0.616559 0.346841 0.898499 -0.068491
C127  C     C_R   0.384706 0.654779 0.100603 -0.069495
C128  C     C_R   0.383384 0.347190 0.101599 -0.072142
C129  C     C_R   0.615991 0.653482 0.898780 -0.075091
C130  C     C_R   0.115919 0.846084 0.898957 -0.065332
C131  C     C_R   0.883758 0.153566 0.101233 -0.070361
C132  C     C_R   0.883807 0.846776 0.101304 -0.070930
C133  C     C_R   0.798381 0.231753 0.323960 0.910355
C134  C     C_R   0.116840 0.152364 0.898248 -0.070847
C135  C     C_R   0.632862 0.321503 0.813535 -0.225404
C136  C     C_R   0.367549 0.678859 0.186355 -0.248614
C137  C     C_R   0.366994 0.321714 0.186620 -0.252805
C138  C     C_R   0.633004 0.678019 0.813204 -0.224754
C139  C     C_R   0.132588 0.821280 0.813654 -0.257437
C140  C     C_R   0.867220 0.178577 0.186410 -0.250587
C141  C     C_R   0.867076 0.821754 0.186607 -0.252153
C142  C     C_R   0.133155 0.178067 0.813357 -0.251479
C143  C     C_R   0.679037 0.279990 0.771317 -0.056707
C144  C     C_R   0.798137 0.768830 0.324179 0.885416
C145  C     C_R   0.320946 0.719585 0.228721 -0.077317
C146  C     C_R   0.320918 0.280442 0.228732 -0.050073
C147  C     C_R   0.679349 0.718758 0.771045 -0.060323
C148  C     C_R   0.179222 0.780687 0.771122 -0.064903
C149  C     C_R   0.820979 0.219984 0.228623 -0.083403
C150  C     C_R   0.820595 0.781303 0.228958 -0.054225
C151  C     C_R   0.179417 0.218951 0.771118 -0.051013
C152  C     C_R   0.706974 0.257335 0.817629 -0.170379
C153  C     C_R   0.293122 0.742102 0.182198 -0.062905
C154  C     C_R   0.293217 0.258059 0.182197 -0.198691
C155  C     C_R   0.201779 0.231411 0.675884 0.857351
C156  C     C_R   0.707095 0.740780 0.817614 -0.110044
C157  C     C_R   0.207469 0.758868 0.817135 -0.158791
C158  C     C_R   0.793210 0.242862 0.182091 -0.055317
C159  C     C_R   0.792537 0.759848 0.182703 -0.203096
C160  C     C_R   0.207462 0.240590 0.817397 -0.197418
C161  C     C_R   0.695366 0.127393 0.521777 0.884283
C162  C     C_R   0.304637 0.872608 0.478216 0.887778
C163  C     C_R   0.309630 0.130112 0.461816 0.879951
C164  C     C_R   0.690373 0.869888 0.538181 0.889521
C165  C     C_R   0.195040 0.627251 0.522372 0.879547
C166  C     C_R   0.899623 0.494277 0.500826 0.076637
C167  C     C_R   0.796137 0.369490 0.501910 0.910353
C168  C     C_R   0.806259 0.627624 0.473347 0.862772
C169  C     C_R   0.190306 0.369535 0.539467 0.883163
C170  C     C_R   0.689220 0.280379 0.905918 0.049849
C171  C     C_R   0.312418 0.721665 0.092479 0.133340
C172  C     C_R   0.311143 0.280796 0.093645 0.049295
C173  C     C_R   0.688149 0.719750 0.907119 0.135348
C174  C     C_R   0.189039 0.780567 0.906157 0.056789
C175  C     C_R   0.811423 0.220474 0.093390 0.139527
C176  C     C_R   0.811122 0.781413 0.093484 0.056782
H1    H     H_    0.078954 0.332154 0.629123 0.193126
H2    H     H_    0.276798 0.626570 0.016487 0.184982
H3    H     H_    0.257681 0.374088 0.044893 0.193728
H4    H     H_    0.727147 0.625269 0.980066 0.182296
H5    H     H_    0.225189 0.876502 0.981588 0.145072
H6    H     H_    0.759911 0.126200 0.044676 0.183776
H7    H     H_    0.772057 0.876496 0.020283 0.150472
H8    H     H_    0.242719 0.123951 0.955184 0.185862
H9    H     H_    0.630855 0.346637 0.012836 0.159088
H10   H     H_    0.372888 0.658460 0.984040 0.157216
H11   H     H_    0.369371 0.347044 0.986843 0.162306
H12   H     H_    0.916591 0.650064 0.385706 0.200714
H13   H     H_    0.628349 0.655772 0.015003 0.158566
H14   H     H_    0.129058 0.844471 0.014298 0.154142
H15   H     H_    0.870107 0.154691 0.986256 0.155443
H16   H     H_    0.870761 0.845625 0.985717 0.155516
H17   H     H_    0.131119 0.151732 0.012736 0.159403
H18   H     H_    0.611791 0.338631 0.777614 0.184694
H19   H     H_    0.388226 0.661157 0.222691 0.183981
H20   H     H_    0.387929 0.338564 0.222640 0.188681
H21   H     H_    0.612299 0.660863 0.776926 0.190886
H22   H     H_    0.111468 0.838236 0.777751 0.181647
H23   H     H_    0.847389 0.332917 0.599836 0.204062
H24   H     H_    0.888143 0.161224 0.222486 0.182955
H25   H     H_    0.888086 0.838371 0.222595 0.188393
H26   H     H_    0.111957 0.161749 0.777563 0.189472
H27   H     H_    0.743569 0.224619 0.784300 0.194872
H28   H     H_    0.255687 0.773126 0.216146 0.174923
H29   H     H_    0.256613 0.225760 0.215535 0.163704
H30   H     H_    0.744244 0.771957 0.783844 0.150705
H31   H     H_    0.244735 0.727574 0.783044 0.190158
H32   H     H_    0.756578 0.275525 0.215343 0.180050
H33   H     H_    0.755272 0.728929 0.216684 0.162454
H34   H     H_    0.147878 0.649576 0.416399 0.214607
H35   H     H_    0.244190 0.272643 0.784006 0.165896
H36   H     H_    0.967184 0.226935 0.726589 0.075768
H37   H     H_    0.033905 0.743655 0.271128 0.071089
H38   H     H_    0.906979 0.202206 0.658224 0.074729
H39   H     H_    0.094177 0.773957 0.337743 0.072138
H40   H     H_    0.459774 0.739327 0.727250 0.079012
H41   H     H_    0.540395 0.260381 0.272193 0.071594
H42   H     H_    0.398228 0.717791 0.661362 0.075192
H43   H     H_    0.601847 0.282136 0.338116 0.071029
H44   H     H_    0.715648 0.514695 0.518084 0.091090
H45   H     H_    0.577273 0.833979 0.621767 0.199156
H46   H     H_    0.184419 0.504287 0.691901 0.029397
H47   H     H_    0.318173 0.998168 0.307779 0.044954
H48   H     H_    0.681817 0.001773 0.692219 0.044002
H49   H     H_    0.673533 0.138361 0.931118 0.076690
H50   H     H_    0.262915 0.926704 0.071667 0.115087
H51   H     H_    0.329074 0.138988 0.068552 0.084119
H52   H     H_    0.732398 0.925977 0.932090 0.119520
H53   H     H_    0.186875 0.634067 0.911846 0.062115
H54   H     H_    0.792080 0.426981 0.019945 0.128712
H55   H     H_    0.816960 0.635853 0.085839 0.084433
H56   H     H_    0.422765 0.166022 0.378136 0.196740
H57   H     H_    0.171745 0.359088 0.930723 0.069747
H58   H     H_    0.345967 0.849692 0.591274 0.212311
H59   H     H_    0.654088 0.150306 0.408670 0.212642
H60   H     H_    0.741045 0.375275 0.954283 0.150176
O1    O     O_R   0.746490 0.236330 0.638080 -0.643603
O2    O     O_R   0.325830 0.813840 0.483730 -0.648102
O3    O     O_R   0.325830 0.186160 0.483730 -0.614338
O4    O     O_R   0.674170 0.813840 0.516270 -0.613894
O5    O     O_R   0.174170 0.686160 0.516270 -0.649684
O6    O     O_R   0.825830 0.313840 0.483730 -0.638537
O7    O     O_R   0.825830 0.686160 0.483730 -0.599729
O8    O     O_R   0.174170 0.313840 0.516270 -0.609694
O9    O     O_R   0.739960 0.127620 0.525000 -0.572263
O10   O     O_R   0.260040 0.872380 0.475000 -0.570599
O11   O     O_R   0.260040 0.127620 0.475000 -0.573200
O12   O     O_R   0.253510 0.763670 0.361920 -0.628997
O13   O     O_R   0.739960 0.872380 0.525000 -0.572519
O14   O     O_R   0.239960 0.627620 0.525000 -0.572120
O15   O     O_R   0.760040 0.372380 0.475000 -0.631227
O16   O     O_R   0.760040 0.627620 0.475000 -0.654616
O17   O     O_R   0.239960 0.372380 0.525000 -0.573276
O18   O     O_R   0.680700 0.294870 0.629350 -0.625996
O19   O     O_R   0.319300 0.705130 0.370650 -0.624205
O20   O     O_R   0.319300 0.294870 0.370650 -0.615243
O21   O     O_R   0.680700 0.705130 0.629350 -0.616994
O22   O     O_R   0.180700 0.794870 0.629350 -0.626626
O23   O     O_R   0.253510 0.236330 0.361920 -0.632004
O24   O     O_R   0.819300 0.205130 0.370650 -0.620375
O25   O     O_R   0.819300 0.794870 0.370650 -0.607727
O26   O     O_R   0.180700 0.205130 0.629350 -0.612518
O27   O     O_R   0.062020 0.072840 0.007170 -0.627442
O28   O     O_R   0.937980 0.927160 0.992830 -0.628772
O29   O     O_R   0.937980 0.072840 0.992830 -0.626080
O30   O     O_R   0.062020 0.927160 0.007170 -0.627363
O31   O     O_R   0.562020 0.572840 0.007170 -0.627517
O32   O     O_R   0.437980 0.427160 0.992830 -0.626199
O33   O     O_R   0.437980 0.572840 0.992830 -0.624366
O34   O     O_R   0.746490 0.763670 0.638080 -0.635113
O35   O     O_R   0.562020 0.427160 0.007170 -0.628187
O36   O     O_R   0.947860 0.073950 0.109290 -0.620240
O37   O     O_R   0.052140 0.926050 0.890710 -0.620528
O38   O     O_R   0.052140 0.073950 0.890710 -0.615470
O39   O     O_R   0.947860 0.926050 0.109290 -0.617013
O40   O     O_R   0.447860 0.573950 0.109290 -0.620899
O41   O     O_R   0.552140 0.426050 0.890710 -0.614015
O42   O     O_R   0.552140 0.573950 0.890710 -0.611134
O43   O     O_R   0.447860 0.426050 0.109290 -0.617401
O44   O     O_2   0.041307 0.217444 0.621331 -0.563424
O45   O     O_R   0.246490 0.736330 0.638080 -0.630020
O46   O     O_2   0.961151 0.762850 0.376438 -0.562713
O47   O     O_2   0.847196 0.272751 0.726152 -0.583783
O48   O     O_2   0.152918 0.700031 0.282070 -0.586079
O49   O     O_2   0.533067 0.722808 0.622147 -0.566760
O50   O     O_2   0.467158 0.277130 0.377345 -0.563547
O51   O     O_2   0.341518 0.793464 0.722977 -0.578136
O52   O     O_2   0.658708 0.206551 0.277058 -0.590928
O53   O     O_2   0.707299 0.490395 0.637817 -0.581313
O54   O     O_2   0.256899 0.502836 0.581088 -0.516453
O55   O     O_2   0.244720 0.996418 0.416416 -0.520344
O56   O     O_R   0.753510 0.263670 0.361920 -0.630901
O57   O     O_2   0.755275 0.003607 0.583600 -0.521780
O58   O     O_2   0.704832 0.068468 0.981975 -0.582245
O59   O     O_2   0.323778 0.874772 0.075167 -0.549619
O60   O     O_2   0.298747 0.067971 0.018258 -0.580662
O61   O     O_2   0.672997 0.872162 0.927489 -0.548699
O62   O     O_2   0.240667 0.570175 0.921273 -0.512630
O63   O     O_2   0.836793 0.367096 0.056191 -0.557925
O64   O     O_2   0.769624 0.568301 0.065628 -0.592908
O65   O     O_2   0.196914 0.428721 0.990427 -0.516559
O66   O     O_R   0.753510 0.736330 0.361920 -0.631268
O67   O     O_R   0.246490 0.263670 0.638080 -0.632490
O68   O     O_R   0.674170 0.186160 0.516270 -0.649048
Zn1   Zn    Zn3+2 0.792340 0.208750 0.507670 1.014057
Zn2   Zn    Zn3+2 0.494040 0.500000 0.919480 0.986667
Zn3   Zn    Zn3+2 0.005960 0.000000 0.080520 0.966503
Zn4   Zn    Zn3+2 0.994040 1.000000 0.919480 0.967224
Zn5   Zn    Zn3+2 0.207660 0.791250 0.492330 1.018146
Zn6   Zn    Zn3+2 0.207660 0.208750 0.492330 1.071591
Zn7   Zn    Zn3+2 0.792340 0.791250 0.507670 1.072168
Zn8   Zn    Zn3+2 0.292340 0.708750 0.507670 1.020016
Zn9   Zn    Zn3+2 0.707660 0.291250 0.492330 0.976864
Zn10  Zn    Zn3+2 0.707660 0.708750 0.492330 1.020252
Zn11  Zn    Zn3+2 0.292340 0.291250 0.507670 1.068367
Zn12  Zn    Zn3+2 0.505960 0.500000 0.080520 0.975110

loop_
_geom_bond_atom_site_label_1
_geom_bond_atom_site_label_2
_ccdc_geom_bond_type
O15   Zn9   S    
C31   C42   A    
C64   C77   S    
C163  O11   A    
C50   C79   A    
C14   C33   A    
C118  H10   S    
C19   C46   A    
O38   Zn4   S    
C16   C31   A    
C50   C59   A    
C52   C61   A    
C162  O2    A    
C85   O64   D    
C63   C76   S    
C56   C162  S    
C60   C163  S    
C73   H43   S    
C66   O46   D    
C76   O55   D    
C131  C140  A    
C13   C51   A    
C117  C170  A    
C122  C148  S    
C84   H54   S    
C117  C126  A    
C20   C29   A    
C119  C128  A    
C96   C108  A    
O16   Zn10  S    
C54   C169  S    
C55   C168  S    
C144  O25   A    
O41   Zn2   S    
O43   Zn12  S    
C156  C173  A    
C86   H57   S    
C150  C159  A    
C137  C146  A    
C11   C126  S    
C127  C136  A    
C136  H19   S    
C67   O47   D    
C95   C109  A    
C97   C112  A    
C82   H52   S    
C120  C129  A    
C103  C112  A    
C142  C151  A    
C7    O30   A    
C28   C66   S    
C152  C170  A    
O32   Zn2   S    
C146  C154  A    
C125  H17   S    
C167  O6    A    
C84   C105  S    
C62   C75   S    
C165  O5    A    
C169  O8    A    
C35   C45   A    
C163  O3    A    
C1    O18   A    
C15   C30   A    
C43   C166  A    
C16   C25   A    
O25   Zn7   S    
O8    Zn6   S    
C94   C115  A    
C61   C74   S    
C72   H42   S    
C159  H33   S    
C106  C115  A    
C66   H37   S    
C18   C38   A    
C4    O38   A    
C120  H13   S    
C3    C98   S    
C118  C171  A    
C90   H59   S    
C140  H24   S    
C122  O45   A    
C14   C88   A    
C83   O62   D    
C2    C40   A    
C74   H44   S    
C78   C99   S    
C26   C69   S    
C54   C62   A    
C111  O34   A    
C100  O20   A    
C93   C172  S    
C96   C175  S    
C27   C29   A    
C85   H55   S    
O45   Zn8   S    
C121  C130  A    
C68   H34   S    
C89   C145  S    
C99   C108  A    
C12   C90   A    
C37   C40   A    
C38   C39   A    
C43   C52   A    
C21   C73   S    
C124  C132  A    
C7    C130  S    
C144  C150  S    
C20   C35   A    
C133  O24   A    
O5    Zn5   S    
C2    C44   A    
C10   O33   A    
C30   C41   A    
C59   C164  S    
C149  C158  A    
O3    Zn11  S    
C157  C174  A    
C86   O65   D    
C135  C143  A    
C100  O23   A    
C57   H23   S    
C72   O51   D    
O26   Zn6   S    
C8    O31   A    
C44   C53   A    
C22   C72   S    
O9    Zn1   S    
C141  C150  A    
C2    C45   A    
C58   C64   A    
C139  C148  A    
C165  O14   A    
C169  O17   A    
C18   C57   A    
C1    O1    A    
C93   C116  A    
C74   O53   D    
C161  O9    A    
C70   O49   D    
C65   O44   D    
C19   C28   A    
C24   C50   A    
C29   C65   S    
C151  C155  S    
C159  C176  A    
C118  C127  A    
C155  O67   A    
C85   C106  S    
C8    C129  S    
C156  H30   S    
C4    C134  S    
C109  H5    S    
C132  C141  A    
C160  H35   S    
C11   O35   A    
O18   Zn9   S    
C10   O40   A    
C123  C175  A    
C124  C176  A    
O12   Zn5   S    
C91   C114  A    
O24   Zn1   S    
C158  H32   S    
C14   C22   A    
O21   Zn10  S    
C135  H18   S    
C73   O52   D    
C55   C61   A    
C11   O41   A    
O34   Zn7   S    
C148  C157  A    
C119  H11   S    
C107  C116  A    
C154  H29   S    
C27   C67   S    
C43   C57   A    
C94   C173  S    
C77   O57   D    
C104  C113  A    
C138  H21   S    
O39   Zn3   S    
C158  C175  A    
C71   O50   D    
C67   H38   S    
C51   C60   A    
C80   H50   S    
C140  C149  A    
C125  C134  A    
C35   H1    S    
C96   C105  A    
C98   C110  A    
C34   C37   A    
C24   C42   A    
O35   Zn12  S    
C49   C90   A    
C13   C41   A    
C139  H22   S    
O68   Zn9   S    
C142  H26   S    
C47   C55   A    
C81   O60   D    
C52   C167  S    
O23   Zn6   S    
C69   O48   D    
C130  C139  A    
C101  C109  A    
C87   H56   S    
C65   H36   S    
C75   H46   S    
C157  H31   S    
O7    Zn7   S    
C48   C88   A    
C92   C113  A    
C115  H4    S    
C84   O63   D    
C78   H49   S    
C113  H2    S    
C137  H20   S    
C110  H8    S    
O66   Zn10  S    
O29   Zn4   S    
C75   O54   D    
O30   Zn3   S    
O37   Zn4   S    
C79   H45   S    
C112  H7    S    
C76   H47   S    
C168  O16   A    
C9    C128  S    
C23   C71   S    
C47   C166  A    
C83   H53   S    
C98   C107  A    
C111  C147  S    
C134  C142  A    
C77   H48   S    
C121  C174  A    
C147  C156  A    
C92   C101  A    
C97   C106  A    
C53   C165  S    
C143  C152  A    
C126  C135  A    
C21   C23   A    
C102  C110  A    
C123  H15   S    
O31   Zn12  S    
C124  H16   S    
C144  O66   A    
C46   C47   A    
C17   C68   A    
C123  C131  A    
C6    C131  S    
O22   Zn5   S    
C93   C102  A    
C8    O42   A    
C88   H58   S    
C71   H41   S    
O17   Zn11  S    
C16   C79   A    
C33   C41   A    
C39   C166  A    
C36   C38   A    
C164  O13   A    
C70   H40   S    
C117  H9    S    
O33   Zn2   S    
C20   C36   A    
C116  H3    S    
C32   C42   A    
C9    O43   A    
C25   C70   S    
C58   C161  S    
C111  O21   A    
O11   Zn6   S    
C86   C107  S    
C69   H39   S    
O36   Zn3   S    
C82   O61   D    
C59   C64   A    
C60   C63   A    
C17   C26   A    
C95   C174  S    
C141  H25   S    
O4    Zn10  S    
C78   O58   D    
C168  O7    A    
C92   C171  S    
C167  O15   A    
C161  O68   A    
C80   O59   D    
C155  O26   A    
C34   C39   A    
C122  O22   A    
C129  C138  A    
C100  C146  S    
C164  O4    A    
C5    O28   A    
C82   C103  S    
C31   C33   A    
O40   Zn12  S    
O28   Zn4   S    
C136  C145  A    
C119  C172  A    
O13   Zn7   S    
C153  H28   S    
C145  C153  A    
O14   Zn8   S    
O2    Zn8   S    
C97   C176  S    
O42   Zn2   S    
C12   C32   A    
C81   C102  S    
C5    C132  S    
C9    O32   A    
C83   C104  S    
C6    O36   A    
C133  O56   A    
C105  C114  A    
C36   C40   A    
C133  C149  S    
O56   Zn9   S    
C51   C87   A    
C121  H14   S    
C114  H60   S    
O67   Zn11  S    
C12   C21   A    
C22   C25   A    
C49   C58   A    
C162  O10   A    
C128  C137  A    
C1    C143  S    
O20   Zn11  S    
C53   C62   A    
C138  C147  A    
O6    Zn1   S    
C153  C171  A    
C6    O29   A    
C56   C63   A    
C154  C172  A    
C152  H27   S    
C17   C37   A    
C5    O39   A    
C45   C54   A    
C3    C160  A    
C44   C68   A    
C10   C127  S    
C95   C104  A    
C15   C87   A    
O10   Zn5   S    
C24   C49   A    
C48   C56   A    
C81   H51   S    
C91   C170  S    
C18   C27   A    
C7    O37   A    
C19   C34   A    
C94   C103  A    
C13   C48   A    
C3    C125  A    
C26   C28   A    
C89   O12   A    
C108  H6    S    
C80   C101  S    
C91   C99   A    
C151  C160  A    
O27   Zn3   S    
C30   C32   A    
O19   Zn8   S    
C4    O27   A    
C15   C23   A    
O1    Zn1   S    
C120  C173  A    
C89   O19   A    
C46   H12   S    
