data_mof_unit_34206.cif
_audit_creation_date              2013-03-05T15:44:04-0500
_audit_creation_method            fapswitch 2.2
_symmetry_space_group_name_H-M    P1
_symmetry_Int_Tables_number       1
_space_group_crystal_system       triclinic
_cell_length_a                    30.966895
_cell_length_b                    22.407815
_cell_length_c                    18.019756
_cell_angle_alpha                 89.9439
_cell_angle_beta                  123.901287
_cell_angle_gamma                 90.245209
_cell_volume                      10378.1379877

loop_
_atom_site_label
_atom_site_type_symbol
_atom_site_description
_atom_site_fract_x
_atom_site_fract_y
_atom_site_fract_z
_atom_type_partial_charge
C1    C     C_R   0.547024 0.578824 0.746540 0.065877
C2    C     C_R   0.454495 0.418252 0.255866 0.044675
C3    C     C_R   0.464888 0.605386 0.284681 -0.054885
C4    C     C_R   0.545917 0.419170 0.744931 0.029899
C5    C     C_R   0.032773 0.110258 0.705250 -0.059815
C6    C     C_R   0.964895 0.894867 0.284534 -0.034755
C7    C     C_R   0.967427 0.109900 0.294118 -0.035831
C8    C     C_R   0.044942 0.916758 0.742755 0.048059
H1    H     H_    0.524034 0.569962 0.773378 0.210246
H2    H     H_    0.478495 0.424798 0.230438 0.223963
H3    H     H_    0.495679 0.617534 0.276647 0.229993
H4    H     H_    0.522231 0.426235 0.770774 0.217343
H5    H     H_    0.001769 0.122630 0.712208 0.232057
H6    H     H_    0.996044 0.883066 0.277352 0.222053
H7    H     H_    0.998805 0.122240 0.287731 0.220038
H8    H     H_    0.021578 0.923206 0.769399 0.225546
N1    N     N_R   0.532970 0.559900 0.665210 -0.074363
N2    N     N_R   0.467030 0.440100 0.334790 -0.081180
N3    N     N_R   0.467030 0.559900 0.334790 -0.069032
N4    N     N_R   0.532970 0.440100 0.665210 -0.079562
N5    N     N_R   0.032970 0.059900 0.665210 -0.067938
N6    N     N_R   0.967030 0.940100 0.334790 -0.062139
N7    N     N_R   0.967030 0.059900 0.334790 -0.058288
N8    N     N_R   0.032970 0.940100 0.665210 -0.084333
C9    C     C_R   0.644124 0.582775 0.573339 -0.239869
C10   C     C_R   0.374241 0.389603 0.425645 -0.224754
C11   C     C_R   0.371240 0.608512 0.428481 -0.237204
C12   C     C_R   0.622860 0.388341 0.574215 -0.234471
C13   C     C_R   0.145253 0.079815 0.571634 -0.253308
C14   C     C_R   0.874920 0.889506 0.426642 -0.254461
C15   C     C_R   0.855775 0.082129 0.427016 -0.257933
C16   C     C_R   0.144310 0.918665 0.575445 -0.241316
H9    H     H_    0.677193 0.585222 0.642065 0.149211
H10   H     H_    0.347379 0.378390 0.356229 0.140048
H11   H     H_    0.339915 0.619318 0.361204 0.132474
H12   H     H_    0.652866 0.377687 0.642741 0.158344
H13   H     H_    0.178788 0.076376 0.639584 0.140596
H14   H     H_    0.841467 0.880724 0.360217 0.146730
H15   H     H_    0.822190 0.083010 0.358690 0.153913
H16   H     H_    0.177042 0.923184 0.644164 0.158018
N9    N     N_R   0.597900 0.559930 0.545530 -0.067630
N10   N     N_R   0.402100 0.440070 0.454470 -0.073004
N11   N     N_R   0.402100 0.559930 0.454470 -0.067360
N12   N     N_R   0.597900 0.440070 0.545530 -0.077241
N13   N     N_R   0.097900 0.059930 0.545530 -0.074228
N14   N     N_R   0.902100 0.940070 0.454470 -0.072118
N15   N     N_R   0.902100 0.059930 0.454470 -0.072949
N16   N     N_R   0.097900 0.940070 0.545530 -0.076118
C17   C     C_R   0.594793 0.581402 0.424856 0.738532
C18   C     C_R   0.423249 0.389688 0.574177 0.720464
C19   C     C_R   0.423780 0.608376 0.576606 0.720506
C20   C     C_R   0.573190 0.388129 0.425685 0.740598
C21   C     C_R   0.095375 0.078770 0.423889 0.698330
C22   C     C_R   0.926422 0.888595 0.574805 0.743180
C23   C     C_R   0.905397 0.082102 0.575232 0.732452
C24   C     C_R   0.096882 0.918585 0.427457 0.730972
N17   N     N_R   0.567170 0.559950 0.454460 -0.120203
N18   N     N_R   0.432830 0.440050 0.545540 -0.114772
N19   N     N_R   0.432830 0.559950 0.545540 -0.113852
N20   N     N_R   0.567170 0.440050 0.454460 -0.119787
N21   N     N_R   0.067170 0.059950 0.454460 -0.116151
N22   N     N_R   0.932830 0.940050 0.545540 -0.119210
N23   N     N_R   0.932830 0.059950 0.545540 -0.124576
N24   N     N_R   0.067170 0.940050 0.454460 -0.120621
C25   C     C_R   0.390047 0.601572 0.276855 -0.124802
C26   C     C_R   0.617149 0.417486 0.743343 -0.129695
C27   C     C_R   0.617475 0.582800 0.742695 -0.114312
C28   C     C_R   0.383005 0.416646 0.256842 -0.139280
C29   C     C_R   0.894292 0.108923 0.292351 -0.107381
C30   C     C_R   0.116140 0.913480 0.740177 -0.118283
C31   C     C_R   0.105583 0.109521 0.706121 -0.115626
C32   C     C_R   0.889873 0.898191 0.275817 -0.113110
H17   H     H_    0.349812 0.606678 0.253590 0.093988
H18   H     H_    0.657372 0.419763 0.765037 0.095955
H19   H     H_    0.657337 0.581955 0.762221 0.098058
H20   H     H_    0.342681 0.418604 0.234536 0.099308
H21   H     H_    0.857360 0.119305 0.281874 0.106800
H22   H     H_    0.156174 0.912262 0.760518 0.113626
H23   H     H_    0.142135 0.120255 0.714983 0.105845
H24   H     H_    0.849465 0.892478 0.251398 0.102642
N25   N     N_R   0.421470 0.559970 0.334770 -0.043738
N26   N     N_R   0.578530 0.440030 0.665230 -0.048646
N27   N     N_R   0.578530 0.559970 0.665230 -0.049667
N28   N     N_R   0.421470 0.440030 0.334770 -0.049543
N29   N     N_R   0.921470 0.059970 0.334770 -0.048669
N30   N     N_R   0.078530 0.940030 0.665230 -0.053359
N31   N     N_R   0.078530 0.059970 0.665230 -0.048540
N32   N     N_R   0.921470 0.940030 0.334770 -0.046960
C33   C     C_R   0.599242 0.594970 0.796473 0.055871
C34   C     C_R   0.402435 0.401621 0.205638 0.068829
C35   C     C_R   0.417521 0.633906 0.249298 0.101603
C36   C     C_R   0.598064 0.403137 0.795292 0.075981
C37   C     C_R   0.077465 0.143370 0.730787 0.091287
C38   C     C_R   0.917283 0.866200 0.248132 0.088820
C39   C     C_R   0.922514 0.142577 0.267327 0.078415
C40   C     C_R   0.096163 0.898118 0.790670 0.060713
C41   C     C_R   0.642881 0.594828 0.497873 -0.134895
C42   C     C_R   0.387627 0.355312 0.500009 -0.108750
C43   C     C_R   0.385517 0.640645 0.505086 -0.112848
C44   C     C_R   0.607405 0.354575 0.499554 -0.134352
C45   C     C_R   0.145333 0.091826 0.496047 -0.108686
C46   C     C_R   0.891248 0.855606 0.501227 -0.142248
C47   C     C_R   0.857252 0.095449 0.502245 -0.127617
C48   C     C_R   0.145580 0.904436 0.502832 -0.117646
Ni1   Ni    Ni4+2 0.483030 0.500000 0.604430 0.261340
Ni2   Ni    Ni4+2 0.516970 0.500000 0.395570 0.286432
Ni3   Ni    Ni4+2 0.983030 1.000000 0.604430 0.285237
Ni4   Ni    Ni4+2 0.016970 1.000000 0.395570 0.325327
Ni5   Ni    Ni4+2 0.587400 0.500000 0.604430 0.188913
Ni6   Ni    Ni4+2 0.412600 0.500000 0.395570 0.201254
Ni7   Ni    Ni4+2 0.087400 1.000000 0.604430 0.194070
Ni8   Ni    Ni4+2 0.912600 1.000000 0.395570 0.206849
C49   C     C_R   0.636703 0.253030 0.505097 -0.123675
C50   C     C_R   0.343375 0.740622 0.449139 -0.150436
C51   C     C_R   0.382361 0.265009 0.577514 -0.108207
C52   C     C_R   0.678192 0.690759 0.511346 -0.157694
C53   C     C_R   0.228557 0.853905 0.591055 -0.165002
C54   C     C_R   0.824655 0.191921 0.497439 -0.157610
C55   C     C_R   0.856321 0.755570 0.478591 -0.173943
C56   C     C_R   0.184289 0.122299 0.412149 -0.103040
C57   C     C_R   0.641831 0.314010 0.498798 0.140662
C58   C     C_R   0.363294 0.695211 0.513715 0.103567
C59   C     C_R   0.366626 0.295568 0.498139 0.105538
C60   C     C_R   0.678908 0.630633 0.495003 0.121139
C61   C     C_R   0.193016 0.884452 0.512265 0.109580
C62   C     C_R   0.820297 0.130854 0.503292 0.136315
C63   C     C_R   0.857418 0.814600 0.502506 0.150729
C64   C     C_R   0.190920 0.106942 0.493469 0.108231
C65   C     C_R   0.681192 0.338812 0.493842 -0.142990
C66   C     C_R   0.362635 0.701178 0.590135 -0.103342
C67   C     C_R   0.327437 0.270709 0.415981 -0.172168
C68   C     C_R   0.710220 0.606524 0.470331 -0.114879
C69   C     C_R   0.203625 0.894144 0.447170 -0.130922
C70   C     C_R   0.781063 0.104629 0.507282 -0.129573
C71   C     C_R   0.821797 0.838323 0.517540 -0.120911
C72   C     C_R   0.240542 0.111518 0.573087 -0.188465
C73   C     C_R   0.716600 0.302305 0.494165 0.087462
C74   C     C_R   0.339573 0.749449 0.600826 0.055723
C75   C     C_R   0.297611 0.223250 0.413350 0.101017
C76   C     C_R   0.744644 0.643699 0.466720 0.073107
C77   C     C_R   0.246918 0.866629 0.456623 0.058974
C78   C     C_R   0.744825 0.141007 0.506435 0.077016
C79   C     C_R   0.783861 0.802414 0.509945 0.072363
C80   C     C_R   0.280918 0.139455 0.573291 0.102101
C81   C     C_R   0.712606 0.240037 0.500566 0.027019
C82   C     C_R   0.314038 0.791657 0.531784 0.025340
C83   C     C_R   0.308811 0.198133 0.493896 0.031406
C84   C     C_R   0.745276 0.705130 0.484934 0.027689
C85   C     C_R   0.279253 0.830697 0.532159 0.031088
C86   C     C_R   0.748414 0.203473 0.499962 0.028556
C87   C     C_R   0.782001 0.741777 0.487210 0.023680
C88   C     C_R   0.272407 0.159771 0.492166 0.031380
C89   C     C_R   0.672868 0.214732 0.507707 -0.059451
C90   C     C_R   0.318910 0.790365 0.458178 -0.024296
C91   C     C_R   0.353777 0.215974 0.576583 -0.071504
C92   C     C_R   0.710260 0.729409 0.504177 -0.041260
C93   C     C_R   0.272535 0.828421 0.603442 -0.036609
C94   C     C_R   0.788172 0.229305 0.493490 -0.050084
C95   C     C_R   0.817992 0.717796 0.469827 -0.057251
C96   C     C_R   0.225096 0.146916 0.410052 -0.079207
C97   C     C_R   0.755482 0.327678 0.487491 -0.293653
C98   C     C_R   0.338282 0.753037 0.676901 -0.275226
C99   C     C_R   0.254038 0.204269 0.331395 -0.293862
C100  C     C_R   0.778835 0.620188 0.447015 -0.290232
C101  C     C_R   0.257325 0.872093 0.390619 -0.277106
C102  C     C_R   0.705742 0.115901 0.513075 -0.269422
C103  C     C_R   0.747940 0.826844 0.524649 -0.278066
C104  C     C_R   0.328257 0.151369 0.654202 -0.303750
C105  C     C_R   0.295566 0.836482 0.393349 0.315972
C106  C     C_R   0.669985 0.152234 0.515243 0.344683
C107  C     C_R   0.710077 0.790956 0.520220 0.339701
C108  C     C_R   0.365432 0.188801 0.656779 0.340291
C109  C     C_R   0.791232 0.291657 0.485884 0.348640
C110  C     C_R   0.305901 0.793937 0.680355 0.341596
C111  C     C_R   0.217735 0.165415 0.328611 0.336819
C112  C     C_R   0.815451 0.656815 0.447337 0.343170
H25   H     H_    0.604431 0.236574 0.506976 0.180190
H26   H     H_    0.344419 0.734961 0.390558 0.152479
H27   H     H_    0.414173 0.281859 0.640590 0.237457
H28   H     H_    0.652709 0.706438 0.530602 0.177109
H29   H     H_    0.219261 0.844671 0.639528 0.167027
H30   H     H_    0.857099 0.209383 0.496747 0.175914
H31   H     H_    0.885583 0.740247 0.468059 0.184359
H32   H     H_    0.146263 0.120890 0.350961 0.230656
H33   H     H_    0.683855 0.386924 0.489429 0.126931
H34   H     H_    0.376056 0.665723 0.638844 0.186908
H35   H     H_    0.316641 0.291015 0.353497 0.121860
H36   H     H_    0.708447 0.559151 0.456309 0.136091
H37   H     H_    0.177460 0.920373 0.388252 0.202316
H38   H     H_    0.779218 0.056473 0.511595 0.133703
H39   H     H_    0.823343 0.885375 0.533596 0.134281
H40   H     H_    0.247084 0.098060 0.636216 0.125632
H41   H     H_    0.757397 0.375660 0.481617 0.177975
H42   H     H_    0.361142 0.722597 0.732235 0.200388
H43   H     H_    0.247148 0.221618 0.269486 0.179282
H44   H     H_    0.777126 0.573134 0.431533 0.187425
H45   H     H_    0.235458 0.903895 0.336951 0.202815
H46   H     H_    0.703879 0.067941 0.519054 0.187600
H47   H     H_    0.749116 0.874065 0.538936 0.181487
H48   H     H_    0.335544 0.133258 0.715999 0.182486
C113  C     C_R   0.401026 0.691574 0.201488 -0.097398
C114  C     C_R   0.629283 0.384245 0.890721 -0.102210
C115  C     C_R   0.631369 0.611520 0.892883 -0.095465
C116  C     C_R   0.371668 0.382050 0.110537 -0.094367
C117  C     C_R   0.907571 0.202471 0.223849 -0.087863
C118  C     C_R   0.125856 0.876317 0.883798 -0.097635
C119  C     C_R   0.092144 0.203871 0.772554 -0.086345
C120  C     C_R   0.900895 0.808715 0.199053 -0.093245
C121  C     C_R   0.406947 0.772240 0.117650 -0.276541
C122  C     C_R   0.635914 0.340740 0.020418 -0.305667
C123  C     C_R   0.640403 0.651255 0.026527 -0.313780
C124  C     C_R   0.365751 0.337559 0.982082 -0.309175
C125  C     C_R   0.916138 0.284278 0.143900 -0.326792
C126  C     C_R   0.130525 0.825249 0.006816 -0.319341
C127  C     C_R   0.083037 0.287021 0.849629 -0.306192
C128  C     C_R   0.907933 0.730923 0.112696 -0.333325
C129  C     C_R   0.425117 0.717936 0.162454 0.784557
C130  C     C_R   0.605633 0.363519 0.933911 0.793994
C131  C     C_R   0.609017 0.629352 0.939402 0.781729
C132  C     C_R   0.395751 0.360042 0.068907 0.782830
C133  C     C_R   0.934632 0.230954 0.191440 0.776721
C134  C     C_R   0.101055 0.850797 0.922239 0.788924
C135  C     C_R   0.064436 0.233333 0.802726 0.787247
C136  C     C_R   0.924720 0.785255 0.157945 0.779616
C137  C     C_R   0.359986 0.721371 0.196727 -0.277303
C138  C     C_R   0.683851 0.383553 0.937988 -0.309051
C139  C     C_R   0.685699 0.613202 0.937774 -0.310307
C140  C     C_R   0.317088 0.382551 0.061799 -0.309334
C141  C     C_R   0.863694 0.230938 0.211759 -0.285354
C142  C     C_R   0.180205 0.878222 0.933399 -0.294433
C143  C     C_R   0.136497 0.231966 0.785421 -0.311096
C144  C     C_R   0.861059 0.775955 0.195470 -0.292071
C145  C     C_R   0.338231 0.773022 0.145557 0.107056
C146  C     C_R   0.714844 0.358247 0.023799 0.097459
C147  C     C_R   0.717571 0.638335 0.023486 0.095212
C148  C     C_R   0.286292 0.357584 0.975623 0.096024
C149  C     C_R   0.843460 0.283562 0.161306 0.102098
C150  C     C_R   0.210456 0.849185 0.016046 0.105892
C151  C     C_R   0.156642 0.285057 0.834870 0.095329
C152  C     C_R   0.841944 0.722521 0.146580 0.109903
C153  C     C_R   0.362847 0.798953 0.106565 0.046136
C154  C     C_R   0.689830 0.335496 0.063918 0.055522
C155  C     C_R   0.693934 0.658844 0.066894 0.065949
C156  C     C_R   0.311603 0.333857 0.936741 0.063276
C157  C     C_R   0.869722 0.309256 0.125241 0.075407
C158  C     C_R   0.184599 0.821515 0.051694 0.080927
C159  C     C_R   0.130046 0.311478 0.869563 0.069224
C160  C     C_R   0.865813 0.700473 0.104186 0.076742
C161  C     C_R   0.289819 0.795668 0.124544 0.132040
C162  C     C_R   0.769110 0.348701 0.065961 0.098348
C163  C     C_R   0.770892 0.651151 0.061102 0.092950
C164  C     C_R   0.231718 0.349317 0.931786 0.094856
C165  C     C_R   0.794810 0.307360 0.137617 0.082854
C166  C     C_R   0.264612 0.840065 0.057496 0.091578
C167  C     C_R   0.205740 0.308308 0.859592 0.096988
C168  C     C_R   0.796319 0.694122 0.130602 0.102011
C169  C     C_R   0.797948 0.376547 0.036408 -0.201954
C170  C     C_R   0.263772 0.772319 0.162617 -0.127386
C171  C     C_R   0.202760 0.377911 0.960255 -0.212320
C172  C     C_R   0.798420 0.625981 0.027438 -0.201793
C173  C     C_R   0.293349 0.870192 0.029390 -0.171686
C174  C     C_R   0.769824 0.289257 0.179847 -0.159011
C175  C     C_R   0.773281 0.709739 0.177019 -0.135042
C176  C     C_R   0.230920 0.289736 0.818069 -0.215833
C177  C     C_R   0.848075 0.357900 0.067459 -0.134603
C178  C     C_R   0.212407 0.786606 0.128132 -0.125172
C179  C     C_R   0.152046 0.360152 0.927535 -0.129957
C180  C     C_R   0.845744 0.649865 0.050045 -0.135788
C181  C     C_R   0.341865 0.849798 0.053833 -0.072528
C182  C     C_R   0.718444 0.304583 0.144600 -0.123368
C183  C     C_R   0.723291 0.690583 0.146933 -0.145460
C184  C     C_R   0.282904 0.303606 0.855291 -0.128515
H49   H     H_    0.868590 0.379174 0.041602 0.137011
H50   H     H_    0.193407 0.766633 0.157649 0.128394
H51   H     H_    0.131380 0.381949 0.952510 0.141010
H52   H     H_    0.864858 0.631098 0.020168 0.136668
H53   H     H_    0.361584 0.871876 0.027084 0.159440
H54   H     H_    0.700055 0.288527 0.177374 0.148553
H55   H     H_    0.706139 0.704922 0.182431 0.143239
H56   H     H_    0.301537 0.286992 0.823352 0.151775
H57   H     H_    0.701697 0.398682 0.904663 0.145833
H58   H     H_    0.344070 0.702161 0.230871 0.138452
H59   H     H_    0.298968 0.398598 0.094106 0.146914
H60   H     H_    0.702568 0.599767 0.902255 0.145640
H61   H     H_    0.198323 0.898472 0.903394 0.150543
H62   H     H_    0.843260 0.209500 0.236683 0.146981
H63   H     H_    0.843576 0.794281 0.227761 0.143498
H64   H     H_    0.157589 0.209801 0.762523 0.148041
H65   H     H_    0.425698 0.791784 0.087448 0.187016
H66   H     H_    0.616690 0.323530 0.051155 0.191967
H67   H     H_    0.622185 0.666572 0.059806 0.189041
H68   H     H_    0.385225 0.319480 0.952425 0.199488
H69   H     H_    0.936745 0.304351 0.117382 0.180340
H70   H     H_    0.110677 0.804207 0.034082 0.183913
H71   H     H_    0.062053 0.307744 0.874791 0.181765
H72   H     H_    0.926205 0.714185 0.080213 0.179336
H73   H     H_    0.782592 0.413112 0.989501 0.125791
H74   H     H_    0.281865 0.743002 0.219540 0.105277
H75   H     H_    0.218479 0.414325 0.007600 0.132966
H76   H     H_    0.783801 0.588036 0.982819 0.125630
H77   H     H_    0.278764 0.909110 0.987064 0.139503
H78   H     H_    0.789243 0.263204 0.240422 0.167601
H79   H     H_    0.792984 0.736995 0.236562 0.144678
H80   H     H_    0.211106 0.264419 0.756574 0.135542
F1    F     F_    0.553219 0.361465 0.891651 -0.657217
F2    F     F_    0.465027 0.691132 0.164853 -0.677065
F3    F     F_    0.448209 0.356565 0.112965 -0.663332
F4    F     F_    0.556814 0.629599 0.899925 -0.672162
F5    F     F_    0.048512 0.846596 0.876629 -0.662125
F6    F     F_    0.977691 0.206893 0.201686 -0.689400
F7    F     F_    0.962690 0.815403 0.157727 -0.680576
F8    F     F_    0.020595 0.209990 0.790901 -0.683038
F9    F     F_    0.581601 0.576768 0.339606 -0.686042
F10   F     F_    0.443120 0.377560 0.660953 -0.708364
F11   F     F_    0.449681 0.623557 0.663909 -0.714755
F12   F     F_    0.558253 0.376643 0.340738 -0.678451
F13   F     F_    0.081282 0.066361 0.339581 -0.667133
F14   F     F_    0.941187 0.877690 0.659779 -0.675295
F15   F     F_    0.918521 0.077757 0.660471 -0.672983
F16   F     F_    0.084965 0.924020 0.343108 -0.668918
N33   N     N_R   0.311379 0.849497 0.333401 0.233829
O1    O     O_R   0.284521 0.886665 0.267606 -0.382515
O2    O     O_R   0.357642 0.835020 0.354815 -0.381411
N34   N     N_R   0.632143 0.124994 0.527117 0.242619
O3    O     O_R   0.609966 0.075032 0.486632 -0.329776
O4    O     O_R   0.627303 0.143408 0.590583 -0.364228
N35   N     N_R   0.672003 0.817603 0.531716 0.239062
O5    O     O_R   0.685622 0.860281 0.589784 -0.342667
O6    O     O_R   0.622719 0.807163 0.473803 -0.359188
N36   N     N_R   0.413570 0.200233 0.741187 0.248669
O7    O     O_R   0.414673 0.201713 0.814441 -0.359701
O8    O     O_R   0.457371 0.199841 0.746939 -0.335234
N37   N     N_R   0.829539 0.319074 0.475298 0.240652
O9    O     O_R   0.851940 0.368631 0.517064 -0.349631
O10   O     O_R   0.834708 0.301318 0.411942 -0.423454
N38   N     N_R   0.305561 0.797979 0.759806 0.236270
O11   O     O_R   0.316741 0.751545 0.810833 -0.378295
O12   O     O_R   0.301615 0.849735 0.788219 -0.414410
N39   N     N_R   0.173296 0.146646 0.243267 0.246580
O13   O     O_R   0.153430 0.182029 0.174500 -0.355112
O14   O     O_R   0.157449 0.091438 0.230859 -0.324520
N40   N     N_R   0.849932 0.631035 0.426477 0.240422
O15   O     O_R   0.867988 0.577497 0.454069 -0.343135
O16   O     O_R   0.855957 0.656021 0.367616 -0.420970

loop_
_geom_bond_atom_site_label_1
_geom_bond_atom_site_label_2
_geom_bond_distance
_ccdc_geom_bond_type
C49   H25   1.081860 S    
C127  C159  1.399538 A    
C65   H33   1.087097 S    
C84   C87   1.381811 A    
C139  H60   1.071388 S    
C146  C162  1.423165 A    
C115  C139  1.402752 A    
C69   H37   1.082748 S    
N37   O9    1.301307 A    
C113  C137  1.397773 A    
C179  H51   1.083982 S    
N14   N22   1.362563 A    
C41   C60   1.395573 S    
N14   Ni8   1.847712 S    
C45   C64   1.476072 S    
C122  H66   1.084115 S    
C14   H14   1.077068 S    
C2    C34   1.387411 A    
C47   C62   1.404007 S    
C126  C134  1.390868 A    
C127  H71   1.084046 S    
C166  C173  1.414596 A    
N34   O3    1.301289 A    
C128  H72   1.084053 S    
C28   C34   1.395835 A    
C16   C48   1.368810 A    
C3    N3    1.338098 A    
N11   Ni6   1.851240 S    
C4    H4    1.077981 S    
C20   F12   1.353956 S    
C98   C110  1.388124 A    
C5    H5    1.072838 S    
C124  H68   1.084173 S    
C32   C38   1.400529 A    
C162  C165  1.419993 A    
C7    H7    1.075300 S    
C8    H8    1.078626 S    
N10   N18   1.362563 A    
C21   F13   1.354987 S    
C34   C116  1.487734 S    
C54   H30   1.083174 S    
C101  C105  1.408706 A    
C51   C59   1.405566 A    
N36   O7    1.301734 A    
C38   C120  1.481521 S    
C122  C154  1.399084 A    
C9    N9    1.325213 A    
N40   O15   1.301352 A    
C103  C107  1.384013 A    
C124  C132  1.393142 A    
C11   H11   1.076520 S    
C53   C93   1.377626 A    
C12   N12   1.330028 A    
C13   N13   1.339929 A    
C35   C113  1.478360 S    
C176  H80   1.079836 S    
C111  N39   1.439165 S    
C163  C172  1.412239 A    
C26   N26   1.338894 A    
C82   C90   1.416409 A    
C11   C43   1.392067 A    
C14   C46   1.371961 A    
C149  C157  1.414227 A    
C74   C98   1.395963 A    
N8    Ni3   1.875686 S    
C137  H58   1.068981 S    
C147  C155  1.414584 A    
C120  C144  1.402947 A    
C72   H40   1.081112 S    
C52   H28   1.083790 S    
C151  C167  1.421142 A    
C143  H64   1.071148 S    
C54   C94   1.378924 A    
C144  H63   1.074287 S    
C141  C149  1.406564 A    
C66   C74   1.370238 A    
C149  C165  1.423110 A    
C25   C35   1.400251 A    
C174  H78   1.078632 S    
C156  C184  1.394697 A    
C157  C177  1.395363 A    
N38   O11   1.301558 A    
C29   C39   1.403270 A    
N13   Ni7   1.847712 S    
C31   C37   1.403225 A    
N20   Ni2   1.876736 S    
C83   C91   1.414489 A    
C128  C160  1.399934 A    
C121  C129  1.395100 A    
C73   C97   1.393916 A    
C182  H54   1.084173 S    
C163  C168  1.418230 A    
C52   C92   1.374190 A    
C3    H3    1.075146 S    
C17   C41   1.360336 A    
C4    N4    1.342454 A    
N3    Ni2   1.875683 S    
N31   Ni7   1.850222 S    
N25   Ni6   1.846955 S    
C62   C70   1.384902 A    
C55   C95   1.390219 A    
N33   O1    1.301947 A    
C56   C96   1.396357 A    
C107  N35   1.438150 S    
C22   F14   1.353742 S    
C50   C90   1.410010 A    
C15   C47   1.363955 A    
C67   H35   1.080257 S    
C27   N27   1.335243 A    
N4    N26   1.410656 A    
C117  C141  1.406216 A    
C161  C170  1.417053 A    
N29   Ni8   1.846955 S    
C99   C111  1.397559 A    
C131  F4    1.355210 S    
C31   H23   1.077334 S    
C110  N38   1.440514 S    
C171  H75   1.079491 S    
C151  C159  1.413813 A    
N12   N20   1.362563 A    
C6    H6    1.076393 S    
C26   H18   1.078529 S    
C17   N17   1.323759 A    
C60   C68   1.384041 A    
C109  N37   1.437695 S    
C68   H36   1.085464 S    
C20   N20   1.329680 A    
C21   N21   1.333148 A    
C37   C119  1.492006 S    
C86   C94   1.420714 A    
C50   H26   1.081591 S    
C23   N23   1.328728 A    
C89   C106  1.414114 A    
C24   N24   1.348461 A    
C172  C180  1.388433 A    
C173  C181  1.388275 A    
C81   C86   1.386445 A    
N11   N19   1.362561 A    
C93   C110  1.411678 A    
C159  C179  1.395340 A    
C175  C183  1.390377 A    
N17   Ni2   1.868680 S    
C184  H56   1.084204 S    
N9    Ni5   1.847712 S    
C125  C133  1.395046 A    
C148  C164  1.422233 A    
C118  C142  1.398090 A    
C150  C166  1.420383 A    
C65   C73   1.368234 A    
N24   Ni4   1.876736 S    
C152  C168  1.422281 A    
C181  H53   1.084077 S    
N26   Ni5   1.846955 S    
C18   C42   1.395190 A    
C121  C153  1.402031 A    
N35   O6    1.301430 A    
C26   C36   1.394215 A    
C6    C38   1.389469 A    
C20   C44   1.375263 A    
C87   C95   1.422675 A    
C30   C40   1.398028 A    
N2    Ni2   1.867730 S    
C78   C102  1.396853 A    
N2    N28   1.410645 A    
C180  H52   1.084036 S    
C97   H41   1.084863 S    
C55   H31   1.081520 S    
C129  F2    1.355271 S    
C125  C157  1.399896 A    
C56   H32   1.074574 S    
C79   C103  1.393389 A    
C146  C154  1.415309 A    
C164  C167  1.418641 A    
C140  H59   1.072203 S    
C9    C41   1.365534 A    
C141  H62   1.070932 S    
C102  C106  1.395151 A    
C95   C112  1.414992 A    
C96   C111  1.415582 A    
C135  F8    1.354078 S    
C27   H19   1.078695 S    
C136  F7    1.355457 S    
C170  C178  1.385654 A    
C36   C114  1.489456 S    
C10   N10   1.336336 A    
C177  H49   1.084002 S    
C79   C87   1.411172 A    
C33   C115  1.488449 S    
C14   N14   1.328818 A    
C100  H44   1.084434 S    
C76   C100  1.396129 A    
C123  C131  1.394834 A    
C1    N1    1.343571 A    
C138  C146  1.407533 A    
N18   Ni1   1.868682 S    
C114  C130  1.410650 A    
C75   C99   1.398550 A    
N30   Ni7   1.846955 S    
N10   Ni6   1.847712 S    
C32   H24   1.077168 S    
C74   C82   1.405080 A    
C7    N7    1.341974 A    
C142  H61   1.071799 S    
C183  H55   1.084149 S    
C8    N8    1.336376 A    
C153  C181  1.392334 A    
C112  N40   1.438260 S    
C67   C75   1.388928 A    
C49   C57   1.386801 A    
N34   O4    1.301260 A    
C103  H47   1.084875 S    
N3    N25   1.410658 A    
N8    N30   1.410656 A    
C9    H9    1.081803 S    
C30   N30   1.335677 A    
N5    N31   1.410643 A    
C145  C161  1.421697 A    
C114  C138  1.405641 A    
C119  C135  1.411956 A    
N19   Ni1   1.876734 S    
N36   O8    1.301487 A    
C116  C132  1.410689 A    
C73   C81   1.410518 A    
C63   C71   1.382532 A    
C64   C72   1.403472 A    
N15   N23   1.362561 A    
N40   O16   1.300733 A    
N16   N24   1.362563 A    
C2    N2    1.340489 A    
C6    N6    1.336503 A    
C3    C35   1.389385 A    
C44   C57   1.409752 S    
C123  H67   1.084057 S    
C29   H21   1.076590 S    
C91   C108  1.416932 A    
C48   C61   1.454013 S    
C21   C45   1.386564 A    
C105  N33   1.442241 S    
N6    N32   1.410645 A    
C162  C169  1.412631 A    
N12   Ni5   1.851243 S    
C161  C166  1.418095 A    
C176  C184  1.389062 A    
C15   N15   1.328165 A    
C16   N16   1.314243 A    
N37   O10   1.301021 A    
C18   N18   1.339639 A    
C123  C155  1.399517 A    
C1    H1    1.078338 S    
C24   C48   1.392058 A    
N38   O12   1.301646 A    
N22   Ni3   1.868682 S    
C22   N22   1.326808 A    
C90   C105  1.420271 A    
C127  C135  1.395145 A    
C5    N5    1.341815 A    
C28   N28   1.339953 A    
C29   N29   1.335844 A    
C101  H45   1.083461 S    
C70   C78   1.382999 A    
C82   C85   1.393475 A    
C97   C109  1.386137 A    
C94   C109  1.411693 A    
C25   N25   1.333431 A    
N39   O13   1.301730 A    
C99   H43   1.084206 S    
C150  C158  1.416639 A    
C66   H34   1.081120 S    
C169  C177  1.390487 A    
C102  H46   1.084447 S    
C71   H39   1.087351 S    
C43   C58   1.455928 S    
C31   N31   1.335150 A    
C169  H73   1.079594 S    
C120  C136  1.408250 A    
C139  C147  1.404706 A    
N4    Ni1   1.875686 S    
C52   C60   1.382281 A    
C59   C67   1.402290 A    
C121  H65   1.083985 S    
C22   C46   1.369232 A    
C57   C65   1.384944 A    
C56   C64   1.404228 A    
C68   C76   1.379933 A    
C69   C77   1.399490 A    
C137  C145  1.398304 A    
C77   C101  1.400164 A    
C78   C86   1.413494 A    
C138  H57   1.071966 S    
N9    N17   1.362564 A    
N35   O5    1.301375 A    
C72   C80   1.394051 A    
C70   H38   1.085324 S    
C178  H50   1.084326 S    
N6    Ni4   1.867730 S    
N7    Ni4   1.875683 S    
C50   C58   1.404392 A    
N13   N21   1.362564 A    
C100  C112  1.394288 A    
C155  C183  1.395097 A    
C171  C179  1.390857 A    
N32   Ni8   1.850226 S    
C11   N11   1.351410 A    
C104  C108  1.401120 A    
C19   F11   1.350943 S    
C167  C176  1.412566 A    
C12   H12   1.080084 S    
C80   C88   1.408423 A    
C168  C175  1.413999 A    
C13   H13   1.079672 S    
C152  C160  1.416964 A    
C84   C92   1.420170 A    
C85   C93   1.412009 A    
C164  C171  1.412989 A    
C4    C36   1.389202 A    
C165  C174  1.412768 A    
C39   C117  1.492637 S    
C88   C96   1.413441 A    
C30   H22   1.079535 S    
C8    C40   1.383127 A    
C147  C163  1.419931 A    
C76   C84   1.412937 A    
C128  C136  1.393186 A    
C77   C85   1.409967 A    
C75   C83   1.407901 A    
C80   C104  1.399709 A    
C154  C182  1.394608 A    
C118  C134  1.409128 A    
C53   H29   1.080860 S    
C174  C182  1.389183 A    
N15   Ni8   1.851240 S    
C23   C47   1.362962 A    
C27   C33   1.394468 A    
C25   H17   1.076880 S    
C143  C151  1.405015 A    
N21   Ni4   1.868680 S    
C10   H10   1.076034 S    
N33   O2    1.301384 A    
C126  H70   1.084170 S    
N27   Ni5   1.850222 S    
C116  C140  1.404428 A    
C125  H69   1.084053 S    
C12   C44   1.375569 A    
C32   N32   1.341433 A    
C19   C43   1.374699 A    
C42   C59   1.477992 S    
C13   C45   1.389490 A    
C46   C63   1.400350 S    
C172  H76   1.079970 S    
C173  H77   1.078899 S    
N28   Ni6   1.850226 S    
N1    N27   1.410643 A    
C175  H79   1.079040 S    
C132  F3    1.355568 S    
N1    Ni1   1.867730 S    
C133  F6    1.354266 S    
C40   C118  1.476906 S    
C98   H42   1.084423 S    
C126  C158  1.398367 A    
C28   H20   1.078573 S    
C106  N34   1.436998 S    
N5    Ni3   1.867730 S    
C10   C42   1.392477 A    
C145  C153  1.416084 A    
N39   O14   1.301586 A    
C142  C150  1.402103 A    
C19   N19   1.322206 A    
N23   Ni3   1.876734 S    
C2    H2    1.078244 S    
C17   F9    1.355518 S    
C61   C69   1.399937 A    
C81   C89   1.422279 A    
C1    C33   1.388474 A    
C51   C91   1.402223 A    
C49   C89   1.393659 A    
C23   F15   1.355587 S    
C5    C37   1.399681 A    
C24   F16   1.354835 S    
C160  C180  1.394198 A    
C134  F5    1.356034 S    
C7    C39   1.400918 A    
C92   C107  1.410085 A    
C122  C130  1.393457 A    
C115  C131  1.411281 A    
C148  C156  1.415940 A    
C83   C88   1.401178 A    
C130  F1    1.355405 S    
C113  C129  1.407495 A    
C124  C156  1.398821 A    
C158  C178  1.389665 A    
C108  N36   1.438547 S    
C119  C143  1.405064 A    
C53   C61   1.398944 A    
C170  H74   1.076264 S    
C117  C133  1.411137 A    
C71   C79   1.363456 A    
C15   H15   1.081495 S    
C16   H16   1.081782 S    
C104  H48   1.084095 S    
C140  C148  1.406769 A    
C18   F10   1.350854 S    
N16   Ni7   1.851243 S    
N7    N29   1.410658 A    
C144  C152  1.405150 A    
C54   C62   1.384113 A    
C58   C66   1.395122 A    
C51   H27   1.074016 S    
C55   C63   1.385950 A    
