data_mof_unit_15155.cif
_audit_creation_date              2012-12-10T17:24:50-0500
_audit_creation_method            fapswitch 2.2
_symmetry_space_group_name_H-M    P1
_symmetry_Int_Tables_number       1
_space_group_crystal_system       triclinic
_cell_length_a                    10.065001
_cell_length_b                    10.907046
_cell_length_c                    19.127004
_cell_angle_alpha                 89.300521
_cell_angle_beta                  83.02518
_cell_angle_gamma                 95.145423
_cell_volume                      2075.24711929

loop_
_atom_site_label
_atom_site_type_symbol
_atom_type_description
_atom_site_fract_x
_atom_site_fract_y
_atom_site_fract_z
_atom_type_partial_charge
C1    C     C_R   0.556286 0.732004 0.497158 0.928887
C2    C     C_R   0.497834 0.503989 0.365499 0.864363
C3    C     C_R   0.389951 0.446813 0.751473 -0.243872
C4    C     C_R   0.563696 0.425214 0.248716 -0.266889
C5    C     C_R   0.383384 0.436436 0.823518 -0.211953
C6    C     C_R   0.545697 0.409508 0.178946 -0.198727
C7    C     C_R   0.493213 0.478353 0.856849 0.035412
C8    C     C_R   0.444766 0.466048 0.150438 0.022311
C9    C     C_R   0.614699 0.530168 0.818364 0.154796
C10   C     C_R   0.357470 0.537908 0.192617 0.148466
C11   C     C_R   0.624254 0.536712 0.743493 0.142821
C12   C     C_R   0.443722 0.267976 0.502714 0.947888
C13   C     C_R   0.389001 0.569072 0.260849 0.160636
C14   C     C_R   0.507856 0.496430 0.710798 -0.090971
C15   C     C_R   0.486436 0.503473 0.290155 -0.077646
C16   C     C_R   0.447064 0.465106 0.074325 0.274513
C17   C     C_R   0.475003 0.472388 0.932848 0.286596
C18   C     C_3   0.731634 0.577068 0.857769 -0.425861
C19   C     C_3   0.825533 0.476675 0.865804 -0.866630
C20   C     C_3   0.227959 0.572937 0.166360 -0.418088
C21   C     C_3   0.103046 0.513879 0.212437 -0.887241
C22   C     C_3   0.755418 0.587552 0.699703 -0.408014
C23   C     C_2   0.588421 0.862977 0.492018 -0.491936
C24   C     C_3   0.745778 0.716503 0.669896 -0.883292
C25   C     C_3   0.325837 0.675761 0.299760 -0.392833
C26   C     C_3   0.431651 0.779135 0.313685 -0.868829
C27   C     C_3   0.603705 0.107872 0.373475 0.113883
C28   C     C_3   0.735041 0.149314 0.328032 -0.828900
C29   C     C_3   0.399658 0.896230 0.627063 0.112546
C30   C     C_3   0.275624 0.837763 0.672935 -0.806330
C31   C     C_2   0.411655 0.136884 0.507201 -0.497179
C32   C     C_2   0.493361 0.937398 0.513809 0.405004
C33   C     C_2   0.507299 0.062696 0.485910 0.396301
C34   C     C_2   0.928623 0.513579 0.503338 -0.142497
C35   C     C_2   0.072964 0.492092 0.493098 -0.142141
C36   C     C_R   0.503402 0.501631 0.634575 0.868682
H1    H     H_    0.301931 0.414004 0.727219 0.170829
H2    H     H_    0.878194 0.381666 0.438592 0.175546
H3    H     H_    0.771203 0.398652 0.898446 0.272054
H4    H     H_    0.864433 0.441705 0.813751 0.251749
H5    H     H_    0.912025 0.514451 0.892322 0.253544
H6    H     H_    0.787607 0.661121 0.832032 0.208028
H7    H     H_    0.696332 0.608625 0.911062 0.222765
H8    H     H_    0.103791 0.412072 0.213271 0.264046
H9    H     H_    0.097431 0.546354 0.267292 0.253875
H10   H     H_    0.011349 0.537740 0.190333 0.258218
H11   H     H_    0.226525 0.674345 0.162608 0.206346
H12   H     H_    0.638895 0.376275 0.270322 0.172200
H13   H     H_    0.217894 0.539691 0.112609 0.226017
H14   H     H_    0.669354 0.715297 0.632850 0.253123
H15   H     H_    0.718905 0.779879 0.713317 0.253714
H16   H     H_    0.844325 0.752023 0.640931 0.247079
H17   H     H_    0.842797 0.592476 0.729585 0.208768
H18   H     H_    0.786251 0.523976 0.657496 0.225030
H19   H     H_    0.502300 0.747552 0.348692 0.251033
H20   H     H_    0.489527 0.814445 0.263206 0.254890
H21   H     H_    0.380973 0.855840 0.339734 0.243804
H22   H     H_    0.255578 0.719518 0.269413 0.209761
H23   H     H_    0.290690 0.397678 0.853767 0.155473
H24   H     H_    0.263594 0.643892 0.349460 0.234553
H25   H     H_    0.528607 0.173421 0.364116 0.136025
H26   H     H_    0.568276 0.014320 0.356879 0.131443
H27   H     H_    0.811447 0.084430 0.335401 0.253357
H28   H     H_    0.718680 0.151335 0.271663 0.202686
H29   H     H_    0.772859 0.242989 0.342913 0.253769
H30   H     H_    0.420518 0.992800 0.643776 0.131517
H31   H     H_    0.485667 0.842957 0.635925 0.130515
H32   H     H_    0.254108 0.740541 0.658028 0.261573
H33   H     H_    0.292998 0.839722 0.729161 0.207499
H34   H     H_    0.612386 0.354243 0.146732 0.162531
H35   H     H_    0.187536 0.889218 0.666109 0.246970
H36   H     H_    0.315330 0.101809 0.535521 0.175909
H37   H     H_    0.684167 0.897600 0.462918 0.178642
H38   H     H_    0.108684 0.425310 0.455336 0.165588
H39   H     H_    0.894162 0.584633 0.538450 0.170538
H40   H     H_    0.120625 0.613971 0.564088 0.173889
N1    N     N_R   0.481884 0.364940 0.967888 -0.168315
N2    N     N_R   0.440328 0.572239 0.038871 -0.185345
N3    N     N_R   0.468821 0.361462 0.037868 -0.174840
N4    N     N_R   0.452950 0.575676 0.969114 -0.184598
N5    N     N_2   0.842710 0.448880 0.471430 -0.187184
N6    N     N_2   0.157290 0.551120 0.528570 -0.190823
O1    O     O_R   0.431050 0.692470 0.505750 -0.533580
O2    O     O_3   0.375550 0.894081 0.555879 -0.599949
O3    O     O_R   0.568950 0.307530 0.494250 -0.537828
O4    O     O_R   0.651120 0.659650 0.487410 -0.622553
O5    O     O_R   0.348880 0.340350 0.512590 -0.622053
O6    O     O_R   0.389930 0.516430 0.611030 -0.618656
O7    O     O_R   0.610070 0.483570 0.388970 -0.613614
O8    O     O_R   0.610000 0.483610 0.592700 -0.616758
O9    O     O_R   0.390000 0.516390 0.407300 -0.623914
O10   O     O_3   0.626274 0.106146 0.444872 -0.597583
Zn1   Zn    Zn3+2 0.353060 0.521920 0.512240 0.951797
Zn2   Zn    Zn3+2 0.646940 0.478080 0.487760 0.957624

loop_
_geom_bond_atom_site_label_1
_geom_bond_atom_site_label_2
_ccdc_geom_bond_type
C24   H16   S    
C35   H38   S    
C26   H19   S    
C30   H35   S    
C22   H18   S    
C36   O6    A    
C29   C30   S    
C12   O3    A    
C34   C35   S    
C18   H6    S    
C14   C36   S    
C11   C14   A    
N2    N4    A    
O1    Zn1   S    
C7    C9    A    
C18   C19   S    
O7    Zn2   S    
C27   H25   S    
C29   H31   S    
C10   C20   S    
C7    C17   S    
C31   C33   D    
C25   H24   S    
O4    Zn2   S    
C34   H39   S    
C24   H15   S    
C8    C16   S    
N6    Zn1   S    
C13   C25   S    
C23   H37   S    
C35   N6    D    
O8    Zn2   S    
C22   H17   S    
C21   H9    S    
N1    N3    A    
C24   H14   S    
C32   O2    S    
C5    H23   S    
C29   O2    S    
C4    C6    A    
C33   O10   S    
H40   N6    S    
C5    C7    A    
C6    C8    A    
C25   C26   S    
C17   N4    A    
C2    O7    A    
C20   H13   S    
C27   H26   S    
O9    Zn1   S    
C21   H8    S    
O3    Zn2   S    
C17   N1    A    
C27   O10   S    
C2    C15   S    
C9    C11   A    
C3    C14   A    
C19   H3    S    
C28   H28   S    
C31   H36   S    
C34   N5    D    
C1    C23   S    
C13   C15   A    
C12   C31   S    
C22   C24   S    
C25   H22   S    
C30   H33   S    
C21   H10   S    
C4    H12   S    
C36   O8    A    
C1    O4    A    
C6    H34   S    
O6    Zn1   S    
C12   O5    A    
C3    C5    A    
C10   C13   A    
C26   H20   S    
C1    O1    A    
C11   C22   S    
C16   N3    A    
C32   C33   S    
C4    C15   A    
C28   H29   S    
H2    N5    S    
C18   H7    S    
C23   C32   D    
N5    Zn2   S    
O5    Zn1   S    
C16   N2    A    
C2    O9    A    
C26   H21   S    
C20   H11   S    
C19   H4    S    
C29   H30   S    
C28   H27   S    
C9    C18   S    
C20   C21   S    
C3    H1    S    
C8    C10   A    
C27   C28   S    
C30   H32   S    
C19   H5    S    
