data_mof_unit_62928.cif
_audit_creation_date              2012-12-10T18:13:28-0500
_audit_creation_method            fapswitch 2.2
_symmetry_space_group_name_H-M    P1
_symmetry_Int_Tables_number       1
_space_group_crystal_system       triclinic
_cell_length_a                    32.201281
_cell_length_b                    32.223587
_cell_length_c                    21.802899
_cell_angle_alpha                 90.490767
_cell_angle_beta                  89.674819
_cell_angle_gamma                 89.695965
_cell_volume                      22622.0584578

loop_
_atom_site_label
_atom_site_type_symbol
_atom_type_description
_atom_site_fract_x
_atom_site_fract_y
_atom_site_fract_z
_atom_type_partial_charge
C1    C     C_R   0.420428 0.000123 0.499051 0.918686
C2    C     C_R   0.000046 0.420442 0.501625 0.890201
C3    C     C_R   0.579584 0.999903 0.499464 0.921190
C4    C     C_R   0.999921 0.579569 0.501875 0.869535
C5    C     C_R   0.920450 0.500047 0.998712 0.942706
C6    C     C_R   0.500052 0.920437 0.001463 0.907346
C7    C     C_R   0.079572 0.499961 0.999321 0.944928
C8    C     C_R   0.499921 0.079582 0.001789 0.881572
C9    C     C_R   0.293461 0.000969 0.496848 -0.066826
C10   C     C_R   0.999516 0.293532 0.503836 -0.069368
C11   C     C_R   0.706557 0.999059 0.496849 -0.068574
C12   C     C_R   0.000159 0.706516 0.502903 -0.072791
C13   C     C_R   0.793558 0.500022 0.996744 -0.075430
C14   C     C_R   0.500344 0.793513 0.002157 -0.072510
C15   C     C_R   0.206490 0.499905 0.997891 -0.075902
C16   C     C_R   0.499686 0.206559 0.001394 -0.073884
C17   C     C_1   0.161395 0.000166 0.498229 0.000271
C18   C     C_1   0.999574 0.161431 0.501506 0.002282
C19   C     C_1   0.838595 0.999721 0.499671 0.000588
C20   C     C_1   0.000172 0.838580 0.499900 0.000380
C21   C     C_1   0.661451 0.500185 0.998701 0.001563
C22   C     C_1   0.500215 0.661422 0.001417 0.000799
C23   C     C_1   0.338568 0.499800 0.999943 0.001994
C24   C     C_1   0.499790 0.338619 0.999792 0.001270
C25   C     C_1   0.338354 0.000919 0.496495 0.063169
C26   C     C_1   0.999826 0.338407 0.504231 0.056839
C27   C     C_1   0.661670 0.999305 0.496483 0.074897
C28   C     C_1   0.999956 0.661651 0.503767 0.058873
C29   C     C_1   0.838422 0.499962 0.996222 0.067650
C30   C     C_1   0.500213 0.838382 0.002249 0.064242
C31   C     C_1   0.161633 0.500017 0.997204 0.069998
C32   C     C_1   0.499755 0.161683 0.001967 0.071535
C33   C     C_1   0.375832 0.000539 0.497090 -0.138510
C34   C     C_1   0.000007 0.375863 0.503547 -0.168167
C35   C     C_1   0.624190 0.999589 0.497264 -0.121938
C36   C     C_1   0.999863 0.624184 0.503550 -0.156626
C37   C     C_1   0.875877 0.500049 0.996819 -0.116713
C38   C     C_1   0.500109 0.875837 0.002110 -0.148929
C39   C     C_1   0.124172 0.499965 0.997641 -0.108677
C40   C     C_1   0.499822 0.124216 0.002246 -0.137485
C41   C     C_1   0.123911 0.000076 0.499096 -0.174092
C42   C     C_1   0.999743 0.123942 0.500867 -0.172540
C43   C     C_1   0.876079 0.999873 0.500194 -0.174251
C44   C     C_1   0.000108 0.876063 0.499510 -0.174089
C45   C     C_1   0.623951 0.500088 0.999298 -0.173640
C46   C     C_1   0.500100 0.623936 0.000884 -0.174075
C47   C     C_1   0.376061 0.499919 0.000251 -0.173438
C48   C     C_1   0.499888 0.376092 0.999516 -0.173233
C49   C     C_R   0.000035 0.920703 0.499794 0.814027
C50   C     C_R   0.079286 0.999999 0.499795 0.815206
C51   C     C_R   0.999932 0.079298 0.500242 0.815362
C52   C     C_R   0.920710 0.999997 0.500121 0.815274
C53   C     C_R   0.499988 0.420713 0.999798 0.814976
C54   C     C_R   0.579300 0.500002 0.999822 0.814918
C55   C     C_R   0.500002 0.579297 0.000248 0.814644
C56   C     C_R   0.420704 0.500007 0.000125 0.814889
C57   C     C_R   0.501690 0.999549 0.380695 0.974349
C58   C     C_R   0.000087 0.500072 0.381014 0.953684
C59   C     C_R   0.500003 0.000113 0.619112 0.921773
C60   C     C_R   0.999929 0.493368 0.618355 0.871157
C61   C     C_R   0.001706 0.499559 0.880709 0.972641
C62   C     C_R   0.500093 0.000122 0.881190 0.977746
C63   C     C_R   0.000024 0.500130 0.118939 0.949120
C64   C     C_R   0.499903 0.993382 0.118355 0.870414
C65   C     C_R   0.577773 0.976036 0.311259 0.486923
C66   C     C_R   0.043424 0.564200 0.309362 0.516284
C67   C     C_R   0.424885 0.008108 0.310228 0.470079
C68   C     C_R   0.956865 0.435919 0.308490 0.516245
C69   C     C_R   0.445698 0.944634 0.691653 0.534769
C70   C     C_R   0.924454 0.469057 0.694117 0.543742
C71   C     C_R   0.554743 0.055224 0.692022 0.535402
C72   C     C_R   0.074109 0.461196 0.686509 0.533886
C73   C     C_R   0.078021 0.476808 0.811290 0.474316
C74   C     C_R   0.526735 0.072712 0.811048 0.501217
C75   C     C_R   0.924955 0.508341 0.810090 0.471170
C76   C     C_R   0.473620 0.927467 0.809929 0.501198
C77   C     C_R   0.933503 0.460616 0.190855 0.525052
C78   C     C_R   0.424336 0.968968 0.194161 0.542948
C79   C     C_R   0.066749 0.539416 0.190773 0.524347
C80   C     C_R   0.573699 0.960460 0.186428 0.540506
C81   C     C_R   0.614337 0.971483 0.276635 -0.300620
C82   C     C_R   0.075924 0.584292 0.279053 -0.302373
C83   C     C_R   0.387416 0.997319 0.282650 -0.262038
C84   C     C_R   0.924466 0.415727 0.278163 -0.304092
C85   C     C_R   0.432198 0.909067 0.721992 -0.297883
C86   C     C_R   0.887125 0.476716 0.726701 -0.332109
C87   C     C_R   0.568445 0.090746 0.722979 -0.295391
C88   C     C_R   0.112573 0.463922 0.714792 -0.296034
C89   C     C_R   0.114643 0.472794 0.776699 -0.282071
C90   C     C_R   0.553059 0.100371 0.781057 -0.294633
C91   C     C_R   0.887487 0.497720 0.782341 -0.260880
C92   C     C_R   0.447493 0.899637 0.779668 -0.296889
C93   C     C_R   0.911535 0.429396 0.220952 -0.288071
C94   C     C_R   0.387040 0.976371 0.226966 -0.337924
C95   C     C_R   0.088878 0.570516 0.221324 -0.287431
C96   C     C_R   0.612181 0.962698 0.214711 -0.295190
C97   C     C_R   0.537645 0.976836 0.216748 -0.092624
C98   C     C_R   0.030526 0.522738 0.218409 -0.101836
C99   C     C_R   0.462302 0.983649 0.219397 -0.065888
C100  C     C_R   0.969595 0.477574 0.218375 -0.101094
C101  C     C_R   0.483857 0.965808 0.781975 -0.102026
C102  C     C_R   0.963394 0.497174 0.781466 -0.100649
C103  C     C_R   0.516527 0.034331 0.782471 -0.103760
C104  C     C_R   0.039221 0.484088 0.781349 -0.097365
C105  C     C_R   0.037844 0.477152 0.716798 -0.090315
C106  C     C_R   0.523834 0.029799 0.719189 -0.092656
C107  C     C_R   0.962423 0.483671 0.719415 -0.065453
C108  C     C_R   0.476394 0.970370 0.718935 -0.091103
C109  C     C_R   0.975726 0.471072 0.281285 -0.096026
C110  C     C_R   0.463313 0.997095 0.281476 -0.101789
C111  C     C_R   0.024584 0.529059 0.281618 -0.097409
C112  C     C_R   0.539083 0.983776 0.281293 -0.097222
C113  C     C_R   0.499820 0.983066 0.185178 -0.129169
C114  C     C_R   0.999964 0.500298 0.185818 -0.155403
C115  C     C_R   0.500246 0.000062 0.814553 -0.152817
C116  C     C_R   0.002088 0.496926 0.813108 -0.134036
C117  C     C_R   0.999944 0.483094 0.685202 -0.128537
C118  C     C_R   0.499990 0.000198 0.686276 -0.158177
C119  C     C_R   0.000203 0.500033 0.314073 -0.158475
C120  C     C_R   0.502030 0.996855 0.313071 -0.136745
C121  C     C_R   0.227777 0.014238 0.549211 -0.267239
C122  C     C_R   0.001690 0.227903 0.558102 -0.268089
C123  C     C_R   0.771663 0.978003 0.543605 -0.266871
C124  C     C_R   0.995089 0.772921 0.556424 -0.265766
C125  C     C_R   0.772438 0.020675 0.452772 -0.274109
C126  C     C_R   0.997040 0.228149 0.447330 -0.259091
C127  C     C_R   0.228112 0.986904 0.445451 -0.265402
C128  C     C_R   0.005366 0.771081 0.446341 -0.260683
C129  C     C_R   0.728252 0.479352 0.043670 -0.270479
C130  C     C_R   0.492545 0.728270 0.056291 -0.267481
C131  C     C_R   0.271392 0.520065 0.045956 -0.270950
C132  C     C_R   0.507967 0.272614 0.054720 -0.262781
C133  C     C_R   0.272576 0.479332 0.952116 -0.263632
C134  C     C_R   0.508290 0.727757 0.947588 -0.266843
C135  C     C_R   0.727858 0.521100 0.951850 -0.263717
C136  C     C_R   0.491347 0.271512 0.946592 -0.267911
C137  C     C_R   0.206177 0.000287 0.497615 0.012055
C138  C     C_R   0.999440 0.206226 0.502317 0.009134
C139  C     C_R   0.793816 0.999495 0.498705 0.016268
C140  C     C_R   0.000217 0.793802 0.500871 0.008075
C141  C     C_R   0.706253 0.500317 0.998135 0.011683
C142  C     C_R   0.500378 0.706212 0.001815 0.010942
C143  C     C_R   0.293776 0.499603 0.999443 0.011846
C144  C     C_R   0.499688 0.293853 0.000381 0.010273
C145  C     C_R   0.271736 0.986834 0.444910 0.445801
C146  C     C_R   0.996235 0.271715 0.447809 0.438269
C147  C     C_R   0.728750 0.019769 0.450611 0.450441
C148  C     C_R   0.006096 0.727505 0.447135 0.437849
C149  C     C_R   0.727923 0.978503 0.543982 0.442998
C150  C     C_R   0.002684 0.271597 0.559200 0.454155
C151  C     C_R   0.271542 0.013902 0.549817 0.449176
C152  C     C_R   0.994261 0.729320 0.557649 0.449298
C153  C     C_R   0.771475 0.521457 0.951226 0.446221
C154  C     C_R   0.507491 0.771360 0.947124 0.443980
C155  C     C_R   0.228967 0.478967 0.951384 0.450483
C156  C     C_R   0.492182 0.227873 0.946398 0.444944
C157  C     C_R   0.227673 0.519773 0.046119 0.448463
C158  C     C_R   0.493341 0.771938 0.057096 0.448878
C159  C     C_R   0.771957 0.479629 0.043911 0.449290
C160  C     C_R   0.507212 0.229018 0.055852 0.445671
Cu1   Cu    Cu3+1 0.500000 0.041050 0.500000 1.005415
Cu2   Cu    Cu3+1 0.958950 0.500000 0.500000 0.966863
Cu3   Cu    Cu3+1 0.500000 0.958950 0.500000 0.988096
Cu4   Cu    Cu3+1 0.041050 0.500000 0.500000 1.023076
Cu5   Cu    Cu3+1 0.000000 0.541050 0.000000 0.991112
Cu6   Cu    Cu3+1 0.458950 0.000000 0.000000 0.960492
Cu7   Cu    Cu3+1 0.000000 0.458950 0.000000 0.982172
Cu8   Cu    Cu3+1 0.541050 0.000000 0.000000 1.017331
Cu9   Cu    Cu3+1 0.000000 1.000000 0.438210 0.963059
Cu10  Cu    Cu3+1 0.000000 1.000000 0.561790 0.961669
Cu11  Cu    Cu3+1 0.500000 0.500000 0.938210 0.965436
Cu12  Cu    Cu3+1 0.500000 0.500000 0.061790 0.960099
H1    H     H_    0.358318 0.003863 0.306046 0.213416
H2    H     H_    0.909219 0.389559 0.299272 0.172478
H3    H     H_    0.643946 0.968471 0.299449 0.168009
H4    H     H_    0.091207 0.610445 0.300536 0.171614
H5    H     H_    0.591306 0.110711 0.701949 0.180515
H6    H     H_    0.140480 0.454556 0.690298 0.181097
H7    H     H_    0.409551 0.888889 0.700772 0.177217
H8    H     H_    0.857382 0.466181 0.710196 0.162038
H9    H     H_    0.858367 0.504402 0.805616 0.207256
H10   H     H_    0.438480 0.871012 0.801521 0.167751
H11   H     H_    0.144319 0.470270 0.799569 0.212407
H12   H     H_    0.562151 0.128996 0.803390 0.169513
H13   H     H_    0.115943 0.584148 0.199968 0.188778
H14   H     H_    0.639973 0.952974 0.190229 0.175002
H15   H     H_    0.884604 0.415568 0.199607 0.187899
H16   H     H_    0.357316 0.965696 0.210582 0.161671
H17   H     H_    0.210532 0.025865 0.588587 0.160291
H18   H     H_    0.002630 0.210916 0.600745 0.164099
H19   H     H_    0.788370 0.960844 0.578217 0.160402
H20   H     H_    0.991564 0.790391 0.598845 0.166865
H21   H     H_    0.789679 0.037928 0.418743 0.162351
H22   H     H_    0.995509 0.211530 0.403983 0.168739
H23   H     H_    0.211461 0.976791 0.404986 0.166251
H24   H     H_    0.009007 0.787078 0.403137 0.167752
H25   H     H_    0.711510 0.462484 0.078667 0.163738
H26   H     H_    0.485823 0.711649 0.098153 0.164633
H27   H     H_    0.287859 0.536603 0.081719 0.162993
H28   H     H_    0.514861 0.289795 0.096345 0.167373
H29   H     H_    0.289794 0.463962 0.915524 0.167410
H30   H     H_    0.514850 0.710798 0.905469 0.166694
H31   H     H_    0.710956 0.536915 0.916033 0.166920
H32   H     H_    0.484362 0.287886 0.904654 0.165656
O1    O     O_R   0.440150 0.034670 0.500000 -0.583710
O2    O     O_R   0.965330 0.440150 0.500000 -0.563819
O3    O     O_R   0.559850 0.965330 0.500000 -0.597725
O4    O     O_R   0.034670 0.559850 0.500000 -0.556107
O5    O     O_R   0.559850 0.034670 0.500000 -0.558361
O6    O     O_R   0.034670 0.440150 0.500000 -0.573732
O7    O     O_R   0.440150 0.965330 0.500000 -0.563934
O8    O     O_R   0.965330 0.559850 0.500000 -0.604145
O9    O     O_R   0.940150 0.534670 0.000000 -0.594803
O10   O     O_R   0.465330 0.940150 0.000000 -0.573614
O11   O     O_R   0.059850 0.465330 0.000000 -0.605759
O12   O     O_R   0.534670 0.059850 0.000000 -0.564514
O13   O     O_R   0.059850 0.534670 0.000000 -0.565044
O14   O     O_R   0.534670 0.940150 0.000000 -0.572113
O15   O     O_R   0.940150 0.465330 0.000000 -0.561714
O16   O     O_R   0.465330 0.059850 0.000000 -0.603578
O17   O     O_R   0.500000 0.034670 0.409850 -0.573459
O18   O     O_R   0.965330 0.500000 0.409850 -0.580272
O19   O     O_R   0.500000 0.965330 0.409850 -0.580459
O20   O     O_R   0.034670 0.500000 0.409850 -0.579590
O21   O     O_R   0.500000 0.034670 0.590150 -0.573238
O22   O     O_R   0.034670 0.500000 0.590150 -0.552571
O23   O     O_R   0.500000 0.965330 0.590150 -0.571346
O24   O     O_R   0.965330 0.500000 0.590150 -0.578649
O25   O     O_R   1.000000 0.534670 0.909850 -0.573266
O26   O     O_R   0.465330 1.000000 0.909850 -0.587383
O27   O     O_R   0.000000 0.465330 0.909850 -0.582625
O28   O     O_R   0.534670 1.000000 0.909850 -0.585002
O29   O     O_R   0.000000 0.534670 0.090150 -0.585820
O30   O     O_R   0.534670 0.000000 0.090150 -0.553795
O31   O     O_R   0.000000 0.465330 0.090150 -0.584560
O32   O     O_R   0.465330 0.000000 0.090150 -0.578973
O33   O     O_R   0.999970 0.940220 0.447740 -0.578345
O34   O     O_R   0.059780 0.999970 0.447740 -0.577503
O35   O     O_R   0.000030 0.059780 0.447740 -0.577264
O36   O     O_R   0.940220 0.000030 0.447740 -0.577966
O37   O     O_R   0.000030 0.940220 0.552260 -0.577936
O38   O     O_R   0.940220 0.999970 0.552260 -0.578113
O39   O     O_R   0.999970 0.059780 0.552260 -0.578103
O40   O     O_R   0.059780 0.000030 0.552260 -0.578588
O41   O     O_R   0.499970 0.440220 0.947740 -0.577750
O42   O     O_R   0.559780 0.499970 0.947740 -0.576790
O43   O     O_R   0.500030 0.559780 0.947740 -0.577287
O44   O     O_R   0.440220 0.500030 0.947740 -0.576300
O45   O     O_R   0.500030 0.440220 0.052260 -0.578155
O46   O     O_R   0.440220 0.499970 0.052260 -0.579139
O47   O     O_R   0.499970 0.559780 0.052260 -0.578922
O48   O     O_R   0.559780 0.500030 0.052260 -0.578815
O49   O     O_3   0.579775 0.966972 0.372873 -0.598608
C161  C     C_3   0.584600 0.923340 0.378344 -0.277950
H33   H     H_    0.614901 0.912380 0.359389 0.142231
H34   H     H_    0.558604 0.906443 0.355907 0.153187
H35   H     H_    0.584504 0.914562 0.427224 0.199543
O50   O     O_3   0.027257 0.582258 0.362022 -0.589883
C162  C     C_3   0.991161 0.604586 0.345367 -0.301933
H36   H     H_    0.966043 0.583332 0.330195 0.145918
H37   H     H_    0.997858 0.627791 0.309080 0.179403
H38   H     H_    0.979175 0.622000 0.385632 0.209493
O51   O     O_3   0.423194 0.028484 0.366059 -0.591929
C163  C     C_3   0.416455 0.071101 0.355437 -0.286291
H39   H     H_    0.385563 0.076733 0.334369 0.154499
H40   H     H_    0.441562 0.084372 0.326361 0.153668
H41   H     H_    0.416840 0.087785 0.400134 0.197025
O52   O     O_3   0.972569 0.418183 0.360988 -0.592228
C164  C     C_3   0.008988 0.395990 0.344370 -0.311146
H42   H     H_    0.034339 0.417386 0.330707 0.149310
H43   H     H_    0.003078 0.373022 0.306978 0.175806
H44   H     H_    0.020145 0.378309 0.384284 0.211589
O53   O     O_3   0.424930 0.956171 0.639252 -0.577811
C165  C     C_3   0.394975 0.986385 0.656172 -0.351799
H45   H     H_    0.409932 0.016813 0.665381 0.164852
H46   H     H_    0.375980 0.976813 0.696520 0.155218
H47   H     H_    0.373119 0.990450 0.617868 0.212107
O54   O     O_3   0.926671 0.441722 0.644004 -0.573905
C166  C     C_3   0.889712 0.440126 0.609533 -0.252315
H48   H     H_    0.877038 0.471668 0.600322 0.138700
H49   H     H_    0.866368 0.420223 0.632516 0.148541
H50   H     H_    0.896737 0.425366 0.564532 0.196544
O55   O     O_3   0.575759 0.043158 0.639438 -0.574959
C167  C     C_3   0.605582 0.013020 0.656078 -0.359051
H51   H     H_    0.590510 0.982659 0.664850 0.164906
H52   H     H_    0.624280 0.022760 0.696580 0.157847
H53   H     H_    0.627831 0.008705 0.617857 0.203601
O56   O     O_3   0.072409 0.439428 0.631648 -0.562017
C168  C     C_3   0.058427 0.398882 0.643634 -0.316889
H54   H     H_    0.025131 0.399008 0.657482 0.185502
H55   H     H_    0.077659 0.383340 0.679114 0.142630
H56   H     H_    0.061379 0.380179 0.600921 0.198246
O57   O     O_3   0.080316 0.467959 0.872918 -0.596397
C169  C     C_3   0.084458 0.424280 0.878695 -0.268553
H57   H     H_    0.112307 0.411822 0.854228 0.137792
H58   H     H_    0.056112 0.408186 0.862075 0.159598
H59   H     H_    0.088788 0.416136 0.927406 0.188565
O58   O     O_3   0.508641 0.085239 0.865681 -0.600072
C170  C     C_3   0.468064 0.099576 0.852853 -0.283737
H60   H     H_    0.447823 0.073781 0.837071 0.150806
H61   H     H_    0.468268 0.124820 0.818299 0.174050
H62   H     H_    0.453993 0.112595 0.895347 0.203837
O59   O     O_3   0.923243 0.528633 0.865997 -0.591631
C171  C     C_3   0.916123 0.571217 0.855599 -0.287943
H63   H     H_    0.885389 0.576646 0.833941 0.155763
H64   H     H_    0.941354 0.584824 0.827128 0.156546
H65   H     H_    0.915901 0.587737 0.900439 0.190053
O60   O     O_3   0.491298 0.915265 0.864417 -0.602955
C172  C     C_3   0.531619 0.899996 0.851197 -0.291976
H66   H     H_    0.552262 0.925097 0.834412 0.151791
H67   H     H_    0.530932 0.873973 0.817292 0.175464
H68   H     H_    0.545509 0.887722 0.893749 0.203083
O61   O     O_3   0.916780 0.477049 0.138120 -0.577226
C173  C     C_3   0.896893 0.514881 0.154166 -0.348086
H69   H     H_    0.919954 0.539152 0.166175 0.160180
H70   H     H_    0.874310 0.510997 0.192581 0.153464
H71   H     H_    0.879086 0.526285 0.114446 0.179428
O62   O     O_3   0.426546 0.941752 0.143913 -0.574070
C174  C     C_3   0.389566 0.940240 0.109480 -0.250124
H72   H     H_    0.376826 0.971798 0.100572 0.138020
H73   H     H_    0.366272 0.920203 0.132316 0.146989
H74   H     H_    0.396585 0.925678 0.064340 0.196813
O63   O     O_3   0.083655 0.522513 0.137787 -0.579162
C175  C     C_3   0.102765 0.484393 0.153213 -0.346478
H75   H     H_    0.079166 0.460427 0.163974 0.161092
H76   H     H_    0.124688 0.487880 0.192266 0.154178
H77   H     H_    0.121168 0.472782 0.113625 0.178531
O64   O     O_3   0.571718 0.938679 0.131592 -0.559304
C176  C     C_3   0.556809 0.898440 0.143523 -0.338002
H78   H     H_    0.523335 0.899263 0.156333 0.182772
H79   H     H_    0.575195 0.882642 0.179729 0.146032
H80   H     H_    0.560008 0.879500 0.101072 0.192678
O65   O     O_3   0.293304 0.029465 0.599586 -0.570581
C177  C     C_3   0.284506 0.005776 0.652190 -0.354495
H81   H     H_    0.288870 0.971926 0.643295 0.157541
H82   H     H_    0.252752 0.012299 0.670040 0.170118
H83   H     H_    0.306481 0.014869 0.688835 0.185407
O66   O     O_3   0.003618 0.293139 0.614376 -0.560623
C178  C     C_3   0.042991 0.287869 0.641307 -0.342500
H84   H     H_    0.044650 0.308063 0.682660 0.184940
H85   H     H_    0.068392 0.297380 0.609589 0.152718
H86   H     H_    0.047866 0.255387 0.656554 0.166302
O67   O     O_3   0.705631 0.956564 0.587415 -0.571212
C179  C     C_3   0.712725 0.973684 0.646191 -0.346492
H87   H     H_    0.689614 0.960613 0.678522 0.186861
H88   H     H_    0.708579 0.008047 0.646884 0.155893
H89   H     H_    0.744021 0.965068 0.663240 0.170824
O68   O     O_3   0.990252 0.708929 0.612877 -0.562288
C180  C     C_3   0.947999 0.709287 0.630155 -0.318633
H90   H     H_    0.928368 0.694159 0.594589 0.156571
H91   H     H_    0.936736 0.741405 0.639781 0.158175
H92   H     H_    0.944501 0.691298 0.673011 0.189433
O69   O     O_3   0.707232 0.041456 0.406220 -0.557276
C181  C     C_3   0.715465 0.023577 0.348092 -0.298650
H93   H     H_    0.711610 0.989226 0.348255 0.142718
H94   H     H_    0.747033 0.031847 0.331585 0.158476
H95   H     H_    0.692856 0.036319 0.314886 0.196172
O70   O     O_3   0.994732 0.292892 0.393006 -0.580194
C182  C     C_3   0.952810 0.296861 0.375619 -0.307836
H96   H     H_    0.934669 0.315057 0.410280 0.172716
H97   H     H_    0.938325 0.265987 0.367793 0.157678
H98   H     H_    0.951437 0.313984 0.331758 0.189366
O71   O     O_3   0.293122 0.975801 0.392036 -0.574190
C183  C     C_3   0.295693 0.932170 0.388752 -0.325725
H99   H     H_    0.264418 0.918052 0.383750 0.158961
H100  H     H_    0.311836 0.919246 0.429459 0.163163
H101  H     H_    0.314230 0.923379 0.347559 0.194279
O72   O     O_3   0.009975 0.705517 0.392692 -0.581333
C184  C     C_3   0.052562 0.701401 0.378499 -0.304493
H102  H     H_    0.069276 0.683868 0.414667 0.173673
H103  H     H_    0.067261 0.732189 0.371381 0.155218
H104  H     H_    0.055785 0.683522 0.335020 0.188947
O73   O     O_3   0.793852 0.457388 0.087239 -0.550014
C185  C     C_3   0.789226 0.477021 0.144944 -0.308232
H105  H     H_    0.757139 0.473481 0.163133 0.155607
H106  H     H_    0.797757 0.510451 0.143058 0.138478
H107  H     H_    0.810555 0.461814 0.177723 0.193418
O74   O     O_3   0.484519 0.793771 0.110556 -0.557906
C186  C     C_3   0.518775 0.790606 0.150276 -0.335235
H108  H     H_    0.513355 0.811560 0.190190 0.189545
H109  H     H_    0.548091 0.800612 0.127547 0.145669
H110  H     H_    0.522169 0.758545 0.168089 0.164301
O75   O     O_3   0.205355 0.541585 0.090402 -0.550545
C187  C     C_3   0.210128 0.521944 0.147505 -0.308111
H111  H     H_    0.242029 0.526153 0.165630 0.156095
H112  H     H_    0.202327 0.488338 0.144702 0.138964
H113  H     H_    0.188330 0.536639 0.180856 0.193307
O76   O     O_3   0.516450 0.208266 0.109345 -0.561001
C188  C     C_3   0.480846 0.208609 0.147268 -0.318589
H114  H     H_    0.453986 0.193730 0.123983 0.153510
H115  H     H_    0.472592 0.240696 0.162359 0.158973
H116  H     H_    0.487650 0.190376 0.188984 0.192082
O77   O     O_3   0.208390 0.460580 0.902867 -0.563462
C189  C     C_3   0.205746 0.417642 0.913876 -0.344020
H117  H     H_    0.187504 0.411364 0.956303 0.153303
H118  H     H_    0.237077 0.403034 0.916626 0.161779
H119  H     H_    0.189318 0.402819 0.874931 0.182162
O78   O     O_3   0.516300 0.792339 0.893599 -0.572895
C190  C     C_3   0.480462 0.792402 0.856769 -0.311977
H120  H     H_    0.454350 0.809084 0.880075 0.168725
H121  H     H_    0.470987 0.760358 0.843795 0.156219
H122  H     H_    0.487547 0.809039 0.813688 0.184091
O79   O     O_3   0.792472 0.540461 0.903762 -0.567260
C191  C     C_3   0.795494 0.583150 0.917500 -0.338473
H123  H     H_    0.812999 0.588525 0.960727 0.155009
H124  H     H_    0.764287 0.598084 0.920397 0.161075
H125  H     H_    0.812883 0.598378 0.879924 0.182703
O80   O     O_3   0.483048 0.205999 0.893369 -0.574120
C192  C     C_3   0.517877 0.207183 0.853955 -0.307622
H126  H     H_    0.545478 0.192538 0.875624 0.168099
H127  H     H_    0.525129 0.239419 0.839672 0.156202
H128  H     H_    0.510716 0.189253 0.811736 0.184021

loop_
_geom_bond_atom_site_label_1
_geom_bond_atom_site_label_2
_ccdc_geom_bond_type
C132  C144  A    
C4    C36   S    
Cu5   O29   S    
C5    C37   S    
Cu3   O3    S    
C57   O17   A    
O65   C177  S    
Cu7   O31   S    
C56   O44   A    
C109  C119  A    
C14   C158  A    
C167  H51   S    
C70   C107  A    
C98   C114  A    
C30   C38   T    
C77   C100  A    
C165  H45   S    
C161  H34   S    
C104  C116  A    
C171  H65   S    
Cu4   O6    S    
C175  H75   S    
C65   O49   S    
C46   C55   S    
Cu12  O46   S    
C184  H104  S    
C2    C34   S    
C147  O69   S    
C100  C109  A    
C106  C118  A    
Cu5   O25   S    
C23   C143  S    
Cu3   O23   S    
C150  O66   S    
C104  C105  A    
Cu1   Cu3   S    
C4    O4    A    
Cu2   Cu4   S    
C145  O71   S    
C133  H29   S    
C133  C143  A    
O63   C175  S    
O51   C163  S    
C79   O63   S    
C49   O33   A    
C112  C120  A    
C97   C112  A    
C135  H31   S    
C27   C35   T    
C173  H69   S    
C99   C110  A    
Cu11  O43   S    
C127  H23   S    
Cu8   O28   S    
Cu4   O20   S    
Cu2   O24   S    
O59   C171  S    
C11   C27   S    
C5    O9    A    
C60   C117  S    
C127  C145  A    
C62   O28   A    
Cu9   O34   S    
C164  H43   S    
C146  O70   S    
C188  H114  S    
C101  C115  A    
O58   C170  S    
C75   O59   S    
O75   C187  S    
C81   H3    S    
C131  C143  A    
C57   O19   A    
C190  H121  S    
C9    C151  A    
C167  H53   S    
C159  O73   S    
C162  H37   S    
C187  H112  S    
C67   O51   S    
C69   O53   S    
O77   C189  S    
C70   O54   S    
C3    O3    A    
C74   C90   A    
C92   H10   S    
C151  O65   S    
C177  H83   S    
C5    O15   A    
C78   C94   A    
C175  H77   S    
C58   C119  S    
C60   O22   A    
C84   C93   A    
C166  H49   S    
C164  H44   S    
C189  H117  S    
C21   C141  S    
C88   C89   A    
C19   C139  S    
C71   C106  A    
C78   C99   A    
C7    C39   S    
C17   C137  S    
C8    C40   S    
C192  H126  S    
C129  H25   S    
C76   O60   S    
C174  H73   S    
C67   C83   A    
C180  H90   S    
C80   C97   A    
C16   C160  A    
C12   C152  A    
Cu7   O11   S    
Cu11  O41   S    
C89   H11   S    
C94   H16   S    
C18   C42   T    
C121  H17   S    
O49   C161  S    
C43   C52   S    
C190  H120  S    
C123  C139  A    
Cu12  O45   S    
C132  H28   S    
C183  H99   S    
C131  C157  A    
C121  C137  A    
C185  H105  S    
O68   C180  S    
C163  H39   S    
C62   O26   A    
Cu9   O36   S    
Cu1   O17   S    
C188  H116  S    
C6    C38   S    
C2    O2    A    
C15   C155  A    
C75   C91   A    
C171  H64   S    
Cu5   Cu7   S    
C14   C154  A    
Cu6   Cu8   S    
C176  H79   S    
Cu7   O15   S    
C20   C44   T    
C85   C92   A    
C156  O80   S    
C21   C45   T    
C172  H67   S    
Cu6   O32   S    
C48   C53   S    
C23   C47   T    
C24   C48   T    
Cu10  O39   S    
C100  C114  A    
C191  H123  S    
Cu4   O4    S    
C177  H81   S    
C186  H110  S    
C161  H35   S    
C148  O72   S    
C121  C151  A    
C60   O24   A    
C185  H107  S    
C65   C112  A    
C64   O30   A    
O57   C169  S    
C67   C110  A    
C3    C35   S    
C166  H48   S    
C22   C142  S    
C168  H54   S    
C102  C107  A    
C72   C105  A    
C192  H128  S    
C10   C146  A    
C57   C120  S    
C152  O68   S    
Cu5   O9    S    
C76   C92   A    
C180  H92   S    
C74   O58   S    
C182  H96   S    
C69   C85   A    
C82   C95   A    
C154  O78   S    
C51   O39   A    
C179  H88   S    
O64   C176  S    
C66   O50   S    
C51   O35   A    
C88   H6    S    
C16   C32   S    
Cu12  O47   S    
C183  H101  S    
C71   O55   S    
Cu8   O12   S    
C167  H52   S    
O50   C162  S    
C128  C140  A    
C62   C115  S    
C101  C108  A    
C163  H41   S    
C182  H98   S    
C165  H46   S    
C130  C142  A    
C170  H62   S    
C52   O36   A    
C135  C141  A    
C178  H86   S    
C179  H87   S    
C175  H76   S    
C181  H93   S    
O55   C167  S    
C54   O48   A    
O54   C166  S    
C13   C159  A    
C25   C33   T    
C47   C56   S    
C184  H103  S    
C3    O5    A    
C1    O7    A    
C165  H47   S    
Cu10  O37   S    
C191  H125  S    
C136  H32   S    
Cu11  Cu12  S    
Cu1   O1    S    
O69   C181  S    
C9    C25   S    
C186  H108  S    
C12   C28   S    
C122  C150  A    
C13   C29   S    
C64   O32   A    
C86   C91   A    
C169  H57   S    
C129  C141  A    
C173  H70   S    
C168  H56   S    
Cu9   Cu10  S    
C18   C138  S    
O72   C184  S    
C6    O14   A    
C11   C149  A    
C56   O46   A    
C16   C156  A    
C61   O25   A    
O71   C183  S    
C149  O67   S    
C98   C111  A    
C66   C111  A    
C59   O23   A    
C173  H71   S    
C153  O79   S    
Cu9   O33   S    
C164  H42   S    
Cu2   O2    S    
C59   C118  S    
C105  C117  A    
C84   H2    S    
C19   C43   T    
C122  H18   S    
C58   O18   A    
C68   C84   A    
C96   H14   S    
C160  O76   S    
C122  C138  A    
C169  H59   S    
C125  C147  A    
C81   C96   A    
C58   O20   A    
C128  C148  A    
C83   C94   A    
Cu1   O5    S    
C80   O64   S    
C103  C115  A    
C170  H60   S    
C79   C95   A    
C161  H33   S    
C52   O38   A    
C134  C142  A    
C126  H22   S    
C65   C81   A    
C178  H84   S    
C6    O10   A    
C179  H89   S    
C61   C116  S    
C15   C31   S    
C13   C153  A    
C189  H118  S    
C71   C87   A    
C22   C46   T    
C90   H12   S    
Cu3   O19   S    
C91   H9    S    
C123  H19   S    
Cu6   O16   S    
C41   C50   S    
C124  H20   S    
C95   H13   S    
Cu8   O30   S    
C124  C140  A    
C189  H119  S    
C78   O62   S    
C99   C113  A    
Cu11  O44   S    
C130  C158  A    
C20   C140  S    
C73   C89   A    
C136  C144  A    
C10   C150  A    
C11   C147  A    
O61   C173  S    
C134  C154  A    
C24   C144  S    
C9    C145  A    
C61   O27   A    
C183  H100  S    
C68   C109  A    
C54   O42   A    
C59   O21   A    
C185  H106  S    
C68   O52   S    
C63   O31   A    
C174  H72   S    
O80   C192  S    
C28   C36   T    
C163  H40   S    
Cu9   O35   S    
C87   C90   A    
C29   C37   T    
C188  H115  S    
Cu4   O22   S    
C107  C117  A    
C7    O11   A    
O52   C164  S    
C44   C49   S    
C190  H122  S    
O67   C179  S    
C123  C149  A    
C176  H78   S    
C79   C98   A    
O79   C191  S    
C72   O56   S    
C162  H38   S    
C187  H111  S    
C126  C146  A    
C1    C33   S    
C172  H66   S    
C125  C139  A    
C132  C160  A    
C8    O12   A    
Cu10  O40   S    
C191  H124  S    
C15   C157  A    
C50   O40   A    
C136  C156  A    
C177  H82   S    
C186  H109  S    
C66   C82   A    
C87   H5    S    
C73   O57   S    
C166  H50   S    
C63   C114  S    
C26   C34   T    
C73   C104  A    
Cu2   O18   S    
Cu6   O26   S    
C75   C102  A    
C125  H21   S    
C192  H127  S    
C1    O1    A    
C42   C51   S    
C10   C26   S    
C124  C152  A    
C174  H74   S    
C180  H91   S    
C55   O43   A    
C14   C30   S    
C72   C88   A    
C69   C108  A    
C134  H30   S    
Cu1   O21   S    
C2    O6    A    
C17   C41   T    
Cu11  O42   S    
C108  C118  A    
C50   O34   A    
C110  C120  A    
Cu3   O7    S    
O76   C188  S    
C157  O75   S    
Cu12  O48   S    
C158  O74   S    
C131  H27   S    
O62   C174  S    
C8    O16   A    
C63   O29   A    
C85   H7    S    
C86   H8    S    
O53   C165  S    
C182  H97   S    
C53   O45   A    
C170  H61   S    
Cu6   O10   S    
C93   H15   S    
C111  C119  A    
C171  H63   S    
C178  H85   S    
C82   H4    S    
C45   C54   S    
C181  H94   S    
C83   H1    S    
C176  H80   S    
C55   O47   A    
C80   C96   A    
C97   C113  A    
C162  H36   S    
C70   C86   A    
C187  H113  S    
C129  C159  A    
O60   C172  S    
C77   C93   A    
C184  H102  S    
C172  H68   S    
C76   C101  A    
C126  C138  A    
C64   C113  S    
C133  C155  A    
Cu10  O38   S    
C128  H24   S    
Cu7   O27   S    
Cu5   O13   S    
C181  H95   S    
C77   O61   S    
C135  C153  A    
O56   C168  S    
C12   C148  A    
O73   C185  S    
C169  H58   S    
C49   O37   A    
C155  O77   S    
Cu2   O8    S    
O74   C186  S    
C4    O8    A    
C168  H55   S    
C31   C39   T    
C103  C106  A    
C32   C40   T    
O70   C182  S    
C53   O41   A    
C102  C116  A    
C7    O13   A    
O66   C178  S    
O78   C190  S    
C127  C137  A    
Cu8   O14   S    
C130  H26   S    
C74   C103  A    
