data_mof_unit_66898.cif
_audit_creation_date              2013-03-05T15:57:25-0500
_audit_creation_method            fapswitch 2.2
_symmetry_space_group_name_H-M    P1
_symmetry_Int_Tables_number       1
_space_group_crystal_system       triclinic
_cell_length_a                    17.104654
_cell_length_b                    18.251201
_cell_length_c                    8.379811
_cell_angle_alpha                 90.000013
_cell_angle_beta                  101.77766
_cell_angle_gamma                 89.933672
_cell_volume                      2560.93681185

loop_
_atom_site_label
_atom_site_type_symbol
_atom_site_description
_atom_site_fract_x
_atom_site_fract_y
_atom_site_fract_z
_atom_type_partial_charge
P1    P     P_3+3 0.834140 0.419320 0.003900 0.455519
P2    P     P_3+3 0.834140 0.580680 0.503900 0.452033
P3    P     P_3+3 0.334140 0.919320 0.003900 0.457296
P4    P     P_3+3 0.334140 0.080680 0.503900 0.449604
O1    O     O_2   0.841960 0.394640 0.833410 -0.374435
O2    O     O_2   0.841960 0.605360 0.333410 -0.361410
O3    O     O_2   0.341960 0.894640 0.833410 -0.371229
O4    O     O_2   0.341960 0.105360 0.333410 -0.367096
O5    O     O_3   0.907950 0.463080 0.102990 -0.393665
O6    O     O_3   0.907950 0.536920 0.602990 -0.399564
O7    O     O_3   0.407950 0.963080 0.102990 -0.398985
O8    O     O_3   0.407950 0.036920 0.602990 -0.403298
O9    O     O_3   0.972780 0.329600 0.629720 -0.381365
O10   O     O_3   0.972780 0.670400 0.129720 -0.375248
O11   O     O_3   0.472780 0.829600 0.629720 -0.382805
O12   O     O_3   0.472780 0.170400 0.129720 -0.344677
O13   O     O_2   0.838654 0.273248 0.690275 -0.376533
O14   O     O_2   0.837811 0.725959 0.188373 -0.378084
O15   O     O_2   0.337594 0.774412 0.686558 -0.361086
O16   O     O_2   0.343177 0.230985 0.198365 -0.386394
O17   O     O_3   0.751062 0.477474 0.970350 -0.576316
O18   O     O_3   0.750289 0.523824 0.467206 -0.581748
O19   O     O_3   0.250961 0.977358 0.970635 -0.579544
O20   O     O_3   0.251049 0.022739 0.467330 -0.577921
O21   O     O_3   0.942567 0.176981 0.639932 -0.525516
O22   O     O_3   0.941697 0.822450 0.142149 -0.523778
O23   O     O_3   0.441345 0.676805 0.642619 -0.512582
O24   O     O_3   0.452110 0.321200 0.139537 -0.498079
H1    H     H_    0.062614 0.201938 0.700708 0.135770
H2    H     H_    0.063622 0.805744 0.188487 0.126907
H3    H     H_    0.560627 0.699062 0.728596 0.153249
H4    H     H_    0.514132 0.299208 0.953562 0.062993
C1    C     C_3   0.043042 0.094155 0.594742 -1.012691
C2    C     C_3   0.031119 0.909881 0.070281 -1.037232
C3    C     C_3   0.544156 0.594824 0.605136 -1.060104
C4    C     C_3   0.552392 0.399770 0.071840 -0.930592
H5    H     H_    0.607628 0.591224 0.593888 0.246400
H6    H     H_    0.604832 0.369953 0.141567 0.259008
H7    H     H_    0.105330 0.090162 0.575856 0.246707
H8    H     H_    0.029172 0.940190 0.184273 0.274942
H9    H     H_    0.037964 0.065558 0.708964 0.273594
H10   H     H_    0.983978 0.932786 0.971952 0.266652
H11   H     H_    0.535290 0.563289 0.713220 0.280393
H12   H     H_    0.531802 0.441435 0.150660 0.261659
P5    P     P_3+3 0.165830 0.418670 0.685610 0.451516
P6    P     P_3+3 0.165830 0.581330 0.185610 0.455583
P7    P     P_3+3 0.665830 0.918670 0.685610 0.449905
P8    P     P_3+3 0.665830 0.081330 0.185610 0.454598
P9    P     P_3+3 0.099978 0.261607 0.110324 0.448255
P10   P     P_3+3 0.100162 0.738192 0.609444 0.448864
P11   P     P_3+3 0.598324 0.760390 0.108478 0.462374
P12   P     P_3+3 0.600086 0.238287 0.610289 0.464990
O25   O     O_2   0.157990 0.394030 0.856030 -0.362752
O26   O     O_2   0.157990 0.605970 0.356030 -0.372935
O27   O     O_2   0.657990 0.894030 0.856030 -0.370111
O28   O     O_2   0.657990 0.105970 0.356030 -0.366535
O29   O     O_3   0.027110 0.329490 0.059550 -0.379854
O30   O     O_3   0.027110 0.670510 0.559550 -0.380374
O31   O     O_3   0.527110 0.829490 0.059550 -0.345158
O32   O     O_3   0.527110 0.170510 0.559550 -0.381307
O33   O     O_2   0.160358 0.271472 0.997802 -0.378852
O34   O     O_2   0.161271 0.726900 0.499069 -0.373321
O35   O     O_2   0.656686 0.768766 0.991078 -0.384068
O36   O     O_2   0.661928 0.226238 0.501916 -0.361602
O37   O     O_3   0.249746 0.475502 0.722873 -0.581876
O38   O     O_3   0.249072 0.523328 0.219839 -0.577296
O39   O     O_3   0.749068 0.976491 0.721490 -0.579321
O40   O     O_3   0.749168 0.023443 0.220600 -0.582088
O41   O     O_3   0.055810 0.176842 0.052652 -0.525671
O42   O     O_3   0.057064 0.823079 0.547827 -0.525002
O43   O     O_3   0.547539 0.678588 0.048788 -0.498131
O44   O     O_3   0.558078 0.323474 0.547003 -0.513726
C5    C     C_3   0.979058 0.175748 0.088737 0.474157
C6    C     C_3   0.980053 0.825938 0.582240 0.477357
C7    C     C_3   0.513253 0.654400 0.178227 0.378265
C8    C     C_3   0.478567 0.325352 0.567462 0.514239
H13   H     H_    0.935789 0.201495 0.987029 0.136229
H14   H     H_    0.936657 0.800657 0.480119 0.138756
H15   H     H_    0.484977 0.700102 0.234043 0.063387
H16   H     H_    0.439065 0.300645 0.459335 0.154186
H17   H     H_    0.976189 0.204603 0.204270 0.024685
H18   H     H_    0.975890 0.797542 0.697690 0.022457
H19   H     H_    0.559961 0.627463 0.271366 0.069463
H20   H     H_    0.469711 0.295596 0.677902 -0.013334
C9    C     C_3   0.955106 0.096593 0.107281 -1.027126
C10   C     C_3   0.957851 0.905802 0.599249 -1.025900
C11   C     C_3   0.447851 0.599141 0.115902 -0.929314
C12   C     C_3   0.454478 0.404811 0.583226 -1.059133
H21   H     H_    0.394942 0.628559 0.046824 0.258435
H22   H     H_    0.390913 0.408012 0.593966 0.246185
H23   H     H_    0.892199 0.093751 0.122985 0.248590
H24   H     H_    0.895812 0.909984 0.619542 0.248127
H25   H     H_    0.961814 0.064741 0.998237 0.275315
H26   H     H_    0.963059 0.936540 0.487606 0.273713
H27   H     H_    0.468830 0.558020 0.036348 0.261681
H28   H     H_    0.463343 0.436494 0.475346 0.280457
C13   C     C_3   0.230513 0.456429 0.284594 0.383589
C14   C     C_3   0.230034 0.544942 0.773239 0.342421
C15   C     C_3   0.729949 0.955959 0.281711 0.366266
C16   C     C_3   0.729156 0.044619 0.778681 0.360824
H29   H     H_    0.235490 0.463083 0.417252 0.108147
H30   H     H_    0.229191 0.542815 0.904606 0.112992
H31   H     H_    0.731170 0.962076 0.413260 0.111798
H32   H     H_    0.728453 0.039634 0.909659 0.110468
H33   H     H_    0.170100 0.436028 0.227497 0.122181
H34   H     H_    0.172037 0.565813 0.703347 0.133927
H35   H     H_    0.670926 0.934787 0.217907 0.123909
H36   H     H_    0.670890 0.065883 0.710911 0.127873
C17   C     C_3   0.290829 0.399549 0.254574 -0.897231
C18   C     C_3   0.294266 0.597906 0.746146 -0.835808
C19   C     C_3   0.792746 0.900307 0.258213 -0.860677
C20   C     C_3   0.792931 0.099378 0.756952 -0.860464
H37   H     H_    0.351356 0.423793 0.273189 0.269655
H38   H     H_    0.354280 0.574318 0.793763 0.270037
H39   H     H_    0.852961 0.925428 0.286282 0.271573
H40   H     H_    0.852970 0.074857 0.796484 0.268186
H41   H     H_    0.291878 0.352513 0.338587 0.221739
H42   H     H_    0.288256 0.650723 0.807650 0.229463
H43   H     H_    0.791835 0.852356 0.339045 0.218685
H44   H     H_    0.788885 0.149618 0.829343 0.219363
H45   H     H_    0.274610 0.379731 0.127347 0.273597
H46   H     H_    0.288528 0.607534 0.613976 0.266240
H47   H     H_    0.780839 0.881642 0.129655 0.271987
H48   H     H_    0.785136 0.114166 0.626366 0.273225
Ba1   Ba    Ba6+2 0.000000 0.447380 0.844850 1.536212
Ba2   Ba    Ba6+2 0.000000 0.552620 0.344850 1.537250
Ba3   Ba    Ba6+2 0.500000 0.947380 0.844850 1.549620
Ba4   Ba    Ba6+2 0.500000 0.052620 0.344850 1.549461
C21   C     C_3   0.769740 0.544310 0.905734 0.383255
C22   C     C_3   0.770175 0.454312 0.417808 0.341759
C23   C     C_3   0.269679 0.044277 0.906365 0.367266
C24   C     C_3   0.272530 0.953630 0.418360 0.361624
H49   H     H_    0.765791 0.537442 0.773488 0.107572
H50   H     H_    0.772284 0.456375 0.287010 0.112623
H51   H     H_    0.266730 0.037317 0.774395 0.108395
H52   H     H_    0.281721 0.957336 0.292000 0.108509
H53   H     H_    0.829768 0.564978 0.964547 0.122948
H54   H     H_    0.827622 0.433289 0.489938 0.135340
H55   H     H_    0.329342 0.065250 0.966847 0.122393
H56   H     H_    0.326865 0.931453 0.499960 0.134604
C25   C     C_3   0.708643 0.600901 0.933163 -0.893848
C26   C     C_3   0.705137 0.401733 0.442289 -0.832710
C27   C     C_3   0.207880 0.100624 0.931653 -0.859375
C28   C     C_3   0.204436 0.901147 0.424113 -0.860601
H57   H     H_    0.648278 0.576310 0.912836 0.268913
H58   H     H_    0.645508 0.425632 0.392490 0.269175
H59   H     H_    0.147739 0.075466 0.911234 0.272123
H60   H     H_    0.147197 0.925868 0.362454 0.262350
H61   H     H_    0.707898 0.647837 0.849040 0.221350
H62   H     H_    0.711426 0.348840 0.381337 0.229710
H63   H     H_    0.206755 0.147181 0.846280 0.218034
H64   H     H_    0.213100 0.848959 0.362727 0.221698
H65   H     H_    0.723750 0.620881 0.060306 0.274157
H66   H     H_    0.709565 0.392236 0.574168 0.265818
H67   H     H_    0.222569 0.121392 0.058431 0.272755
H68   H     H_    0.201425 0.890020 0.552751 0.274157
O45   O     O_3   0.092100 0.536880 0.086720 -0.394029
O46   O     O_3   0.092100 0.463120 0.586720 -0.398999
O47   O     O_3   0.592100 0.036880 0.086720 -0.400502
O48   O     O_3   0.592100 0.963120 0.586720 -0.399458
P13   P     P_3+3 0.899219 0.737661 0.078928 0.449511
P14   P     P_3+3 0.899614 0.262051 0.579502 0.445609
P15   P     P_3+3 0.401386 0.239296 0.080621 0.461861
P16   P     P_3+3 0.399630 0.762024 0.578758 0.463637
C29   C     C_3   0.019064 0.174003 0.603090 0.470742
C30   C     C_3   0.015189 0.829019 0.092576 0.475237
C31   C     C_3   0.520657 0.674435 0.620973 0.515229
C32   C     C_3   0.486385 0.345096 0.009835 0.377938
H69   H     H_    0.021224 0.199614 0.483691 0.023302
H70   H     H_    0.016125 0.801071 0.974874 0.021178
H71   H     H_    0.529324 0.703980 0.510113 -0.013817
H72   H     H_    0.439801 0.372397 0.917115 0.070101
H73   H     H_    0.506138 0.570139 0.495400 0.260794
H74   H     H_    0.570913 0.427701 0.967879 0.226643
H75   H     H_    0.002330 0.066737 0.492433 0.262344
H76   H     H_    0.090456 0.917257 0.037712 0.249914
C33   C     C_R   0.136323 0.677987 0.922628 -0.523679
C34   C     C_R   0.135943 0.321839 0.423641 -0.522753
C35   C     C_R   0.635757 0.178334 0.923712 -0.499473
C36   C     C_R   0.636345 0.822137 0.421701 -0.498917
C37   C     C_R   0.863319 0.322687 0.266738 -0.528250
C38   C     C_R   0.864224 0.677958 0.765081 -0.519670
C39   C     C_R   0.364270 0.822047 0.265349 -0.502676
C40   C     C_R   0.363551 0.177470 0.767312 -0.498150
C41   C     C_R   0.792330 0.211276 0.299535 -0.195622
C42   C     C_R   0.792302 0.788805 0.798579 -0.197158
C43   C     C_R   0.292948 0.710886 0.298227 -0.181247
C44   C     C_R   0.291750 0.288411 0.800577 -0.211190
C45   C     C_R   0.848654 0.264460 0.363552 0.212726
C46   C     C_R   0.848999 0.735821 0.862369 0.213115
C47   C     C_R   0.349592 0.763832 0.362129 0.194476
C48   C     C_R   0.348400 0.235444 0.864838 0.169727
C49   C     C_R   0.817095 0.333128 0.110592 0.281435
C50   C     C_R   0.817657 0.667263 0.609362 0.276604
C51   C     C_R   0.317627 0.832798 0.109650 0.302776
C52   C     C_R   0.317187 0.166879 0.611057 0.275238
C53   C     C_R   0.755687 0.281608 0.047303 -0.075777
C54   C     C_R   0.756288 0.718821 0.545690 -0.063131
C55   C     C_R   0.256216 0.781308 0.046116 -0.069762
C56   C     C_R   0.255819 0.218434 0.547578 -0.082253
C57   C     C_R   0.244270 0.718888 0.141560 -0.075615
C58   C     C_R   0.243575 0.280678 0.643263 -0.062304
C59   C     C_R   0.743770 0.219186 0.142709 -0.072740
C60   C     C_R   0.744085 0.781105 0.641300 -0.080225
C61   C     C_R   0.182726 0.667478 0.078565 0.282192
C62   C     C_R   0.182309 0.332295 0.579592 0.275648
C63   C     C_R   0.682393 0.167674 0.079359 0.296268
C64   C     C_R   0.682646 0.832597 0.578013 0.275460
C65   C     C_R   0.151048 0.736120 0.825544 0.209398
C66   C     C_R   0.151173 0.264020 0.326244 0.219096
C67   C     C_R   0.650485 0.236455 0.826707 0.199144
C68   C     C_R   0.651320 0.764053 0.324275 0.169865
C69   C     C_R   0.207646 0.789194 0.889165 -0.196965
C70   C     C_R   0.207691 0.210853 0.390165 -0.195865
C71   C     C_R   0.707113 0.289469 0.890504 -0.180977
C72   C     C_R   0.707943 0.711007 0.388545 -0.212300
H77   H     H_    0.286606 0.664807 0.374186 0.178119
H78   H     H_    0.285654 0.334675 0.876407 0.176163
H79   H     H_    0.786287 0.165034 0.375488 0.181408
H80   H     H_    0.785791 0.834721 0.875132 0.182526
H81   H     H_    0.713446 0.335552 0.814573 0.177418
H82   H     H_    0.713981 0.664667 0.312862 0.176448
H83   H     H_    0.214004 0.835198 0.812579 0.181309
H84   H     H_    0.214050 0.164814 0.313812 0.183703
H85   H     H_    0.091267 0.638081 0.872270 0.173946
H86   H     H_    0.090463 0.361508 0.373583 0.173773
H87   H     H_    0.590655 0.138470 0.873347 0.166509
H88   H     H_    0.590806 0.861772 0.371788 0.169489
H89   H     H_    0.908275 0.362631 0.317389 0.174923
H90   H     H_    0.909676 0.638298 0.815338 0.173294
H91   H     H_    0.409154 0.862030 0.316175 0.167015
H92   H     H_    0.409278 0.138002 0.817177 0.169620
H93   H     H_    0.429840 0.570555 0.219647 0.226198
H94   H     H_    0.492148 0.429652 0.693200 0.260671
H95   H     H_    0.994810 0.071895 0.215030 0.262913
H96   H     H_    0.999590 0.930829 0.703769 0.266630

loop_
_geom_bond_atom_site_label_1
_geom_bond_atom_site_label_2
_geom_bond_distance
_ccdc_geom_bond_type
C24   C28   1.517212 S    
P6    C61   1.862035 S    
C15   H31   1.103947 S    
C12   H28   1.109395 S    
C4    H74   1.110050 S    
P5    C62   1.858789 S    
C14   C18   1.515688 S    
C39   H91   1.082193 S    
C26   H58   1.108999 S    
P3    O19   1.748873 S    
C2    H10   1.109896 S    
C4    C32   1.517742 S    
C28   H60   1.105237 S    
O24   P15   1.749060 S    
C7    H19   1.110715 S    
C3    H11   1.109441 S    
C18   H42   1.107640 S    
C9    H23   1.111631 S    
C25   H61   1.107811 S    
O9    P14   1.746930 S    
O8    Ba3   2.819340 S    
C22   H50   1.104632 S    
P1    O17   1.748793 S    
O26   Ba2   2.856987 S    
C1    H7    1.110910 S    
P7    C64   1.862346 S    
P1    O1    1.529631 D    
O38   C13   1.399012 S    
P7    O27   1.529043 D    
C3    H5    1.110629 S    
P1    Ba1   3.410870 S    
O37   C14   1.398256 S    
C20   H48   1.108352 S    
P3    O3    1.529631 D    
O29   Ba1   2.781833 S    
P4    O20   1.748654 S    
O14   P13   1.543960 D    
P3    Ba3   3.410870 S    
C20   H40   1.106672 S    
C21   C25   1.518971 S    
C67   C71   1.396773 A    
O2    Ba2   2.851546 S    
O31   Ba3   2.781833 S    
C35   C67   1.390582 A    
C16   H32   1.103841 S    
P9    O29   1.746259 S    
C34   C66   1.390605 A    
C19   H43   1.108744 S    
C14   H34   1.110931 S    
C33   C65   1.391144 A    
C36   C68   1.393092 A    
C10   H26   1.109973 S    
C9    H25   1.108481 S    
P11   C68   1.851283 S    
O4    Ba4   2.851546 S    
C60   C64   1.427964 A    
P10   C65   1.842493 S    
C37   H89   1.082121 S    
C28   H68   1.108421 S    
C11   H27   1.110623 S    
P9    C66   1.842777 S    
P2    O18   1.746943 S    
P12   C67   1.842530 S    
C39   C51   1.397149 A    
C40   C48   1.392988 A    
O41   C5    1.406217 S    
P15   C48   1.851251 S    
C38   C50   1.396910 A    
P4    O8    1.578281 S    
O6    Ba1   2.819340 S    
C37   C49   1.396726 A    
C18   H38   1.109072 S    
C43   C47   1.396282 A    
C53   C71   1.411174 A    
P4    O4    1.529723 D    
O9    Ba1   2.783388 S    
C33   H85   1.082143 S    
C27   H63   1.108405 S    
C54   C72   1.412080 A    
C55   C69   1.412223 A    
P9    O41   1.746824 S    
O18   C22   1.397520 S    
C8    H20   1.109873 S    
P2    O2    1.529723 D    
P11   O43   1.749108 S    
C15   H35   1.111278 S    
C6    H18   1.112579 S    
C1    H75   1.107896 S    
C71   H81   1.073474 S    
C5    H17   1.111925 S    
O30   Ba2   2.782662 S    
C38   H90   1.082010 S    
C51   C55   1.429663 A    
P7    O48   1.583134 S    
Ba2   O46   2.819319 S    
O12   P15   1.741549 S    
C29   H69   1.111795 S    
P8    O47   1.584629 S    
C35   C63   1.396517 A    
C16   H36   1.111046 S    
P9    O33   1.544715 D    
P4    Ba4   3.409884 S    
C19   H47   1.108454 S    
P10   O30   1.747106 S    
C68   C72   1.396525 A    
O11   P16   1.747708 S    
O32   Ba4   2.782662 S    
P11   O35   1.545644 D    
H2    C30   1.113594 S    
P12   O36   1.543886 D    
C40   H92   1.081908 S    
P5    Ba1   3.412100 S    
C52   C56   1.428247 A    
C37   C45   1.390744 A    
C23   H55   1.111131 S    
Ba1   O46   2.938580 S    
C31   H71   1.110023 S    
O21   C29   1.405368 S    
C40   C52   1.399009 A    
O16   P15   1.545724 D    
C42   H80   1.074787 S    
C36   H88   1.081952 S    
P3    C51   1.860623 S    
O19   C23   1.398411 S    
C39   C47   1.390459 A    
P2    C50   1.859660 S    
C3    H73   1.108158 S    
C42   C46   1.395548 A    
C27   H59   1.107946 S    
C36   C64   1.398660 A    
C2    H76   1.111810 S    
O42   C6    1.405692 S    
P12   O44   1.748353 S    
C14   H30   1.104554 S    
O23   P16   1.748193 S    
P8    Ba4   3.413109 S    
C13   C17   1.519492 S    
O20   C24   1.398153 S    
C3    C31   1.520140 S    
O21   P14   1.747100 S    
C24   H52   1.103842 S    
C15   C19   1.519211 S    
P6    O26   1.528952 D    
P6    O45   1.584629 S    
P1    O5    1.579759 S    
O44   C8    1.405434 S    
P7    O39   1.749252 S    
C26   H66   1.105841 S    
P14   C45   1.841853 S    
P7    Ba3   3.412100 S    
O12   Ba4   2.782556 S    
O17   C21   1.398132 S    
O25   Ba1   2.854855 S    
O39   C16   1.399066 S    
C21   H49   1.103560 S    
P2    Ba2   3.409884 S    
C19   H39   1.108399 S    
C7    C11   1.518377 S    
H3    C31   1.109854 S    
C16   C20   1.518417 S    
C44   H78   1.074459 S    
H4    C32   1.113328 S    
P5    O37   1.747615 S    
Ba1   Ba2   4.609188 S    
P10   O34   1.544226 D    
C2    H8    1.110182 S    
C4    H12   1.110354 S    
P11   O31   1.742109 S    
Ba3   Ba4   4.609188 S    
P2    O6    1.578281 S    
Ba3   O47   2.821431 S    
C41   C59   1.411351 A    
C42   C60   1.411919 A    
C23   C27   1.519485 S    
Ba4   O48   2.819319 S    
C20   H44   1.109300 S    
C43   H77   1.073597 S    
Ba2   O45   2.938224 S    
C58   C62   1.428219 A    
P4    C52   1.862994 S    
C8    C12   1.520258 S    
O22   C30   1.407349 S    
C57   C61   1.429220 A    
C41   H79   1.074779 S    
P16   C47   1.842459 S    
C9    H95   1.108435 S    
Ba1   O45   2.821431 S    
C56   C70   1.412018 A    
P6    Ba2   3.413109 S    
C1    C29   1.518945 S    
P5    O46   1.583134 S    
C8    H16   1.109795 S    
C12   H22   1.110610 S    
P13   C46   1.842800 S    
P8    O40   1.749292 S    
O10   Ba2   2.782556 S    
C6    C10   1.519862 S    
O27   Ba3   2.854855 S    
C27   H67   1.107554 S    
C17   H41   1.108027 S    
P6    O38   1.749284 S    
C41   C45   1.396167 A    
C17   H37   1.107740 S    
C24   H56   1.111242 S    
C12   H94   1.108273 S    
C43   C57   1.411244 A    
O22   P13   1.746085 S    
C23   H51   1.104040 S    
O5    Ba2   2.821452 S    
C11   H93   1.110235 S    
C65   C69   1.396851 A    
C44   C48   1.395803 A    
C1    H9    1.109122 S    
C26   H62   1.107514 S    
O10   P13   1.746168 S    
C4    H6    1.107711 S    
O7    Ba4   2.821452 S    
P10   O42   1.747077 S    
O40   C15   1.398908 S    
C13   H33   1.111039 S    
C5    C9    1.518697 S    
C28   H64   1.106615 S    
C10   H24   1.110969 S    
C18   H46   1.105792 S    
C54   C60   1.430180 A    
C69   H83   1.075813 S    
C25   H65   1.105777 S    
C50   C54   1.428666 A    
C59   C63   1.429199 A    
C49   C53   1.429525 A    
C34   C62   1.396592 A    
P8    C63   1.860219 S    
C44   C58   1.411937 A    
C25   H57   1.107176 S    
C30   H70   1.113415 S    
C33   C61   1.396612 A    
C53   C59   1.430304 A    
H1    C29   1.111807 S    
O15   P16   1.543965 D    
O28   Ba4   2.856987 S    
C35   H87   1.082125 S    
C22   C26   1.515299 S    
C10   H96   1.109491 S    
C34   H86   1.082020 S    
C72   H82   1.074586 S    
P3    O7    1.579759 S    
O13   P14   1.544446 D    
O24   C32   1.405671 S    
P5    O25   1.529043 D    
C32   H72   1.110504 S    
C21   H53   1.110736 S    
P8    O28   1.528952 D    
P12   O32   1.748135 S    
C6    H14   1.112503 S    
O1    Ba1   2.853658 S    
C55   C57   1.430582 A    
C11   H21   1.107880 S    
C5    H13   1.112053 S    
P1    C49   1.861854 S    
O11   Ba3   2.783388 S    
C17   H45   1.106319 S    
C38   C46   1.390597 A    
O3    Ba3   2.853658 S    
C66   C70   1.396243 A    
C2    C30   1.519524 S    
C7    H15   1.113482 S    
Ba3   O48   2.938580 S    
C56   C58   1.430158 A    
C13   H29   1.104151 S    
C70   H84   1.074917 S    
Ba4   O47   2.938224 S    
O23   C31   1.405512 S    
O43   C7    1.405558 S    
C22   H54   1.111195 S    
