data_mof_unit_60950.cif
_audit_creation_date              2012-12-10T18:08:19-0500
_audit_creation_method            fapswitch 2.2
_symmetry_space_group_name_H-M    P1
_symmetry_Int_Tables_number       1
_space_group_crystal_system       triclinic
_cell_length_a                    18.723057
_cell_length_b                    18.694342
_cell_length_c                    18.660979
_cell_angle_alpha                 109.314532
_cell_angle_beta                  109.39375
_cell_angle_gamma                 109.483422
_cell_volume                      5041.7665682

loop_
_atom_site_label
_atom_site_type_symbol
_atom_type_description
_atom_site_fract_x
_atom_site_fract_y
_atom_site_fract_z
_atom_type_partial_charge
C1    C     C_R   0.379571 0.499586 0.380021 0.853831
C2    C     C_R   0.312036 0.497966 0.314333 -0.066551
C3    C     C_R   0.322319 0.242916 0.501304 -0.182719
C4    C     C_R   0.619503 0.619892 0.499273 0.877877
C5    C     C_R   0.258920 0.179553 0.502442 -0.187428
C6    C     C_R   0.185992 0.186308 0.499401 -0.010740
C7    C     C_R   0.176370 0.256386 0.496293 -0.179176
C8    C     C_R   0.241096 0.321140 0.497827 -0.189958
C9    C     C_R   0.313457 0.313763 0.499821 -0.007456
C10   C     C_R   0.758096 0.500587 0.678081 -0.186926
C11   C     C_R   0.822805 0.502109 0.742815 -0.186103
C12   C     C_R   0.831225 0.804193 0.573500 0.147055
C13   C     C_R   0.813985 0.500644 0.813856 -0.010068
C14   C     C_R   0.741873 0.499192 0.821577 -0.184316
C15   C     C_R   0.678528 0.500396 0.758229 -0.185846
C16   C     C_R   0.620338 0.500115 0.620247 0.861380
C17   C     C_R   0.686590 0.500325 0.686435 -0.009926
C18   C     C_R   0.999509 0.879456 0.379829 0.891297
C19   C     C_R   0.879956 0.879916 0.500351 0.877644
C20   C     C_R   0.999999 0.120221 0.620295 0.856448
C21   C     C_R   0.120108 0.120297 0.499844 0.856089
C22   C     C_R   0.000032 0.620287 0.120451 0.880576
C23   C     C_3   0.860712 0.872173 0.663176 -0.489797
C24   C     C_R   0.120260 0.499738 0.120311 0.880628
C25   C     C_R   0.000069 0.379880 0.879848 0.860703
C26   C     C_R   0.879870 0.500241 0.879854 0.860391
C27   C     C_R   0.008030 0.825158 0.247490 -0.242445
C28   C     C_R   0.379697 0.379827 0.499960 0.846962
C29   C     C_R   0.010049 0.762540 0.184462 -0.183209
C30   C     C_R   0.000026 0.686137 0.186942 -0.044861
C31   C     C_R   0.988993 0.672124 0.252486 -0.254060
C32   C     C_R   0.988043 0.735228 0.316804 0.216515
C33   C     C_R   0.997952 0.811909 0.313691 -0.041998
C34   C     C_3   0.789250 0.803398 0.663481 -0.478431
C35   C     C_R   0.920527 0.178287 0.678587 -0.189336
C36   C     C_R   0.920568 0.241647 0.743171 -0.184660
C37   C     C_R   0.000104 0.313812 0.813620 -0.010301
C38   C     C_R   0.079619 0.322558 0.820787 -0.185144
C39   C     C_R   0.079604 0.257839 0.757580 -0.184842
C40   C     C_R   0.766778 0.742004 0.573951 0.098280
C41   C     C_R   0.000049 0.186378 0.686455 -0.008212
C42   C     C_R   0.685880 0.684109 0.498448 -0.080373
C43   C     C_R   0.673245 0.681519 0.419112 -0.215763
C44   C     C_R   0.737557 0.745901 0.419065 -0.224828
C45   C     C_R   0.229308 0.422238 0.258131 0.208927
C46   C     C_R   0.815064 0.810426 0.497954 -0.101187
C47   C     C_3   0.887101 0.688605 0.366590 -0.770060
C48   C     C_3   0.196669 0.271766 0.199364 -0.754357
C49   C     C_R   0.166211 0.423731 0.194349 -0.196105
C50   C     C_R   0.186179 0.498852 0.186397 -0.077601
C51   C     C_R   0.268845 0.573338 0.242327 -0.182128
C52   C     C_R   0.331600 0.573064 0.306889 -0.224433
H1    H     H_    0.395726 0.630896 0.350425 0.145123
H2    H     H_    0.141136 0.264006 0.763213 0.143799
H3    H     H_    0.814857 0.783552 0.711870 0.203048
H4    H     H_    0.736594 0.818344 0.663832 0.217754
H5    H     H_    0.101700 0.366445 0.151273 0.163403
H6    H     H_    0.284430 0.631876 0.236847 0.160428
H7    H     H_    0.612373 0.632845 0.358684 0.152372
H8    H     H_    0.234313 0.375990 0.496096 0.141754
H9    H     H_    0.764258 0.500980 0.622463 0.143225
H10   H     H_    0.878683 0.502866 0.736913 0.144346
H11   H     H_    0.622774 0.499893 0.764259 0.144099
H12   H     H_    0.378714 0.237637 0.503038 0.143439
H13   H     H_    0.726063 0.746607 0.358510 0.163850
H14   H     H_    0.018126 0.772990 0.133242 0.154496
H15   H     H_    0.002048 0.684657 0.400524 0.222667
H16   H     H_    0.843981 0.621832 0.308574 0.234234
H17   H     H_    0.862696 0.732464 0.354782 0.233209
H18   H     H_    0.884546 0.685844 0.424274 0.244087
H19   H     H_    0.859018 0.235265 0.737678 0.144444
H20   H     H_    0.927572 0.891950 0.711325 0.209182
H21   H     H_    0.849744 0.927187 0.663498 0.197826
H22   H     H_    0.243314 0.357388 0.329640 0.217593
H23   H     H_    0.265933 0.124869 0.504389 0.144839
H24   H     H_    0.176372 0.215421 0.210728 0.237885
H25   H     H_    0.259370 0.286877 0.199457 0.247679
H26   H     H_    0.145410 0.252874 0.134393 0.236732
H27   H     H_    0.119847 0.261544 0.494254 0.145435
H28   H     H_    0.735486 0.498443 0.876995 0.144655
H29   H     H_    0.015786 0.884528 0.245646 0.153642
H30   H     H_    0.981219 0.612440 0.253611 0.148242
H31   H     H_    0.858975 0.122533 0.623486 0.142236
H32   H     H_    0.141177 0.378425 0.875750 0.144309
N1    N     N_2   0.976006 0.721042 0.383358 -0.300828
N2    N     N_2   0.207331 0.346567 0.267864 -0.311593
O1    O     O_R   0.408340 0.551690 0.460080 -0.621782
O2    O     O_R   0.051700 0.643420 0.091650 -0.625049
O3    O     O_R   0.039910 0.448390 0.091720 -0.627621
O4    O     O_R   0.408400 0.448280 0.356690 -0.618332
O5    O     O_R   0.143340 0.551810 0.091690 -0.625932
O6    O     O_R   0.948300 0.356760 0.908530 -0.622619
O7    O     O_R   0.051730 0.460180 0.908500 -0.623120
O8    O     O_R   0.856660 0.448370 0.908490 -0.622895
O9    O     O_R   0.960090 0.551790 0.908450 -0.623169
O10   O     O_R   0.591580 0.643330 0.551700 -0.623100
O11   O     O_R   0.591640 0.539920 0.448310 -0.622435
O12   O     O_R   0.948260 0.908480 0.356680 -0.630341
O13   O     O_R   0.591600 0.551720 0.643310 -0.621580
O14   O     O_R   0.591660 0.448310 0.539920 -0.622540
O15   O     O_R   0.408360 0.460080 0.551690 -0.622382
O16   O     O_R   0.408420 0.356670 0.448300 -0.621748
O17   O     O_R   0.051710 0.908420 0.460050 -0.601759
O18   O     O_R   0.960120 0.908380 0.551680 -0.610576
O19   O     O_R   0.856660 0.908440 0.448310 -0.627577
O20   O     O_R   0.051740 0.091590 0.643330 -0.623921
O21   O     O_R   0.948290 0.091650 0.539960 -0.622609
O22   O     O_R   0.143330 0.091630 0.551690 -0.625569
O23   O     O_R   0.039880 0.091690 0.448320 -0.622678
O24   O     O_R   0.948270 0.540000 0.091680 -0.623817
Zn1   Zn    Zn3+2 0.499960 0.569050 0.569040 0.950245
Zn2   Zn    Zn3+2 0.500040 0.430950 0.430960 0.949682
Zn3   Zn    Zn3+2 0.069080 0.999990 0.569020 0.962140
Zn4   Zn    Zn3+2 0.930920 0.000070 0.430980 0.950284
Zn5   Zn    Zn3+2 0.930940 0.431040 0.000110 0.950430
Zn6   Zn    Zn3+2 0.069060 0.569140 0.000070 0.949500

loop_
_geom_bond_atom_site_label_1
_geom_bond_atom_site_label_2
_ccdc_geom_bond_type
C26   O8    A    
O3    Zn5   S    
C34   H4    S    
C1    O4    A    
C27   C29   A    
C48   H24   S    
O16   Zn2   S    
C35   C36   A    
O4    Zn2   S    
C11   H10   S    
C24   O3    A    
C20   C41   S    
C19   C46   S    
C7    C8    A    
C39   C41   A    
C3    H12   S    
C27   C33   A    
C25   O7    A    
C12   C23   S    
C37   C38   A    
C31   H30   S    
C34   C40   S    
C47   N1    S    
C36   C37   A    
O17   Zn3   S    
C30   C31   A    
O12   Zn4   S    
C39   H2    S    
O1    Zn1   S    
C10   C17   A    
C49   H5    S    
O5    Zn6   S    
C1    C2    S    
C48   H26   S    
C1    O1    A    
C47   H17   S    
C12   C40   A    
C25   C37   S    
C4    O10   A    
C28   O15   A    
C8    C9    A    
C22   O24   A    
C22   O2    A    
C5    H23   S    
C36   H19   S    
C43   H7    S    
C20   O21   A    
C40   C42   A    
C34   H3    S    
C13   C14   A    
C44   H13   S    
C23   H21   S    
C18   C33   S    
C44   C46   A    
C20   O20   A    
C2    C45   A    
C24   C50   S    
C38   C39   A    
O10   Zn1   S    
H15   N1    S    
O20   Zn3   S    
C51   C52   A    
O19   Zn4   S    
C27   H29   S    
C12   C46   A    
O11   Zn2   S    
C35   H31   S    
C16   O14   A    
C6    C21   S    
O18   Zn3   S    
O7    Zn6   S    
C48   H25   S    
O2    Zn6   S    
C43   C44   A    
C47   H18   S    
C29   C30   A    
C3    C9    A    
C19   O18   A    
C31   C32   A    
C45   C49   A    
O9    Zn6   S    
C23   C34   S    
O13   Zn1   S    
C50   C51   A    
C51   H6    S    
H22   N2    S    
C2    C52   A    
O23   Zn4   S    
C19   O19   A    
O14   Zn2   S    
C14   H28   S    
C48   N2    S    
C13   C26   S    
C10   H9    S    
C42   C43   A    
C24   O5    A    
C47   H16   S    
C52   H1    S    
C7    H27   S    
O21   Zn4   S    
C26   O9    A    
C15   C17   A    
C25   O6    A    
C22   C30   S    
C38   H32   S    
C23   H20   S    
C3    C5    A    
C21   O23   A    
O8    Zn5   S    
C16   O13   A    
C6    C7    A    
O15   Zn1   S    
O22   Zn3   S    
C32   C33   A    
C45   N2    S    
C8    H8    S    
C11   C13   A    
C5    C6    A    
C4    C42   S    
C32   N1    S    
C18   O17   A    
C35   C41   A    
O6    Zn5   S    
C21   O22   A    
C10   C11   A    
C29   H14   S    
C28   O16   A    
C9    C28   S    
C49   C50   A    
C15   H11   S    
C14   C15   A    
C18   O12   A    
C4    O11   A    
O24   Zn5   S    
C16   C17   S    
