data_mof_unit_46912.cif
_audit_creation_date              2012-12-10T20:57:53-0500
_audit_creation_method            fapswitch 2.2
_symmetry_space_group_name_H-M    P1
_symmetry_Int_Tables_number       1
_space_group_crystal_system       triclinic
_cell_length_a                    18.199518
_cell_length_b                    18.25989
_cell_length_c                    18.374843
_cell_angle_alpha                 120.040135
_cell_angle_beta                  89.975865
_cell_angle_gamma                 119.89639
_cell_volume                      4322.87982905

loop_
_atom_site_label
_atom_site_type_symbol
_atom_type_description
_atom_site_fract_x
_atom_site_fract_y
_atom_site_fract_z
_atom_type_partial_charge
C1    C     C_R   0.359474 0.220021 0.361125 0.500738
C2    C     C_3   0.781560 0.941268 0.668759 -0.238114
C3    C     C_3   0.698529 0.897341 0.697087 0.042864
C4    C     C_R   0.640895 0.780959 0.638831 0.496301
C5    C     C_3   0.799061 0.102320 0.801713 0.046167
C6    C     C_3   0.792794 0.057747 0.857099 -0.119338
C7    C     C_3   0.840517 0.061549 0.729325 -0.117006
C8    C     C_3   0.639803 0.441117 0.203607 -0.222927
C9    C     C_3   0.699267 0.445126 0.143956 -0.101430
C10   C     C_3   0.771855 0.614193 0.333979 -0.238395
C11   C     C_3   0.742891 0.449485 0.303503 -0.242488
C12   C     C_3   0.275756 0.577302 0.360297 -0.230281
C13   C     C_3   0.697681 0.501549 0.301493 0.054108
C14   C     C_3   0.798634 0.502144 0.199504 0.057374
C15   C     C_3   0.834616 0.614859 0.277344 -0.232309
C16   C     C_R   0.360640 0.501815 0.642031 0.502151
C17   C     C_3   0.799157 0.445816 0.240456 -0.251792
C18   C     C_R   0.390234 0.165386 0.580691 -0.107845
C19   C     C_R   0.370856 0.122081 0.489423 -0.069872
C20   C     C_R   0.293301 0.098116 0.440947 0.065265
C21   C     C_R   0.235000 0.116912 0.484431 -0.077676
C22   C     C_R   0.254594 0.160099 0.575667 -0.112880
C23   C     C_3   0.299842 0.500439 0.302309 0.062134
C24   C     C_R   0.332269 0.184645 0.623828 -0.095663
C25   C     C_R   0.217931 0.943892 0.287972 -0.158243
C26   C     C_R   0.195519 0.892308 0.195577 0.017420
C27   C     C_R   0.228258 0.949235 0.158055 -0.035999
C28   C     C_R   0.640601 0.500758 0.359368 0.496022
C29   C     C_R   0.281511 0.056087 0.214203 -0.156978
C30   C     C_R   0.303571 0.107666 0.306592 0.016567
C31   C     C_R   0.271939 0.050710 0.344132 -0.035734
C32   C     C_R   0.272128 0.886042 0.022099 -0.080217
C33   C     C_R   0.256387 0.842941 0.931088 -0.112452
C34   C     C_3   0.197663 0.500146 0.200742 0.062802
C35   C     C_R   0.179150 0.815108 0.878902 -0.095998
C36   C     C_R   0.117885 0.831183 0.917816 -0.100974
C37   C     C_R   0.133606 0.874766 0.008936 -0.061872
C38   C     C_R   0.210594 0.901772 0.061407 0.064223
C39   C     C_R   0.920237 0.742995 0.655713 -0.102986
C40   C     C_R   0.641894 0.500893 0.640740 0.504835
C41   C     C_R   0.875189 0.660115 0.663294 -0.063546
C42   C     C_R   0.839905 0.669707 0.733030 0.058626
C43   C     C_R   0.851776 0.763591 0.796036 -0.089562
C44   C     C_R   0.897609 0.846607 0.788657 -0.112272
C45   C     C_3   0.151271 0.390639 0.179756 -0.230899
C46   C     C_R   0.931332 0.836120 0.718279 -0.097664
C47   C     C_R   0.840647 0.578453 0.794455 -0.155251
C48   C     C_R   0.799408 0.498110 0.805449 0.026221
C49   C     C_R   0.706399 0.418909 0.761850 -0.036049
C50   C     C_R   0.657372 0.421972 0.707702 -0.156493
C51   C     C_R   0.698487 0.502316 0.696891 0.022374
C52   C     C_R   0.357940 0.500167 0.359466 0.495165
C53   C     C_R   0.791435 0.581704 0.740557 -0.036525
C54   C     C_R   0.636899 0.234599 0.704788 -0.093828
C55   C     C_R   0.586398 0.151666 0.711608 -0.124300
C56   C     C_3   0.215686 0.576742 0.300977 -0.229533
C57   C     C_R   0.556320 0.165977 0.784530 -0.106078
C58   C     C_R   0.575406 0.262811 0.850044 -0.096195
C59   C     C_R   0.624633 0.345444 0.842698 -0.054999
C60   C     C_R   0.656767 0.332133 0.770738 0.052711
C61   C     C_R   0.468286 0.847178 0.798245 -0.113867
C62   C     C_R   0.427264 0.756623 0.794561 -0.074022
C63   C     C_R   0.337036 0.675518 0.741725 0.060869
C64   C     C_3   0.349224 0.533138 0.244176 -0.229370
C65   C     C_R   0.288396 0.685895 0.692683 -0.087136
C66   C     C_R   0.330010 0.776097 0.695717 -0.115442
C67   C     C_3   0.644793 0.939739 0.690505 -0.242768
C68   C     C_R   0.419797 0.856758 0.748633 -0.106876
C69   C     C_R   0.235140 0.577810 0.793897 -0.158128
C70   C     C_R   0.194784 0.497642 0.805030 0.021785
C71   C     C_R   0.210855 0.419936 0.763570 -0.031722
C72   C     C_R   0.265427 0.423980 0.710998 -0.156502
C73   C     C_R   0.305856 0.504306 0.699994 0.018274
C74   C     C_R   0.291632 0.583283 0.743279 -0.034037
C75   C     C_R   0.212100 0.345493 0.846298 -0.062766
C76   C     C_3   0.289391 0.533756 0.184973 -0.231206
C77   C     C_R   0.176803 0.261409 0.852186 0.019495
C78   C     C_3   0.702354 0.058869 0.753122 -0.234352
C79   C     C_R   0.102444 0.163662 0.782540 -0.117877
C80   C     C_R   0.063474 0.150014 0.707368 -0.137592
C81   C     C_R   0.097709 0.234057 0.701942 -0.092140
C82   C     C_R   0.171886 0.332332 0.771570 0.041346
C83   C     C_R   0.856967 0.501228 0.142662 0.505013
C84   C     C_R   0.137899 0.498799 0.860936 0.508629
C85   C     C_R   0.856846 0.219113 0.861563 0.514178
C86   C     C_R   0.138663 0.779974 0.141081 0.501013
C87   C     C_R   0.855863 0.499278 0.861575 0.512095
C88   C     C_3   0.211121 0.390922 0.239805 -0.230537
C89   C     C_3   0.731381 0.937379 0.795465 -0.232886
C90   C     C_R   0.139680 0.499892 0.142934 0.495435
C91   C     C_1   0.760467 0.097150 0.931939 0.168841
C92   C     C_1   0.853328 0.102659 0.675078 0.177438
C93   C     C_1   0.692456 0.495154 0.103636 0.183255
C94   C     C_1   0.217237 0.275099 0.929259 0.167238
H1    H     H_    0.366560 0.478732 0.201020 0.152839
H2    H     H_    0.822826 0.914242 0.674446 0.123575
H3    H     H_    0.413285 0.611539 0.287597 0.105170
H4    H     H_    0.758610 0.910037 0.597175 0.120204
H5    H     H_    0.908144 0.088692 0.763558 0.121470
H6    H     H_    0.769536 0.907327 0.801449 0.110663
H7    H     H_    0.861321 0.083260 0.886993 0.100224
H8    H     H_    0.601936 0.473217 0.201630 0.136317
H9    H     H_    0.588716 0.358714 0.177419 0.126786
H10   H     H_    0.672934 0.364187 0.088378 0.122818
H11   H     H_    0.740411 0.651157 0.328978 0.116266
H12   H     H_    0.151022 0.554306 0.314751 0.127110
H13   H     H_    0.840096 0.660228 0.251381 0.129079
H14   H     H_    0.787092 0.493405 0.372564 0.126809
H15   H     H_    0.690959 0.369486 0.282765 0.115164
H16   H     H_    0.771171 0.363802 0.186406 0.130292
H17   H     H_    0.869198 0.482561 0.278279 0.125983
H18   H     H_    0.812476 0.661186 0.405175 0.133421
H19   H     H_    0.903299 0.654615 0.320558 0.131894
H20   H     H_    0.347283 0.218083 0.694440 0.113484
H21   H     H_    0.449921 0.183566 0.617893 0.106115
H22   H     H_    0.416062 0.107268 0.456531 0.096154
H23   H     H_    0.174103 0.366072 0.280084 0.106937
H24   H     H_    0.279052 0.480717 0.113707 0.153550
H25   H     H_    0.174617 0.098078 0.447694 0.098427
H26   H     H_    0.209420 0.174191 0.608967 0.107491
H27   H     H_    0.193573 0.901016 0.317325 0.143208
H28   H     H_    0.306159 0.098991 0.184893 0.147407
H29   H     H_    0.332137 0.907305 0.061954 0.099820
H30   H     H_    0.304151 0.831305 0.901056 0.114157
H31   H     H_    0.167017 0.781542 0.808434 0.105772
H32   H     H_    0.058449 0.810295 0.877448 0.104348
H33   H     H_    0.085917 0.887178 0.038555 0.099338
H34   H     H_    0.085176 0.365009 0.190663 0.107824
H35   H     H_    0.966235 0.900199 0.712347 0.091583
H36   H     H_    0.225986 0.333788 0.197104 0.149903
H37   H     H_    0.946557 0.735041 0.601365 0.093574
H38   H     H_    0.866881 0.588250 0.614497 0.097338
H39   H     H_    0.825484 0.772266 0.850528 0.099104
H40   H     H_    0.907047 0.919101 0.837474 0.094253
H41   H     H_    0.911812 0.639828 0.828343 0.138191
H42   H     H_    0.586164 0.360781 0.673982 0.140693
H43   H     H_    0.659862 0.222784 0.648035 0.105951
H44   H     H_    0.570431 0.076244 0.660309 0.096798
H45   H     H_    0.583589 0.908644 0.708488 0.143779
H46   H     H_    0.517750 0.101946 0.790002 0.097334
H47   H     H_    0.551507 0.273643 0.906130 0.112270
H48   H     H_    0.138199 0.333939 0.108555 0.153079
H49   H     H_    0.637828 0.419740 0.892750 0.139601
H50   H     H_    0.451767 0.926730 0.751311 0.093422
H51   H     H_    0.537533 0.910144 0.839849 0.113857
H52   H     H_    0.465145 0.750261 0.833814 0.096751
H53   H     H_    0.218376 0.624458 0.652635 0.099659
H54   H     H_    0.292463 0.783822 0.657649 0.098962
H55   H     H_    0.224520 0.638531 0.826679 0.141311
H56   H     H_    0.622288 0.913908 0.620665 0.120392
H57   H     H_    0.276183 0.363349 0.678349 0.141736
H58   H     H_    0.270267 0.421017 0.899663 0.102477
H59   H     H_    0.240042 0.555789 0.402826 0.128725
H60   H     H_    0.074834 0.098065 0.786240 0.098328
H61   H     H_    0.067044 0.222497 0.643283 0.124943
H62   H     H_    0.338117 0.657007 0.405467 0.128836
H63   H     H_    0.324213 0.612760 0.200638 0.105074
H64   H     H_    0.006500 0.074188 0.653310 0.110156
H65   H     H_    0.249174 0.656402 0.318407 0.130374
H66   H     H_    0.705176 0.090217 0.713853 0.136913
H67   H     H_    0.669474 0.083649 0.802242 0.146952
H68   H     H_    0.671958 0.905539 0.815936 0.118604
N1    N     N_1   0.735140 0.128067 0.990485 -0.328770
N2    N     N_1   0.863382 0.134950 0.632709 -0.326097
N3    N     N_1   0.687347 0.534862 0.072664 -0.333824
N4    N     N_1   0.249681 0.285898 0.991112 -0.341889
O1    O     O_3   0.500000 0.500000 0.500000 -0.436755
O2    O     O_R   0.113800 0.731630 0.056520 -0.534745
O3    O     O_R   0.819390 0.439310 0.886160 -0.530409
O4    O     O_R   0.383400 0.268380 0.323710 -0.553061
O5    O     O_R   0.115110 0.560720 0.179280 -0.552747
O6    O     O_R   0.941380 0.560750 0.885620 -0.552335
O7    O     O_R   0.115110 0.439270 0.057830 -0.549715
O8    O     O_R   0.942690 0.268390 0.886930 -0.545920
O9    O     O_R   0.114340 0.731630 0.178520 -0.556206
O10   O     O_R   0.820160 0.439310 0.057830 -0.538018
O11   O     O_R   0.113800 0.560730 0.885620 -0.546801
O12   O     O_R   0.383400 0.560740 0.616060 -0.532461
O13   O     O_R   0.555060 0.731630 0.615290 -0.545749
O14   O     O_R   0.383950 0.439280 0.616600 -0.547412
O15   O     O_R   0.677590 0.560710 0.444390 -0.550693
O16   O     O_R   0.556370 0.439260 0.616600 -0.551147
O17   O     O_R   0.382640 0.439290 0.322940 -0.546766
O18   O     O_R   0.678360 0.560700 0.616060 -0.534432
O19   O     O_R   0.382640 0.560750 0.444390 -0.550858
O20   O     O_R   0.555060 0.439270 0.322940 -0.551416
O21   O     O_R   0.383950 0.268380 0.445700 -0.532969
O22   O     O_R   0.677590 0.731610 0.615290 -0.542059
O23   O     O_3   0.997750 0.500010 0.002220 -0.440431
O24   O     O_R   0.942690 0.560750 0.179280 -0.554008
O25   O     O_R   0.114340 0.439270 0.886160 -0.535038
O26   O     O_R   0.820160 0.268410 0.886930 -0.533350
Zn1   Zn    Zn3+2 0.456040 0.586770 0.543190 0.927358
Zn2   Zn    Zn3+2 0.456820 0.413240 0.543960 0.933996
Zn3   Zn    Zn3+2 0.631110 0.586750 0.543190 0.925464
Zn4   Zn    Zn3+2 0.456040 0.413240 0.369660 0.918691
Zn5   Zn    Zn3+2 0.041710 0.413240 0.959030 0.940699
Zn6   Zn    Zn3+2 0.866640 0.413270 0.959030 0.958877
Zn7   Zn    Zn3+2 0.040930 0.586780 0.958260 0.938423
Zn8   Zn    Zn3+2 0.041710 0.586770 0.132560 0.914455

loop_
_geom_bond_atom_site_label_1
_geom_bond_atom_site_label_2
_ccdc_geom_bond_type
O23   Zn6   S    
C25   C31   A    
C66   C68   A    
C63   C65   A    
C34   C56   S    
C8    C13   S    
O2    Zn7   S    
C11   H15   S    
C41   C42   A    
C1    O4    A    
C83   O24   A    
C35   C36   A    
C32   H29   S    
C52   O17   A    
C88   H36   S    
C12   H59   S    
C9    C14   S    
C17   H16   S    
C94   N4    T    
C46   H35   S    
C81   C82   A    
C57   C58   A    
O24   Zn8   S    
C39   C41   A    
C54   C60   A    
C85   O26   A    
C22   H26   S    
C90   O7    A    
C26   C27   A    
C37   C38   A    
C49   C60   S    
C7    H5    S    
C84   O25   A    
C18   C24   A    
O20   Zn4   S    
C36   C37   A    
C18   C19   A    
C56   H65   S    
C10   C15   S    
C9    H10   S    
C42   C53   S    
C30   C31   A    
C88   H23   S    
C54   H43   S    
C27   C29   A    
C87   O6    A    
C27   C38   S    
C6    C91   S    
C87   O3    A    
C77   C94   S    
O6    Zn7   S    
C43   H39   S    
C86   O9    A    
O1    Zn4   S    
C6    H7    S    
C15   H13   S    
C35   H31   S    
C6    C89   S    
C61   H51   S    
C2    C7    S    
O22   Zn3   S    
C44   C46   A    
C8    C9    S    
C90   O5    A    
C33   H30   S    
C15   H19   S    
C13   C28   S    
C10   H18   S    
C70   C71   A    
O16   Zn2   S    
O26   Zn6   S    
C65   H53   S    
C29   C30   A    
C70   C84   S    
C66   H54   S    
C47   C53   A    
C71   C82   S    
C5    C85   S    
O23   Zn7   S    
C1    O21   A    
C93   N3    T    
C59   C60   A    
C21   C22   A    
C67   H56   S    
O1    Zn1   S    
C14   C17   S    
C91   N1    T    
C84   O11   A    
C67   C78   S    
C14   C83   S    
C12   H62   S    
C17   H17   S    
C16   O12   A    
O17   Zn4   S    
C40   O16   A    
C77   C79   A    
C73   C74   A    
C44   H40   S    
O12   Zn1   S    
C36   H32   S    
C76   H63   S    
C89   H6    S    
O7    Zn5   S    
C16   C73   S    
C23   C64   S    
C45   C88   S    
C86   O2    A    
O10   Zn6   S    
C5    C7    S    
C72   C73   A    
C50   C51   A    
C25   C26   A    
C76   H24   S    
C57   H46   S    
C51   C53   A    
C43   C44   A    
C34   C90   S    
C62   C63   A    
C28   O20   A    
C80   H64   S    
C47   C48   A    
C12   C23   S    
C75   H58   S    
C26   C86   S    
C72   H57   S    
C29   H28   S    
C85   O8    A    
C64   C76   S    
C48   C87   S    
C69   C74   A    
C34   C45   S    
C75   C77   A    
C56   H12   S    
C12   C56   S    
C39   C46   A    
O23   Zn8   S    
C78   H66   S    
C64   H3    S    
C49   C50   A    
C32   C38   A    
C23   C88   S    
C55   C57   A    
O21   Zn2   S    
C62   H52   S    
C45   H48   S    
O1    Zn2   S    
C22   C24   A    
O5    Zn8   S    
C42   C43   A    
C4    O13   A    
C3    C4    S    
O18   Zn3   S    
C9    C93   S    
C89   H68   S    
C67   H45   S    
O13   Zn1   S    
O23   Zn5   S    
C61   C68   A    
C54   C55   A    
C11   C17   S    
O8    Zn5   S    
C47   H41   S    
C14   C15   S    
O1    Zn3   S    
C3    C67   S    
O25   Zn5   S    
C64   H1    S    
O19   Zn1   S    
C80   C81   A    
C10   C13   S    
C18   H21   S    
C41   H38   S    
C52   O19   A    
C75   C82   A    
C63   C74   S    
C55   H44   S    
C40   C51   S    
C25   H27   S    
C81   H61   S    
C3    C89   S    
C69   H55   S    
C32   C33   A    
C4    O22   A    
C19   C20   A    
C2    H2    S    
C2    C3    S    
C58   C59   A    
C71   C72   A    
C21   H25   S    
C50   H42   S    
C79   H60   S    
O4    Zn4   S    
C11   C13   S    
C58   H47   S    
C92   N2    T    
C23   C52   S    
C5    C6    S    
O14   Zn2   S    
C39   H37   S    
C19   H22   S    
C28   O15   A    
C48   C49   A    
C7    C92   S    
C1    C30   S    
C33   C35   A    
C68   H50   S    
C61   C62   A    
O15   Zn3   S    
C8    H9    S    
C69   C70   A    
O9    Zn8   S    
C59   H49   S    
C79   C80   A    
C20   C21   A    
C2    H4    S    
C78   H67   S    
C65   C66   A    
O11   Zn7   S    
C11   H14   S    
C24   H20   S    
C10   H11   S    
C45   H34   S    
C40   O18   A    
C5    C78   S    
C83   O10   A    
C8    H8    S    
C16   O14   A    
C34   C76   S    
O3    Zn6   S    
C37   H33   S    
C20   C31   S    
