data_mof_unit_39342.cif
_audit_creation_date              2013-03-05T16:35:44-0500
_audit_creation_method            fapswitch 2.2
_symmetry_space_group_name_H-M    P1
_symmetry_Int_Tables_number       1
_space_group_crystal_system       monoclinic
_cell_length_a                    19.473635
_cell_length_b                    9.074816
_cell_length_c                    7.982229
_cell_angle_alpha                 89.99973
_cell_angle_beta                  90.0
_cell_angle_gamma                 90.0
_cell_volume                      1410.61675081

loop_
_atom_site_label
_atom_site_type_symbol
_atom_site_description
_atom_site_fract_x
_atom_site_fract_y
_atom_site_fract_z
_atom_type_partial_charge
O1    O     O_R   0.500000 0.288390 0.642760 -0.569578
O2    O     O_R   0.500000 0.711610 0.357240 -0.569578
O3    O     O_R   0.500000 0.711610 0.642760 -0.569578
O4    O     O_R   0.500000 0.288390 0.357240 -0.569578
C1    C     C_R   0.500000 0.220832 0.500000 0.818526
C2    C     C_R   0.500000 0.779168 0.500000 0.818526
O5    O     O_R   0.400140 0.500000 0.642830 -0.529198
O6    O     O_R   0.599860 0.500000 0.357170 -0.529197
O7    O     O_R   0.599860 0.500000 0.642830 -0.529197
O8    O     O_R   0.400140 0.500000 0.357170 -0.529197
C3    C     C_R   0.366905 0.500000 0.500000 0.854105
C4    C     C_R   0.633095 0.500000 0.500000 0.854106
Cu1   Cu    Cu3+1 0.500000 0.500000 0.669080 1.153896
Cu2   Cu    Cu3+1 0.500000 0.500000 0.330920 1.153896
C5    C     C_1   0.500000 0.065588 0.500000 -0.093689
C6    C     C_1   0.500000 0.934412 0.500000 -0.093689
N1    N     N_1   0.500000 0.500000 0.076820 0.028242
N2    N     N_1   0.500000 0.500000 0.923180 0.028242
C7    C     C_R   0.251875 0.457078 0.642615 0.249025
C8    C     C_R   0.748124 0.457077 0.357386 0.249015
C9    C     C_R   0.748124 0.542922 0.642614 0.249015
C10   C     C_R   0.251875 0.542922 0.357384 0.249025
C11   C     C_R   0.180159 0.447906 0.639719 0.195277
C12   C     C_R   0.819841 0.447904 0.360281 0.195288
C13   C     C_R   0.819841 0.552096 0.639718 0.195289
C14   C     C_R   0.180159 0.552094 0.360281 0.195276
C15   C     C_R   0.144121 0.500000 0.500000 -0.186495
C16   C     C_R   0.855881 0.500000 0.500000 -0.186508
C17   C     C_R   0.289392 0.500000 0.500000 -0.322659
C18   C     C_R   0.710607 0.500000 0.500000 -0.322657
N3    N     N_R   0.034137 0.370995 0.499918 -0.146950
N4    N     N_R   0.965867 0.629004 0.500163 -0.146947
N5    N     N_R   0.965867 0.370995 0.499837 -0.146947
N6    N     N_R   0.034137 0.629005 0.500083 -0.146950
C19   C     C_R   0.930774 0.500000 0.500000 0.525516
C20   C     C_R   0.069230 0.500000 0.500000 0.525529
N7    N     N_R   0.285902 0.442181 0.797346 0.190099
O9    O     O_R   0.311200 0.314553 0.838851 -0.275948
O10   O     O_R   0.310945 0.562320 0.861470 -0.246330
N8    N     N_R   0.714097 0.442181 0.202656 0.190099
O11   O     O_R   0.688799 0.314553 0.161152 -0.275949
O12   O     O_R   0.689055 0.562320 0.138529 -0.246330
N9    N     N_R   0.714097 0.557819 0.797344 0.190099
O13   O     O_R   0.688799 0.685447 0.838848 -0.275949
O14   O     O_R   0.689055 0.437680 0.861470 -0.246330
N10   N     N_R   0.285902 0.557819 0.202654 0.190099
O15   O     O_R   0.311200 0.685447 0.161149 -0.275948
O16   O     O_R   0.310945 0.437680 0.138530 -0.246330
Br1   Br    Br    0.132361 0.370646 0.831944 -0.255130
Br2   Br    Br    0.867634 0.370650 0.168045 -0.255112
Br3   Br    Br    0.867634 0.629350 0.831954 -0.255112
Br4   Br    Br    0.132361 0.629354 0.168056 -0.255130

loop_
_geom_bond_atom_site_label_1
_geom_bond_atom_site_label_2
_geom_bond_distance
_ccdc_geom_bond_type
C7    C11   1.399240 A    
N9    O13   1.301493 A    
N3    N5    1.329463 A    
N7    O9    1.301492 A    
C10   C17   1.407626 A    
C11   C15   1.399946 A    
C15   C20   1.458398 S    
C9    C18   1.407619 A    
O7    Cu1   1.955893 S    
C13   Br3   1.926741 S    
O3    Cu1   1.931779 S    
C8    N8    1.408121 S    
O6    C4    1.310999 A    
O3    C2    1.293993 A    
C4    C18   1.509444 S    
N8    O12   1.299406 A    
N1    N2    1.226390 T    
N7    O10   1.299405 A    
C8    C18   1.407620 A    
Cu1   Cu2   2.699271 S    
C13   C16   1.399966 A    
O5    C3    1.310998 A    
N9    O14   1.299405 A    
Cu2   N1    2.028284 S    
C14   C15   1.399945 A    
O2    C2    1.293995 A    
Cu1   N2    2.028284 S    
O1    C1    1.293995 A    
N8    O11   1.301493 A    
N5    C19   1.355563 A    
N6    C20   1.355556 A    
O4    Cu2   1.931780 S    
O2    Cu2   1.931781 S    
O7    C4    1.310998 A    
N10   O16   1.299405 A    
C11   Br1   1.926734 S    
C1    C5    1.408810 S    
O8    C3    1.310999 A    
C2    C6    1.408810 S    
C5    C6    1.190397 T    
C7    C17   1.407625 A    
N4    C19   1.355563 A    
C8    C12   1.399243 A    
O5    Cu1   1.955895 S    
O1    Cu1   1.931782 S    
C3    C17   1.509442 S    
C10   C14   1.399240 A    
C12   Br2   1.926741 S    
C9    C13   1.399243 A    
N10   O15   1.301493 A    
O6    Cu2   1.955893 S    
C7    N7    1.408120 S    
C10   N10   1.408118 S    
N3    C20   1.355555 A    
C14   Br4   1.926735 S    
C9    N9    1.408121 S    
C12   C16   1.399967 A    
C16   C19   1.458435 S    
O8    Cu2   1.955895 S    
O4    C1    1.293993 A    
N4    N6    1.329461 A    
