data_mof_unit_53062.cif
_audit_creation_date              2013-03-05T15:49:56-0500
_audit_creation_method            fapswitch 2.2
_symmetry_space_group_name_H-M    P1
_symmetry_Int_Tables_number       1
_space_group_crystal_system       triclinic
_cell_length_a                    12.10506
_cell_length_b                    12.930799
_cell_length_c                    14.983534
_cell_angle_alpha                 90.34492
_cell_angle_beta                  86.273667
_cell_angle_gamma                 93.337144
_cell_volume                      2336.41116739

loop_
_atom_site_label
_atom_site_type_symbol
_atom_site_description
_atom_site_fract_x
_atom_site_fract_y
_atom_site_fract_z
_atom_type_partial_charge
O1    O     O_R   0.421700 0.658830 0.504450 -0.611730
O2    O     O_R   0.578300 0.341170 0.495550 -0.611680
O3    O     O_R   0.609310 0.646410 0.493750 -0.633960
O4    O     O_R   0.390690 0.353590 0.506250 -0.633969
C1    C     C_R   0.521617 0.699858 0.494977 1.000156
C2    C     C_R   0.478380 0.300144 0.505020 1.000313
O5    O     O_R   0.406180 0.506230 0.637500 -0.562580
O6    O     O_R   0.593820 0.493770 0.362500 -0.562591
O7    O     O_R   0.593800 0.493820 0.626800 -0.644009
O8    O     O_R   0.406200 0.506180 0.373200 -0.644012
C3    C     C_R   0.499976 0.500204 0.672631 1.014751
C4    C     C_R   0.500025 0.499802 0.327369 1.014649
Zn1   Zn    Zn3+2 0.374730 0.508290 0.507150 1.055353
Zn2   Zn    Zn3+2 0.625270 0.491710 0.492850 1.055350
C5    C     C_R   0.498088 0.404992 0.186118 0.229192
C6    C     C_R   0.501817 0.595071 0.813861 0.229296
C7    C     C_R   0.501085 0.499585 0.231838 -0.263797
C8    C     C_R   0.498906 0.500457 0.768164 -0.263926
C9    C     C_R   0.510091 0.594243 0.186557 0.252421
C10   C     C_R   0.489847 0.405820 0.813477 0.252567
C11   C     C_R   0.522913 0.594263 0.092788 -0.063954
C12   C     C_R   0.476871 0.405857 0.907237 -0.063869
C13   C     C_R   0.501386 0.499855 0.046661 0.006150
C14   C     C_R   0.498404 0.500265 0.953353 0.006089
C15   C     C_R   0.483084 0.405009 0.094014 -0.038646
C16   C     C_R   0.516714 0.595099 0.905986 -0.038588
C17   C     C_R   0.557717 0.685282 0.044233 0.291709
C18   C     C_R   0.441880 0.314888 0.955789 0.291808
C19   C     C_R   0.554179 0.685678 0.951084 -0.147133
C20   C     C_R   0.445474 0.314470 0.048934 -0.147157
C21   C     C_R   0.465712 0.188738 0.509751 -0.089025
C22   C     C_R   0.534267 0.811269 0.490274 -0.089036
C23   C     C_R   0.646761 0.966252 0.516127 0.302340
C24   C     C_R   0.353195 0.033759 0.483956 0.302316
C25   C     C_R   0.634830 0.859796 0.510854 -0.146905
C26   C     C_R   0.365146 0.140216 0.489179 -0.146976
C27   C     C_R   0.445107 0.869122 0.468487 -0.059785
C28   C     C_R   0.554845 0.130884 0.531590 -0.059746
C29   C     C_R   0.448556 0.975188 0.488106 -0.017300
C30   C     C_R   0.551398 0.024817 0.511981 -0.017320
H1    H     H_    0.293981 0.185080 0.479779 0.199183
H2    H     H_    0.706003 0.814936 0.520233 0.199172
N1    N     N_R   0.207800 0.519350 0.516680 -0.208687
N2    N     N_R   0.792200 0.480650 0.483320 -0.208689
C31   C     C_R   0.954469 0.414703 0.406494 0.175731
C32   C     C_R   0.045529 0.585287 0.593510 0.175711
C33   C     C_R   0.838801 0.420340 0.417976 0.339171
C34   C     C_R   0.161196 0.579652 0.582028 0.339153
C35   C     C_R   0.856910 0.537994 0.538956 -0.003685
C36   C     C_R   0.143091 0.462007 0.461041 -0.003658
C37   C     C_R   0.975096 0.531342 0.533962 -0.124366
C38   C     C_R   0.024904 0.468654 0.466038 -0.124369
N3    N     N_R   0.520183 0.311077 0.231201 0.214877
O9    O     O_R   0.462959 0.282050 0.304031 -0.417237
O10   O     O_R   0.597049 0.253023 0.197962 -0.250231
N4    N     N_R   0.479742 0.688951 0.768722 0.214793
O11   O     O_R   0.537092 0.717997 0.695955 -0.417311
O12   O     O_R   0.402772 0.746963 0.801850 -0.250217
N5    N     N_R   0.997894 0.357984 0.330976 0.210048
O13   O     O_R   0.037471 0.407664 0.259561 -0.311896
O14   O     O_R   0.980896 0.257784 0.327889 -0.242738
N6    N     N_R   0.002101 0.641990 0.669037 0.210059
O15   O     O_R   0.962502 0.592294 0.740436 -0.311847
O16   O     O_R   0.019116 0.742187 0.672148 -0.242706
N7    N     N_R   0.501163 0.689257 0.235915 0.205200
O17   O     O_R   0.572309 0.715749 0.294537 -0.379128
O18   O     O_R   0.426185 0.752681 0.217685 -0.328242
N8    N     N_R   0.498876 0.310765 0.764182 0.205304
O19   O     O_R   0.573590 0.247215 0.782725 -0.328068
O20   O     O_R   0.427953 0.284305 0.705377 -0.379403
N9    N     N_R   0.609087 0.773389 0.087662 0.237309
O21   O     O_R   0.572255 0.865124 0.078872 -0.269962
O22   O     O_R   0.700401 0.763656 0.127323 -0.271151
N10   N     N_R   0.390197 0.226936 0.912357 0.237356
O23   O     O_R   0.299281 0.237099 0.872267 -0.271168
O24   O     O_R   0.426431 0.135002 0.921367 -0.270117
C39   C     C_1   0.604216 0.775126 0.902328 0.414699
N11   N     N_1   0.644432 0.846465 0.863712 -0.031357
C40   C     C_1   0.395314 0.225100 0.097727 0.414662
N12   N     N_1   0.355001 0.153828 0.136377 -0.031308
C41   C     C_1   0.643857 0.179197 0.580961 0.407283
N13   N     N_1   0.714918 0.217955 0.619776 -0.069013
C42   C     C_1   0.356032 0.820808 0.419185 0.407425
N14   N     N_1   0.284913 0.782050 0.380432 -0.068954
N15   N     N_R   0.757072 0.012705 0.519694 0.197669
O25   O     O_R   0.825293 0.975410 0.573181 -0.291917
O26   O     O_R   0.795878 0.077260 0.457479 -0.267898
N16   N     N_R   0.242874 0.987317 0.480434 0.197662
O27   O     O_R   0.174638 0.024589 0.426947 -0.291928
O28   O     O_R   0.204081 0.922802 0.542683 -0.267840
C43   C     C_1   0.197774 0.390604 0.401416 0.378841
N17   N     N_1   0.240639 0.332754 0.353283 -0.091223
C44   C     C_1   0.802231 0.609404 0.598576 0.378837
N18   N     N_1   0.759370 0.667261 0.646705 -0.091104
N19   N     N_R   0.229654 0.632550 0.643920 0.254362
O29   O     O_R   0.227044 0.599181 0.725819 -0.280375
O30   O     O_R   0.267553 0.726914 0.626665 -0.268747
N20   N     N_R   0.770340 0.367429 0.356093 0.254360
O31   O     O_R   0.772936 0.400787 0.274191 -0.280391
O32   O     O_R   0.732449 0.273064 0.373358 -0.268703

loop_
_geom_bond_atom_site_label_1
_geom_bond_atom_site_label_2
_geom_bond_distance
_ccdc_geom_bond_type
N2    C35   1.366810 A    
C3    C8    1.430620 S    
C44   N18   1.157150 T    
C34   N19   1.428577 S    
C17   C19   1.399187 A    
N19   O29   1.301087 A    
C18   N10   1.438587 S    
C41   N13   1.157883 T    
N3    O9    1.299219 A    
O5    C3    1.288716 A    
C33   N20   1.428592 S    
N10   O24   1.301583 A    
C32   N6    1.432540 S    
O1    C1    1.291661 A    
C5    N3    1.440049 S    
C9    C11   1.403485 A    
C14   C16   1.419507 A    
C5    C15   1.403601 A    
N4    O11   1.299221 A    
O4    Zn1   2.020745 S    
C25   H2    1.083243 S    
C23   N15   1.436053 S    
N6    O16   1.301034 A    
C23   C25   1.378056 A    
N8    O19   1.300916 A    
C35   C37   1.435296 A    
C4    C7    1.430608 S    
C36   C38   1.435303 A    
C13   C14   1.400935 A    
N1    C34   1.362056 A    
C8    C10   1.398293 A    
N2    C33   1.362063 A    
C39   N11   1.157699 T    
C1    C22   1.441527 S    
N3    O10   1.301511 A    
C2    C21   1.441484 S    
C11   C17   1.415894 A    
N5    O13   1.301163 A    
C12   C18   1.415818 A    
C26   H1    1.083242 S    
O2    C2    1.291680 A    
C31   C33   1.405637 A    
C6    C16   1.403662 A    
C32   C34   1.405629 A    
N5    O14   1.301038 A    
C23   C30   1.421843 A    
N10   O23   1.301151 A    
N15   O26   1.301247 A    
C24   C29   1.421860 A    
C22   C25   1.388606 A    
O4    C2    1.299011 A    
C43   N17   1.157151 T    
N9    O22   1.301261 A    
C31   C38   1.425395 A    
N7    O18   1.300978 A    
N15   O25   1.301494 A    
C32   C37   1.425388 A    
C37   C38   1.422537 A    
O7    Zn2   2.018728 S    
C6    N4    1.440024 S    
N6    O15   1.301151 A    
C42   N14   1.157898 T    
O6    C4    1.288712 A    
C24   N16   1.436054 S    
C22   C27   1.404924 A    
O7    C3    1.295055 A    
O3    Zn2   2.020745 S    
O8    C4    1.295048 A    
C20   C40   1.452382 S    
N8    O20   1.300372 A    
C10   C12   1.403432 A    
N7    O17   1.300366 A    
N20   O32   1.299781 A    
C11   C13   1.418471 A    
C28   C41   1.455398 S    
C12   C14   1.418420 A    
O1    Zn1   1.995815 S    
Zn1   N1    2.029768 S    
C17   N9    1.438506 S    
Zn2   N2    2.029768 S    
C15   C20   1.415108 A    
C5    C7    1.398111 A    
C31   N5    1.432537 S    
O6    Zn2   2.014625 S    
C10   N8    1.436132 S    
N16   O28   1.301251 A    
O3    C1    1.299057 A    
O8    Zn1   2.018728 S    
N19   O30   1.299780 A    
N1    C36   1.366819 A    
C21   C28   1.404875 A    
C18   C20   1.399201 A    
N9    O21   1.301664 A    
C27   C29   1.399740 A    
C28   C30   1.399733 A    
C7    C9    1.398296 A    
N4    O12   1.301524 A    
C9    N7    1.436041 S    
C24   C26   1.378032 A    
C13   C15   1.419530 A    
O2    Zn2   1.995815 S    
C40   N12   1.157683 T    
C29   C30   1.432381 A    
C36   C43   1.439845 S    
O5    Zn1   2.014624 S    
C19   C39   1.452392 S    
N16   O27   1.301483 A    
C16   C19   1.415119 A    
C6    C8    1.398170 A    
N20   O31   1.301085 A    
C21   C26   1.388595 A    
C27   C42   1.455403 S    
C35   C44   1.439839 S    
