data_mof_unit_49645.cif
_audit_creation_date              2012-12-11T14:08:19-0500
_audit_creation_method            fapswitch 2.2
_symmetry_space_group_name_H-M    P1
_symmetry_Int_Tables_number       1
_space_group_crystal_system       triclinic
_cell_length_a                    28.176322
_cell_length_b                    7.177753
_cell_length_c                    17.323999
_cell_angle_alpha                 90.025538
_cell_angle_beta                  101.985973
_cell_angle_gamma                 90.060596
_cell_volume                      3427.26430499

loop_
_atom_site_label
_atom_site_type_symbol
_atom_type_description
_atom_site_fract_x
_atom_site_fract_y
_atom_site_fract_z
_atom_type_partial_charge
O1    O     O_R   0.000700 0.436510 0.857920 -0.503741
O2    O     O_R   0.999300 0.563490 0.142080 -0.503457
O3    O     O_R   0.999300 0.936510 0.642080 -0.504202
O4    O     O_R   0.000700 0.063490 0.357920 -0.510542
O5    O     O_R   0.930080 0.766380 0.721890 -0.552194
O6    O     O_R   0.069920 0.233620 0.278110 -0.549009
O7    O     O_R   0.069920 0.266380 0.778110 -0.551976
O8    O     O_R   0.930080 0.733620 0.221890 -0.536565
C1    C     C_R   0.910458 0.596935 0.712319 0.773781
C2    C     C_R   0.089345 0.402641 0.291167 0.785419
C3    C     C_R   0.089586 0.097140 0.787882 0.773702
C4    C     C_R   0.910658 0.902345 0.209165 0.721971
O9    O     O_R   0.996180 0.766230 0.862310 -0.556746
O10   O     O_R   0.003820 0.233770 0.137690 -0.553310
O11   O     O_R   0.003820 0.266230 0.637690 -0.556520
O12   O     O_R   0.996180 0.733770 0.362310 -0.553961
O13   O     O_R   0.065870 0.936460 0.783500 -0.510499
O14   O     O_R   0.934130 0.063540 0.216500 -0.536113
O15   O     O_R   0.934130 0.436460 0.716500 -0.510657
O16   O     O_R   0.065870 0.563540 0.283500 -0.514993
C5    C     C_R   0.999294 0.596520 0.894710 0.679840
C6    C     C_R   0.000660 0.403480 0.105278 0.686265
C7    C     C_R   0.000680 0.096477 0.605289 0.682710
C8    C     C_R   0.999334 0.903525 0.394712 0.664676
O17   O     O_3   0.022790 0.603020 0.723980 -0.358455
O18   O     O_3   0.977210 0.396980 0.276020 -0.367625
O19   O     O_3   0.977210 0.103020 0.776020 -0.358418
O20   O     O_3   0.022790 0.896980 0.223980 -0.355832
V1    V     V_3+5 0.995770 0.877900 0.754830 1.548247
V2    V     V_3+5 0.004230 0.122100 0.245170 1.516306
V3    V     V_3+5 0.004230 0.377900 0.745170 1.548882
V4    V     V_3+5 0.995770 0.622100 0.254830 1.542469
C9    C     C_2   0.996604 0.083101 0.517901 0.137883
C10   C     C_2   0.003439 0.916917 0.482105 0.145366
C11   C     C_2   0.003308 0.583203 0.982095 0.144484
C12   C     C_2   0.996576 0.416837 0.017874 0.141655
C13   C     C_R   0.685543 0.893478 0.997373 0.793696
C14   C     C_R   0.324678 0.158133 0.925958 0.773556
C15   C     C_R   0.315053 0.387957 0.498206 0.786350
C16   C     C_R   0.675986 0.655040 0.575022 0.773194
O21   O     O_2   0.711862 0.823478 0.947638 -0.431746
O22   O     O_2   0.300733 0.234922 0.977699 -0.443484
O23   O     O_2   0.288185 0.313840 0.546284 -0.435011
O24   O     O_2   0.700202 0.731433 0.523530 -0.442984
N1    N     N_R   0.707881 0.997794 0.061267 -0.554335
N2    N     N_R   0.300285 0.041869 0.867663 -0.551252
N3    N     N_R   0.293052 0.493999 0.434724 -0.555456
N4    N     N_R   0.700110 0.539389 0.633636 -0.551575
C17   C     C_R   0.683196 0.155882 0.074571 0.779042
C18   C     C_R   0.326668 0.892971 0.848668 0.794475
C19   C     C_R   0.318233 0.650972 0.421411 0.781697
C20   C     C_R   0.673594 0.390829 0.652726 0.795653
C21   C     C_R   0.777824 0.056566 0.178199 0.370571
C22   C     C_R   0.218683 0.935850 0.783955 0.277768
C23   C     C_R   0.221154 0.564419 0.322783 0.281336
C24   C     C_R   0.781659 0.434287 0.717378 0.278166
C25   C     C_R   0.828254 0.043820 0.211804 0.227739
C26   C     C_R   0.167347 0.932764 0.776384 0.199343
C27   C     C_R   0.169961 0.559094 0.295016 0.211967
C28   C     C_R   0.832938 0.431723 0.724538 0.198547
C29   C     C_R   0.833967 0.781743 0.126851 -0.336922
C30   C     C_R   0.171800 0.240423 0.833333 -0.386654
C31   C     C_R   0.167375 0.273660 0.367257 -0.389679
C32   C     C_R   0.828307 0.739778 0.667984 -0.385613
C33   C     C_R   0.784022 0.794233 0.093495 0.407286
C34   C     C_R   0.222922 0.235348 0.847097 0.414836
C35   C     C_R   0.217437 0.287888 0.400111 0.413082
C36   C     C_R   0.777242 0.734178 0.654693 0.416446
C37   C     C_R   0.757145 0.954443 0.108248 0.171567
C38   C     C_R   0.247354 0.066434 0.835732 0.225660
C39   C     C_R   0.243375 0.453590 0.388844 0.206647
C40   C     C_R   0.752941 0.564755 0.665871 0.226734
C41   C     C_R   0.607193 0.020293 0.006191 -0.133814
C42   C     C_R   0.402437 0.046472 0.906314 -0.139531
C43   C     C_R   0.393719 0.514664 0.490584 -0.134725
C44   C     C_R   0.598076 0.543590 0.593952 -0.140075
C45   C     C_R   0.634327 0.882104 0.976891 -0.107934
C46   C     C_R   0.375584 0.180888 0.938253 -0.110272
C47   C     C_R   0.366271 0.376787 0.519552 -0.107065
C48   C     C_R   0.625132 0.677823 0.562263 -0.109856
C49   C     C_R   0.609658 0.732810 0.932490 0.229311
C50   C     C_R   0.400251 0.336177 0.978444 0.232053
C51   C     C_R   0.390726 0.227832 0.564385 0.230638
C52   C     C_R   0.600696 0.832929 0.521817 0.232964
C53   C     C_R   0.631855 0.159036 0.056933 -0.131941
C54   C     C_R   0.377716 0.904139 0.858079 -0.141969
C55   C     C_R   0.369483 0.652618 0.439216 -0.134910
C56   C     C_R   0.622534 0.401803 0.642642 -0.141472
C57   C     C_R   0.857083 0.911829 0.181948 -0.201450
C58   C     C_R   0.143695 0.086474 0.802363 -0.133042
C59   C     C_R   0.142871 0.413482 0.318774 -0.136978
C60   C     C_R   0.856437 0.585782 0.698392 -0.133269
H1    H     H_    0.854895 0.667609 0.110089 0.154373
H2    H     H_    0.153930 0.367109 0.845879 0.161632
H3    H     H_    0.147423 0.152151 0.379869 0.156249
H4    H     H_    0.846101 0.866764 0.655432 0.161656
C61   C     C_R   0.480663 0.907016 0.897040 -0.015324
C62   C     C_R   0.529095 0.166526 0.010949 -0.033609
C63   C     C_R   0.519682 0.403774 0.602086 -0.015170
C64   C     C_R   0.471993 0.661215 0.486996 -0.034091
C65   C     C_R   0.478232 0.183438 0.979823 0.059204
C66   C     C_R   0.531687 0.890231 0.927725 0.072931
C67   C     C_R   0.522662 0.679248 0.519148 0.058357
C68   C     C_R   0.468794 0.386138 0.570522 0.071514
C69   C     C_R   0.453916 0.044829 0.928192 -0.015886
C70   C     C_R   0.555921 0.027333 0.980627 -0.007401
C71   C     C_R   0.546670 0.541449 0.571307 -0.016006
C72   C     C_R   0.444897 0.522266 0.517001 -0.007650
C73   C     C_R   0.455410 0.800071 0.832313 0.344579
C74   C     C_R   0.553713 0.272718 0.076458 0.291725
C75   C     C_R   0.544536 0.297839 0.667284 0.344254
C76   C     C_R   0.447905 0.765792 0.420746 0.291359
C77   C     C_R   0.404588 0.782853 0.818850 0.265111
C78   C     C_R   0.604640 0.285421 0.092996 0.251943
C79   C     C_R   0.595364 0.280891 0.681580 0.265928
C80   C     C_R   0.397004 0.777697 0.403053 0.252447
O25   O     O_2   0.305345 0.726270 0.831789 -0.425921
O26   O     O_2   0.707897 0.314315 0.096653 -0.440284
O27   O     O_2   0.694834 0.224497 0.670380 -0.425333
O28   O     O_2   0.294210 0.810632 0.399747 -0.438776
C81   C     C_R   0.558309 0.729010 0.915402 0.377050
C82   C     C_R   0.451509 0.344257 0.991847 0.377365
C83   C     C_R   0.442074 0.224779 0.582489 0.376129
C84   C     C_R   0.549431 0.840386 0.507536 0.376620
O29   O     O_3   0.983553 0.240051 0.471745 -0.644819
H5    H     H_    0.975179 0.342911 0.504533 0.299494
O30   O     O_3   0.016518 0.759991 0.528262 -0.639019
H6    H     H_    0.024930 0.657193 0.495476 0.299085
O31   O     O_3   0.016186 0.740451 0.028267 -0.638784
H7    H     H_    0.024510 0.843472 0.995514 0.299995
O32   O     O_3   0.983630 0.259652 0.971693 -0.639474
H8    H     H_    0.975263 0.156720 0.004453 0.299233
O33   O     O_3   0.760564 0.641928 0.054229 -0.559391
H9    H     H_    0.784330 0.541909 0.050919 0.326645
O34   O     O_3   0.249039 0.398848 0.863429 -0.560820
H10   H     H_    0.226699 0.503302 0.867673 0.324793
O35   O     O_3   0.241972 0.133413 0.435266 -0.560619
H11   H     H_    0.218738 0.030464 0.437235 0.326736
O36   O     O_3   0.751029 0.897314 0.638702 -0.560783
H12   H     H_    0.773304 0.002180 0.634485 0.325286
Br1   Br    Br    0.644572 0.523632 0.900605 -0.365088
Br2   Br    Br    0.365466 0.544829 0.011177 -0.359345
Br3   Br    Br    0.355708 0.018106 0.595778 -0.363178
Br4   Br    Br    0.635793 0.041985 0.489979 -0.358397
O37   O     O_3   0.139746 0.787229 0.738699 -0.626611
H13   H     H_    0.160475 0.674718 0.742221 0.298519
O38   O     O_3   0.847368 0.157208 0.275292 -0.631164
H14   H     H_    0.877228 0.100123 0.306443 0.302842
O39   O     O_3   0.860638 0.286434 0.761960 -0.626584
H15   H     H_    0.839923 0.173731 0.758594 0.298248
O40   O     O_3   0.146300 0.689061 0.241890 -0.626954
H16   H     H_    0.166062 0.804503 0.247127 0.309136
O41   O     O_3   0.239587 0.839830 0.730401 -0.571118
H17   H     H_    0.214368 0.803224 0.684037 0.329042
O42   O     O_3   0.747101 0.148130 0.218368 -0.579551
H18   H     H_    0.765464 0.203073 0.268055 0.368654
O43   O     O_3   0.760923 0.338252 0.771144 -0.570369
H19   H     H_    0.786257 0.301694 0.817310 0.328789
O44   O     O_3   0.250275 0.653848 0.279207 -0.582288
H20   H     H_    0.231901 0.674067 0.224584 0.332913
Br5   Br    Br    0.373277 0.608506 0.738873 -0.308252
Br6   Br    Br    0.635283 0.457851 0.174225 -0.282200
Br7   Br    Br    0.626175 0.107352 0.762093 -0.310856
Br8   Br    Br    0.366812 0.946502 0.320162 -0.279000
Br9   Br    Br    0.486803 0.729428 0.747096 -0.366837
Br10  Br    Br    0.520828 0.345359 0.159837 -0.268816
Br11  Br    Br    0.512482 0.228946 0.751905 -0.369385
Br12  Br    Br    0.481705 0.837825 0.338400 -0.269062
O45   O     O_3   0.533191 0.565052 0.894119 -0.596451
H21   H     H_    0.554749 0.456979 0.909437 0.343085
O46   O     O_3   0.476375 0.509771 0.011026 -0.605365
H22   H     H_    0.454132 0.616611 0.997826 0.327697
O47   O     O_3   0.467154 0.061351 0.604508 -0.595951
H23   H     H_    0.445816 0.952895 0.588197 0.343249
O48   O     O_3   0.524551 0.005401 0.487754 -0.605895
H24   H     H_    0.546702 0.112648 0.501225 0.327859

loop_
_geom_bond_atom_site_label_1
_geom_bond_atom_site_label_2
_ccdc_geom_bond_type
O17   V3    S    
C81   O45   S    
O46   H22   S    
O1    C5    A    
O43   H19   S    
C62   C74   A    
C23   C27   A    
O19   V1    S    
C18   O25   S    
O13   V1    S    
O45   H21   S    
O3    C7    A    
C11   C12   D    
C76   C80   A    
C48   C52   A    
C21   C37   A    
C22   O41   S    
O37   H13   S    
C26   O37   S    
O4    V2    S    
O34   H10   S    
C68   C83   A    
C34   C38   A    
O47   H23   S    
O7    C3    A    
C25   C57   A    
C54   C77   A    
C32   C36   A    
O9    V1    S    
C53   C78   A    
O10   V2    S    
C14   O22   S    
N4    C20   A    
O16   V4    S    
O4    C8    A    
C29   H1    S    
C34   O34   S    
C78   Br6   S    
C52   Br4   S    
C76   Br12  S    
C31   H3    S    
O1    V3    S    
O2    V4    S    
O3    V1    S    
C1    O15   A    
O38   H14   S    
C2    O16   A    
C10   O30   S    
C24   C40   A    
O2    C6    A    
O40   H16   S    
C16   C48   A    
C52   C84   A    
O14   V2    S    
N1    C17   A    
C66   C81   A    
C11   O31   S    
C61   C66   A    
C73   C77   A    
C61   C69   A    
O11   C7    A    
C63   C68   A    
O15   V3    S    
C43   C72   A    
O12   C8    A    
C79   Br7   S    
C31   C59   A    
N4    C40   S    
C67   C84   A    
C1    C60   S    
C83   O47   S    
C29   C57   A    
C19   O28   S    
O5    V1    S    
C28   C60   A    
C65   C69   A    
C31   C35   A    
C64   C72   A    
O7    V3    S    
C30   C34   A    
N1    C37   S    
O8    V4    S    
C17   C53   A    
C4    C57   S    
C20   C56   A    
C32   H4    S    
C12   O32   S    
C19   C55   A    
C84   O48   S    
C21   C25   A    
O18   V4    S    
N3    C19   A    
C14   C46   A    
C7    C9    S    
C13   C45   A    
C64   C67   A    
C8    C10   S    
C44   C56   A    
C24   C28   A    
C49   C81   A    
C36   C40   A    
C15   C47   A    
C20   O27   S    
O5    C1    A    
C24   O43   S    
C23   O44   S    
C61   C73   A    
C46   C50   A    
O44   H20   S    
C22   C38   A    
C45   C49   A    
O8    C4    A    
C63   C75   A    
C9    O29   S    
C9    C10   D    
O9    C5    A    
C27   C59   A    
C42   C54   A    
O11   V3    S    
C26   C58   A    
C41   C53   A    
C55   C80   A    
C73   Br9   S    
C43   C55   A    
O6    V2    S    
C2    C59   S    
C64   C76   A    
C44   C71   A    
C30   H2    S    
O29   H5    S    
C75   Br11  S    
N3    C39   S    
C13   N1    A    
O30   H6    S    
C68   C72   A    
N2    C38   S    
C6    C12   S    
C15   N3    A    
O31   H7    S    
C22   C26   A    
C16   N4    A    
C74   C78   A    
C3    O13   A    
C41   C45   A    
C80   Br8   S    
C44   C48   A    
O6    C2    A    
C15   O23   S    
O36   H12   S    
C21   O42   S    
C5    C11   S    
C27   O40   S    
O12   V4    S    
C62   C65   A    
C63   C71   A    
O35   H11   S    
N2    C18   A    
C65   C82   A    
C62   C70   A    
O10   C6    A    
C56   C79   A    
C25   O38   S    
O20   V2    S    
O48   H24   S    
O39   H15   S    
C42   C69   A    
C51   Br3   S    
C74   Br10  S    
C3    C58   S    
C41   C70   A    
O33   H9    S    
C33   C37   A    
C30   C58   A    
C49   Br1   S    
C66   C70   A    
C35   C39   A    
C28   O39   S    
C13   O21   S    
C35   O35   S    
C23   C39   A    
C14   N2    A    
C18   C54   A    
C77   Br5   S    
C50   Br2   S    
C47   C51   A    
C17   O26   S    
C29   C33   A    
C16   O24   S    
C75   C79   A    
C82   O46   S    
C42   C46   A    
C4    O14   A    
O42   H18   S    
C32   C60   A    
C36   O36   S    
C67   C71   A    
C51   C83   A    
O41   H17   S    
C43   C47   A    
C50   C82   A    
C33   O33   S    
O32   H8    S    
