data_mof_unit_46471.cif
_audit_creation_date              2013-03-05T16:23:16-0500
_audit_creation_method            fapswitch 2.2
_symmetry_space_group_name_H-M    P1
_symmetry_Int_Tables_number       1
_space_group_crystal_system       triclinic
_cell_length_a                    27.584317
_cell_length_b                    10.462225
_cell_length_c                    9.790039
_cell_angle_alpha                 90.531654
_cell_angle_beta                  90.805435
_cell_angle_gamma                 90.051986
_cell_volume                      2824.93766508

loop_
_atom_site_label
_atom_site_type_symbol
_atom_site_description
_atom_site_fract_x
_atom_site_fract_y
_atom_site_fract_z
_atom_type_partial_charge
O1    O     O_R   0.500000 0.313960 0.616610 -0.573490
O2    O     O_R   0.500000 0.686040 0.383390 -0.573501
O3    O     O_R   0.500020 0.313950 0.383350 -0.594030
O4    O     O_R   0.499980 0.686050 0.616650 -0.594055
C1    C     C_R   0.500015 0.257661 0.499316 0.852360
C2    C     C_R   0.499986 0.742339 0.500683 0.852369
O5    O     O_R   0.428750 0.500030 0.616610 -0.619071
O6    O     O_R   0.571250 0.499970 0.383390 -0.619117
O7    O     O_R   0.428770 0.500020 0.383360 -0.569545
O8    O     O_R   0.571230 0.499980 0.616640 -0.569454
C3    C     C_R   0.406046 0.501312 0.498937 0.869007
C4    C     C_R   0.593950 0.498682 0.501063 0.868775
Zn1   Zn    Zn3+2 0.499990 0.500010 0.655740 1.037493
Zn2   Zn    Zn3+2 0.500010 0.499990 0.344260 1.037477
C5    C     C_R   0.176535 0.369205 0.526119 0.606277
C6    C     C_R   0.823463 0.630464 0.473886 0.605827
O9    O     O_2   0.201310 0.274271 0.588037 -0.553940
O10   O     O_2   0.798695 0.725450 0.412037 -0.554264
N1    N     N_R   0.201012 0.464933 0.463129 -0.328535
N2    N     N_R   0.798979 0.534720 0.536825 -0.328385
C7    C     C_R   0.177430 0.558764 0.392779 0.510845
C8    C     C_R   0.822552 0.440829 0.607101 0.511701
C9    C     C_R   0.273443 0.532851 0.590794 0.495019
C10   C     C_R   0.726545 0.466303 0.409514 0.495079
C11   C     C_R   0.323923 0.547190 0.600091 0.310522
C12   C     C_R   0.676058 0.452098 0.400222 0.310204
C13   C     C_R   0.330927 0.436510 0.380226 -0.234910
C14   C     C_R   0.669066 0.563973 0.619423 -0.235003
C15   C     C_R   0.281006 0.424322 0.371489 -0.169909
C16   C     C_R   0.718990 0.576058 0.628144 -0.170178
C17   C     C_R   0.252416 0.471344 0.476505 0.138238
C18   C     C_R   0.747576 0.528361 0.523455 0.138803
C19   C     C_R   0.100879 0.473686 0.468665 -0.062257
C20   C     C_R   0.899109 0.525877 0.531219 -0.062217
C21   C     C_R   0.125769 0.370669 0.527853 -0.087685
C22   C     C_R   0.874228 0.628955 0.472120 -0.087303
C23   C     C_R   0.099698 0.269372 0.582125 -0.265632
C24   C     C_R   0.900307 0.730261 0.417895 -0.265870
C25   C     C_R   0.126888 0.565383 0.394910 -0.008157
C26   C     C_R   0.873093 0.434160 0.604929 -0.008607
C27   C     C_R   0.353009 0.496815 0.493929 -0.217193
C28   C     C_R   0.646981 0.503126 0.506057 -0.216781
H1    H     H_    0.352393 0.396981 0.298192 0.213706
H2    H     H_    0.647596 0.603996 0.701185 0.213485
H3    H     H_    0.264394 0.378420 0.282934 0.181315
H4    H     H_    0.735609 0.622394 0.716436 0.181153
H5    H     H_    0.119204 0.184476 0.612345 0.178551
H6    H     H_    0.880807 0.815188 0.387736 0.178409
C29   C     C_R   0.974133 0.408174 0.576200 0.083810
C30   C     C_R   0.025849 0.591330 0.423618 0.083807
C31   C     C_R   0.975825 0.611108 0.448146 -0.050263
C32   C     C_R   0.024164 0.388421 0.551721 -0.050304
C33   C     C_R   0.949861 0.514743 0.517587 0.003554
C34   C     C_R   0.050125 0.484785 0.482265 0.003501
C35   C     C_R   0.947924 0.329669 0.665722 -0.148710
C36   C     C_R   0.052050 0.669803 0.334043 -0.148503
C37   C     C_R   0.898056 0.339609 0.676299 -0.175344
C38   C     C_R   0.101918 0.659876 0.323467 -0.175237
O11   O     O_2   0.797016 0.352940 0.676172 -0.573027
O12   O     O_2   0.202959 0.646666 0.323705 -0.572985
C39   C     C_R   0.048758 0.273191 0.588450 0.441185
C40   C     C_R   0.951247 0.726387 0.411510 0.441288
H7    H     H_    0.879244 0.273515 0.741681 0.189128
H8    H     H_    0.120725 0.725947 0.258049 0.189078
H9    H     H_    0.965391 0.262591 0.732873 0.186168
H10   H     H_    0.034575 0.736862 0.266874 0.186212
C41   C     C_3   0.539781 0.043368 0.566538 -0.154993
C42   C     C_3   0.460222 0.956632 0.433462 -0.154936
C43   C     C_3   0.540047 0.956828 0.437977 -0.197663
C44   C     C_3   0.459955 0.043172 0.562023 -0.197613
H11   H     H_    0.572585 0.916598 0.387834 0.152337
H12   H     H_    0.427418 0.083402 0.612166 0.152367
H13   H     H_    0.572092 0.083786 0.620378 0.164867
H14   H     H_    0.427911 0.916216 0.379621 0.164894
C45   C     C_3   0.499988 0.877479 0.501928 0.014011
C46   C     C_3   0.500014 0.122521 0.498071 0.014027
C47   C     C_3   0.499721 0.961274 0.630653 -0.105945
C48   C     C_3   0.500282 0.038727 0.369347 -0.105904
H15   H     H_    0.499481 0.925601 0.737116 0.179785
H16   H     H_    0.500522 0.074399 0.262884 0.179797
C49   C     C_3   0.477837 0.402129 0.045499 0.411363
C50   C     C_3   0.522164 0.597871 0.954501 0.411362
C51   C     C_3   0.521212 0.400800 0.952527 0.425170
C52   C     C_3   0.478788 0.599200 0.047473 0.425075
N3    N     N_3   0.499960 0.500030 0.863290 -0.112607
N4    N     N_3   0.500040 0.499970 0.136710 -0.112606
C53   C     C_3   0.455562 0.501377 0.949121 -0.357385
C54   C     C_3   0.544438 0.498623 0.050879 -0.357229
H17   H     H_    0.418689 0.502494 0.902283 0.211333
H18   H     H_    0.581311 0.497497 0.097722 0.211111
O13   O     O_3   0.543345 0.292928 0.895907 -0.730886
H19   H     H_    0.554367 0.241432 0.974910 0.329241
O14   O     O_3   0.456655 0.707071 0.104093 -0.730904
H20   H     H_    0.445632 0.758566 0.025090 0.329193
O15   O     O_3   0.454677 0.295720 0.100112 -0.746891
H21   H     H_    0.443255 0.244670 0.020157 0.329478
O16   O     O_3   0.545323 0.704280 0.899888 -0.746930
H22   H     H_    0.556744 0.755331 0.979844 0.329450
O17   O     O_3   0.657010 0.386726 0.288776 -0.749077
H23   H     H_    0.627858 0.339660 0.318047 0.331056
O18   O     O_3   0.342956 0.612054 0.711885 -0.748795
H24   H     H_    0.372012 0.659612 0.682748 0.331020
O19   O     O_3   0.755972 0.422511 0.305841 -0.577034
C55   C     C_3   0.763734 0.289810 0.320935 0.123848
H25   H     H_    0.733046 0.235680 0.273567 0.193797
H26   H     H_    0.767769 0.260748 0.429856 0.151583
C56   C     C_3   0.810137 0.252796 0.248415 -0.792005
H27   H     H_    0.841428 0.304965 0.295057 0.249966
H28   H     H_    0.816457 0.148428 0.258098 0.212227
H29   H     H_    0.807219 0.276990 0.138376 0.274088
O20   O     O_3   0.244032 0.575926 0.694828 -0.576623
C57   C     C_3   0.236038 0.708575 0.680249 0.122749
H30   H     H_    0.231464 0.737676 0.571503 0.151469
H31   H     H_    0.266861 0.762944 0.726581 0.193437
C58   C     C_3   0.189929 0.745070 0.754495 -0.791136
H32   H     H_    0.193382 0.720760 0.864398 0.274445
H33   H     H_    0.183428 0.849391 0.745195 0.211916
H34   H     H_    0.158506 0.692671 0.708895 0.249873
O21   O     O_3   0.022052 0.160985 0.604295 -0.619146
C59   C     C_3   0.041744 0.079801 0.705703 0.078721
H35   H     H_    0.055172 0.134796 0.796769 0.131959
H36   H     H_    0.071512 0.021276 0.662283 0.167265
C60   C     C_3   0.002687 0.987717 0.752350 -0.786950
H37   H     H_    0.988567 0.930910 0.664006 0.296868
H38   H     H_    0.018170 0.921416 0.829390 0.202170
H39   H     H_    0.972304 0.041148 0.799208 0.233879
O22   O     O_3   0.977989 0.838537 0.395635 -0.619293
C61   C     C_3   0.958197 0.920098 0.294736 0.078986
H40   H     H_    0.928580 0.978735 0.338794 0.167469
H41   H     H_    0.944533 0.865422 0.203729 0.131988
C62   C     C_3   0.997266 0.011965 0.247708 -0.786877
H42   H     H_    0.027446 0.958388 0.200016 0.233652
H43   H     H_    0.981692 0.078712 0.171261 0.202282
H44   H     H_    0.011688 0.068300 0.336009 0.296972

loop_
_geom_bond_atom_site_label_1
_geom_bond_atom_site_label_2
_geom_bond_distance
_ccdc_geom_bond_type
O18   H24   0.989758 S    
C39   O21   1.396373 S    
O15   H21   0.991083 S    
C41   C47   1.542897 S    
C52   C53   1.532380 S    
C62   H44   1.110583 S    
N1    C17   1.423615 S    
C61   H40   1.111637 S    
C55   H26   1.115639 S    
O16   H22   0.991082 S    
C60   H37   1.110647 S    
C42   C45   1.526298 S    
C5    N1    1.364236 A    
C19   C25   1.408066 A    
O1    C1    1.285693 A    
C46   C48   1.528573 S    
C21   C23   1.393719 A    
C10   C12   1.401993 A    
C32   C39   1.430253 A    
C40   O22   1.396428 S    
C49   O15   1.397395 S    
C48   H16   1.110441 S    
C60   H38   1.110687 S    
C13   C15   1.384167 A    
C42   H14   1.110401 S    
C58   H32   1.110710 S    
C14   C28   1.405460 A    
O4    Zn1   1.987137 S    
C43   H11   1.110370 S    
C57   H30   1.115515 S    
C4    C28   1.463633 S    
C35   H9    1.075689 S    
O20   C57   1.413623 S    
C32   C34   1.420120 A    
C58   H33   1.110592 S    
C56   H27   1.111242 S    
C36   H10   1.075763 S    
C43   C45   1.526312 S    
C41   H13   1.110399 S    
C23   H5    1.080374 S    
C24   H6    1.080394 S    
C49   N4    1.478799 S    
C50   C54   1.532651 S    
C59   C60   1.522331 S    
O6    C4    1.303629 A    
C12   O17   1.379727 S    
C29   C32   1.419004 A    
N3    C53   1.494951 S    
C51   C54   1.532382 S    
C44   C47   1.542887 S    
C38   H8    1.083530 S    
C56   H28   1.110610 S    
C43   C48   1.542889 S    
O2    C2    1.285692 A    
C31   C40   1.430231 A    
C5    C21   1.400788 A    
C55   H25   1.111568 S    
C49   C51   1.513495 S    
C59   H36   1.111644 S    
C37   H7    1.083530 S    
C47   H15   1.110441 S    
C42   C48   1.542894 S    
N4    C54   1.494949 S    
C2    C45   1.413812 S    
Zn2   N4    2.031932 S    
C7    O12   1.350084 S    
O4    C2    1.283811 A    
C11   C27   1.419760 A    
C8    O11   1.350073 S    
C60   H39   1.110070 S    
O3    C1    1.283809 A    
C29   C35   1.412610 A    
C25   C38   1.393377 A    
C14   H2    1.083679 S    
C30   C36   1.412625 A    
C15   H3    1.083020 S    
C31   C33   1.420096 A    
C9    C17   1.403621 A    
O5    C3    1.303684 A    
O7    Zn2   2.007314 S    
C10   C18   1.403601 A    
O7    C3    1.301183 A    
C13   C27   1.405499 A    
O17   H23   0.989753 S    
C7    C25   1.396376 A    
C6    N2    1.364216 A    
C58   H34   1.111248 S    
C8    C26   1.396386 A    
C30   C31   1.418965 A    
O14   H20   0.991125 S    
C30   C34   1.422330 A    
C55   C56   1.521114 S    
C45   C47   1.528574 S    
C49   C53   1.532646 S    
O3    Zn2   1.987139 S    
O8    C4    1.301133 A    
C57   H31   1.111603 S    
C42   C44   1.543708 S    
C51   N3    1.479268 S    
C54   H18   1.109951 S    
C50   C52   1.513497 S    
C35   C37   1.384863 A    
C44   C46   1.526310 S    
C56   H29   1.110746 S    
C20   C26   1.408068 A    
O1    Zn1   1.980347 S    
C62   H42   1.110040 S    
C61   C62   1.522321 S    
O13   H19   0.991125 S    
C51   O13   1.397434 S    
C59   H35   1.115306 S    
C12   C28   1.419778 A    
N2    C18   1.423558 S    
C19   C34   1.412974 A    
C5    O9    1.349718 S    
O6    Zn2   1.996809 S    
C26   C37   1.393361 A    
N1    C7    1.364658 A    
C16   H4    1.083038 S    
N2    C8    1.364633 A    
C62   H43   1.110651 S    
O8    Zn1   2.007317 S    
C61   H41   1.115261 S    
C23   C39   1.407968 A    
O21   C59   1.415434 S    
C50   N3    1.478802 S    
C9    O20   1.383471 S    
C10   O19   1.383541 S    
C1    C46   1.413810 S    
C53   H17   1.109939 S    
C14   C16   1.384176 A    
C15   C17   1.391071 A    
C6    C22   1.400780 A    
C16   C18   1.391102 A    
C19   C21   1.403754 A    
C11   O18   1.379664 S    
C29   C33   1.422358 A    
C22   C24   1.393718 A    
C50   O16   1.397395 S    
C36   C38   1.384852 A    
C3    C27   1.463821 S    
C20   C22   1.403768 A    
C52   O14   1.397434 S    
C9    C11   1.401954 A    
O2    Zn2   1.980345 S    
C13   H1    1.083650 S    
O5    Zn1   1.996804 S    
C20   C33   1.412980 A    
C6    O10   1.349720 S    
Zn1   N3    2.031931 S    
O19   C55   1.413733 S    
C52   N4    1.479266 S    
C44   H12   1.110371 S    
C41   C46   1.526300 S    
C41   C43   1.543709 S    
C57   C58   1.521038 S    
O22   C61   1.415374 S    
C24   C40   1.408019 A    
