data_mof_unit_38906.cif
_audit_creation_date              2012-12-10T18:57:50-0500
_audit_creation_method            fapswitch 2.2
_symmetry_space_group_name_H-M    P1
_symmetry_Int_Tables_number       1
_space_group_crystal_system       triclinic
_cell_length_a                    10.835121
_cell_length_b                    9.93264
_cell_length_c                    8.873661
_cell_angle_alpha                 89.997046
_cell_angle_beta                  92.126083
_cell_angle_gamma                 89.993566
_cell_volume                      954.338013727

loop_
_atom_site_label
_atom_site_type_symbol
_atom_type_description
_atom_site_fract_x
_atom_site_fract_y
_atom_site_fract_z
_atom_type_partial_charge
C1    C     C_R   0.259959 0.500549 0.498533 0.880472
C2    C     C_R   0.062282 0.625813 0.520622 0.110457
C3    C     C_R   0.872849 0.503329 0.501984 -0.116614
C4    C     C_R   0.127086 0.503266 0.498544 -0.118089
C5    C     C_R   0.560833 0.070504 0.612309 0.305119
C6    C     C_R   0.433820 0.927779 0.392312 0.312137
C7    C     C_R   0.439099 0.070568 0.387743 0.305777
C8    C     C_R   0.566208 0.927732 0.607647 0.313037
C9    C     C_3   0.097381 0.265788 0.379538 -0.364248
C10   C     C_3   0.110008 0.312764 0.216643 -0.730395
C11   C     C_3   0.883607 0.748926 0.395728 -0.391498
C12   C     C_R   0.740012 0.500555 0.501552 0.880277
C13   C     C_3   0.837140 0.714624 0.235308 -0.759040
C14   C     C_3   0.902004 0.267854 0.625922 -0.363357
C15   C     C_3   0.887058 0.317374 0.787493 -0.731000
C16   C     C_3   0.115982 0.750450 0.600205 -0.391646
C17   C     C_3   0.162094 0.718501 0.761383 -0.757811
C18   C     C_R   0.499645 0.500010 0.218971 0.920558
C19   C     C_R   0.500353 0.500006 0.781028 0.920099
C20   C     C_1   0.499878 0.500032 0.065516 -0.114505
C21   C     C_1   0.500138 0.500027 0.934484 -0.114527
C22   C     C_R   0.059493 0.382895 0.477481 0.066418
C23   C     C_R   0.937551 0.625474 0.477465 0.110195
C24   C     C_R   0.940489 0.383442 0.526223 0.065645
Cl1   Cl    Cl    0.629561 0.151286 0.769533 -0.542471
Cl2   Cl    Cl    0.339245 0.841132 0.258901 -0.540596
Cl3   Cl    Cl    0.369815 0.151567 0.230991 -0.542357
Cl4   Cl    Cl    0.661035 0.841023 0.740772 -0.540327
H1    H     H_    0.123175 0.224592 0.142101 0.282810
H2    H     H_    0.955601 0.827128 0.381971 0.201090
H3    H     H_    0.873722 0.230320 0.863599 0.282428
H4    H     H_    0.971406 0.372044 0.828125 0.228821
H5    H     H_    0.806326 0.385741 0.793712 0.264239
H6    H     H_    0.974956 0.189027 0.631977 0.192869
H7    H     H_    0.818681 0.215873 0.580154 0.258168
H8    H     H_    0.084984 0.678731 0.827524 0.249182
H9    H     H_    0.237673 0.643321 0.763852 0.250047
H10   H     H_    0.197452 0.811910 0.816503 0.271125
H11   H     H_    0.188700 0.799123 0.534741 0.253598
H12   H     H_    0.024778 0.366011 0.176349 0.228720
H13   H     H_    0.043932 0.828878 0.612266 0.200463
H14   H     H_    0.190004 0.381773 0.207619 0.265058
H15   H     H_    0.024831 0.186510 0.376435 0.191928
H16   H     H_    0.181449 0.214790 0.424689 0.257686
H17   H     H_    0.914053 0.673673 0.169691 0.248710
H18   H     H_    0.761491 0.639632 0.234568 0.249101
H19   H     H_    0.801747 0.807245 0.178480 0.272224
H20   H     H_    0.810989 0.798558 0.460551 0.252822
N1    N     N_R   0.500000 0.857200 0.500000 -0.191857
N2    N     N_R   0.500000 0.142800 0.500000 -0.190911
O1    O     O_R   0.316770 0.614620 0.499990 -0.593938
O2    O     O_R   0.683230 0.385380 0.500010 -0.612103
O3    O     O_R   0.683230 0.614620 0.500010 -0.593646
O4    O     O_R   0.316770 0.385380 0.499990 -0.611716
O5    O     O_R   0.500010 0.614640 0.285340 -0.568448
O6    O     O_R   0.499990 0.385360 0.714660 -0.556644
O7    O     O_R   0.499990 0.614640 0.714660 -0.568646
O8    O     O_R   0.500010 0.385360 0.285340 -0.556576
Zn1   Zn    Zn3+2 0.500000 0.653120 0.500000 1.036587
Zn2   Zn    Zn3+2 0.500000 0.346880 0.500000 1.035101

loop_
_geom_bond_atom_site_label_1
_geom_bond_atom_site_label_2
_ccdc_geom_bond_type
C19   O6    A    
C14   H6    S    
C5    C8    A    
C2    C4    A    
C1    O4    A    
C15   H3    S    
C6    C7    A    
C17   H8    S    
O5    Zn1   S    
C10   H14   S    
C2    C16   S    
C9    C10   S    
C3    C23   A    
C12   O3    A    
N1    Zn1   S    
C1    C4    S    
N2    Zn2   S    
C2    C23   A    
O3    Zn1   S    
C7    Cl3   S    
C15   H4    S    
O4    Zn2   S    
C19   O7    A    
C13   H17   S    
C1    O1    A    
C10   H1    S    
C11   H20   S    
C6    Cl2   S    
C18   O5    A    
C5    Cl1   S    
C16   H13   S    
C11   C23   S    
C19   C21   S    
C15   H5    S    
O1    Zn1   S    
C18   C20   S    
C17   H10   S    
C6    N1    A    
C13   H18   S    
C8    Cl4   S    
C22   C24   A    
C9    C22   S    
C9    H15   S    
O7    Zn1   S    
C16   H11   S    
O8    Zn2   S    
C5    N2    A    
C11   C13   S    
C4    C22   A    
C20   C21   T    
C7    N2    A    
C10   H12   S    
C14   C24   S    
C14   H7    S    
C13   H19   S    
C14   C15   S    
C9    H16   S    
C17   H9    S    
C3    C12   S    
O2    Zn2   S    
C12   O2    A    
C8    N1    A    
C18   O8    A    
O6    Zn2   S    
C11   H2    S    
C3    C24   A    
C16   C17   S    
