data_mof_unit_40114.cif
_audit_creation_date              2012-12-10T17:11:32-0500
_audit_creation_method            fapswitch 2.2
_symmetry_space_group_name_H-M    P1
_symmetry_Int_Tables_number       1
_space_group_crystal_system       triclinic
_cell_length_a                    15.011918
_cell_length_b                    12.939208
_cell_length_c                    11.748489
_cell_angle_alpha                 99.619003
_cell_angle_beta                  92.331061
_cell_angle_gamma                 93.176181
_cell_volume                      2243.62187251

loop_
_atom_site_label
_atom_site_type_symbol
_atom_type_description
_atom_site_fract_x
_atom_site_fract_y
_atom_site_fract_z
_atom_type_partial_charge
C1    C     C_R   0.509280 0.300463 0.478153 0.796304
C2    C     C_R   0.492002 0.700060 0.521421 0.809170
C3    C     C_R   0.031816 0.307961 0.487552 -0.204130
C4    C     C_R   0.968003 0.691384 0.512288 -0.204165
C5    C     C_R   0.478836 0.813925 0.532921 -0.186696
C6    C     C_R   0.524394 0.187268 0.463539 -0.200834
C7    C     C_R   0.502722 0.016060 0.342980 -0.232793
C8    C     C_R   0.494500 0.986901 0.650536 -0.185999
C9    C     C_R   0.517857 0.124118 0.352114 -0.027251
C10   C     C_R   0.478085 0.878718 0.642803 -0.050584
C11   C     C_R   0.538086 0.138921 0.561631 -0.040071
C12   C     C_R   0.473380 0.860624 0.432354 -0.041241
C13   C     C_R   0.511192 0.031552 0.552179 0.095182
C14   C     C_R   0.494918 0.969063 0.441589 0.054799
C15   C     C_R   0.396792 0.424641 0.031952 -0.071873
C16   C     C_R   0.586035 0.605257 0.971559 -0.069922
C17   C     C_R   0.411203 0.426950 0.150883 -0.007995
C18   C     C_R   0.575734 0.592751 0.850805 -0.003321
C19   C     C_R   0.543730 0.536503 0.153960 0.170854
C20   C     C_R   0.462420 0.456888 0.846162 0.151060
C21   C     C_R   0.531611 0.540173 0.033032 -0.020034
C22   C     C_R   0.462262 0.473637 0.969574 -0.013273
C23   C     C_R   0.329118 0.497085 0.501076 0.803256
C24   C     C_R   0.670822 0.502366 0.498851 0.801152
C25   C     C_R   0.818786 0.599952 0.503088 -0.045889
C26   C     C_R   0.181050 0.399725 0.499635 -0.057130
C27   C     C_R   0.767157 0.504534 0.496212 -0.063433
C28   C     C_R   0.232679 0.494791 0.503494 -0.080388
C29   C     C_R   0.807143 0.409253 0.489442 -0.262374
C30   C     C_R   0.192499 0.589652 0.506799 -0.268989
C31   C     C_R   0.899614 0.406728 0.490446 0.123815
C32   C     C_R   0.100080 0.592307 0.506804 0.124819
C33   C     C_R   0.952991 0.501086 0.497929 0.050518
C34   C     C_R   0.046726 0.498102 0.500428 0.052146
C35   C     C_R   0.912845 0.598352 0.503813 0.073643
C36   C     C_R   0.086927 0.401062 0.496344 0.075354
C37   C     C_R   0.939336 0.310994 0.484802 -0.203568
C38   C     C_R   0.060411 0.688085 0.512768 -0.209616
Cu1   Cu    Cu3+1 0.506660 0.507730 0.615930 0.934137
Cu2   Cu    Cu3+1 0.493340 0.492270 0.384070 0.950500
H1    H     H_    0.765774 0.336969 0.484637 0.114161
H2    H     H_    0.233660 0.661649 0.508994 0.113647
H3    H     H_    0.898732 0.238125 0.478450 0.144367
H4    H     H_    0.101028 0.760875 0.518495 0.140699
H5    H     H_    0.059410 0.231915 0.482111 0.163601
H6    H     H_    0.940568 0.767568 0.518818 0.163283
H7    H     H_    0.497452 0.969783 0.257384 0.195813
H8    H     H_    0.490309 0.036772 0.733568 0.203250
H9    H     H_    0.615218 0.642673 0.804052 0.126180
H10   H     H_    0.362470 0.388584 0.197904 0.125593
N1    N     N_R   0.516670 0.519360 0.790130 -0.227467
N2    N     N_R   0.483330 0.480640 0.209870 -0.222876
O1    O     O_R   0.504720 0.354460 0.582000 -0.615207
O2    O     O_R   0.495280 0.645540 0.418000 -0.594040
O3    O     O_R   0.493480 0.341410 0.386200 -0.563603
O4    O     O_R   0.506520 0.658590 0.613800 -0.568336
O5    O     O_R   0.375880 0.506510 0.597910 -0.602823
O6    O     O_R   0.624120 0.493490 0.402090 -0.590286
O7    O     O_R   0.364640 0.493450 0.402110 -0.590827
O8    O     O_R   0.635360 0.506550 0.597890 -0.594680
C39   C     C_R   0.774842 0.700714 0.512735 0.068363
C40   C     C_R   0.771573 0.754802 0.418674 -0.159172
C41   C     C_R   0.737727 0.854297 0.431124 -0.130500
C42   C     C_R   0.708059 0.900663 0.537728 -0.094317
C43   C     C_R   0.709390 0.846360 0.631057 -0.119514
C44   C     C_R   0.742583 0.746491 0.618706 -0.147152
H11   H     H_    0.797025 0.720847 0.336753 0.175835
H12   H     H_    0.736049 0.896275 0.358805 0.161196
H13   H     H_    0.684791 0.979033 0.548172 0.154237
H14   H     H_    0.685889 0.882270 0.713361 0.146434
H15   H     H_    0.745451 0.706094 0.692274 0.124418
C45   C     C_R   0.224984 0.299748 0.498581 0.064730
C46   C     C_R   0.258847 0.247983 0.396344 -0.132294
C47   C     C_R   0.292306 0.148866 0.392910 -0.132534
C48   C     C_R   0.293158 0.101671 0.491601 -0.110804
C49   C     C_R   0.261130 0.153744 0.594218 -0.107686
C50   C     C_R   0.226384 0.252148 0.597594 -0.168938
H16   H     H_    0.257136 0.283096 0.318888 0.121791
H17   H     H_    0.316582 0.108042 0.313427 0.126938
H18   H     H_    0.317920 0.024396 0.488389 0.127039
H19   H     H_    0.262029 0.117197 0.670635 0.147603
H20   H     H_    0.199740 0.290862 0.676782 0.169828
C51   C     C_2   0.307257 0.382062 0.982219 0.364758
H21   H     H_    0.273536 0.317561 0.015093 0.061112
O9    O     O_2   0.267929 0.422836 0.909946 -0.575421
C52   C     C_2   0.649969 0.693089 0.025146 0.371999
H22   H     H_    0.712093 0.706704 0.984210 0.060393
O10   O     O_2   0.631583 0.755526 0.109346 -0.541556
C53   C     C_2   0.435222 0.797743 0.321847 0.349058
H23   H     H_    0.370084 0.756516 0.320038 0.062215
O11   O     O_2   0.478311 0.785231 0.235441 -0.552484
C54   C     C_2   0.594675 0.195843 0.663671 0.372543
H24   H     H_    0.621204 0.275676 0.665676 0.105182
O12   O     O_2   0.619450 0.152204 0.742690 -0.585427
C55   C     C_R   0.452683 0.838148 0.749206 0.140844
C56   C     C_R   0.500141 0.874178 0.855500 -0.205594
C57   C     C_R   0.472292 0.841058 0.956365 -0.104079
C58   C     C_R   0.398330 0.769786 0.951974 -0.099897
C59   C     C_R   0.350686 0.733487 0.847057 -0.136504
C60   C     C_R   0.376657 0.768835 0.746571 -0.081243
H25   H     H_    0.558241 0.928541 0.860623 0.151839
H26   H     H_    0.508118 0.870924 0.037953 0.202816
H27   H     H_    0.377520 0.743170 0.029880 0.170594
H28   H     H_    0.292971 0.678883 0.843774 0.158770
H29   H     H_    0.337576 0.742148 0.666630 0.097342
C61   C     C_R   0.533490 0.166338 0.243697 0.160565
C62   C     C_R   0.611378 0.229649 0.234863 -0.078129
C63   C     C_R   0.627193 0.267749 0.132481 -0.133126
C64   C     C_R   0.566553 0.241286 0.037295 -0.065733
C65   C     C_R   0.489950 0.176679 0.044320 -0.127611
C66   C     C_R   0.473278 0.139421 0.146929 -0.207040
H30   H     H_    0.659515 0.249847 0.307487 0.103808
H31   H     H_    0.686644 0.317534 0.126836 0.167661
H32   H     H_    0.578927 0.270930 0.958181 0.185735
H33   H     H_    0.443294 0.155496 0.970358 0.177276
H34   H     H_    0.413533 0.089561 0.150706 0.119046
C67   C     C_2   0.414025 0.362864 0.778064 0.450707
H35   H     H_    0.372072 0.368469 0.703283 0.131578
O13   O     O_2   0.421545 0.276577 0.805130 -0.620447
C68   C     C_2   0.625691 0.584066 0.218330 0.497565
H36   H     H_    0.622278 0.645847 0.292106 0.133778
O14   O     O_2   0.698329 0.553619 0.189560 -0.603981

loop_
_geom_bond_atom_site_label_1
_geom_bond_atom_site_label_2
_ccdc_geom_bond_type
Cu1   N1    S    
C16   C21   A    
C27   C29   A    
C26   C45   S    
C62   H30   S    
C55   C56   A    
C24   C27   S    
C6    C9    A    
C57   C58   A    
C4    H6    S    
C23   O7    A    
C60   H29   S    
C8    C13   A    
C40   H11   S    
C50   H20   S    
C19   C21   A    
C20   N1    A    
C67   O13   D    
C52   O10   D    
C61   C62   A    
C39   C44   A    
C43   H14   S    
Cu1   O5    S    
C63   C64   A    
C23   O5    A    
C46   C47   A    
C1    O1    A    
C65   C66   A    
C11   C54   S    
C15   C22   A    
C51   H21   S    
C62   C63   A    
C31   C33   A    
C66   H34   S    
C32   C38   A    
C53   O11   D    
C48   H18   S    
C57   H26   S    
C59   H28   S    
C4    C35   A    
Cu2   O7    S    
C13   C14   A    
C16   C52   S    
C19   N2    A    
C17   N2    A    
C20   C67   S    
C68   O14   D    
C18   N1    A    
C61   C66   A    
C7    C14   A    
Cu2   O6    S    
C47   C48   A    
C1    C6    S    
C24   O6    A    
C12   C53   S    
C56   H25   S    
C49   C50   A    
C5    C12   A    
C2    O2    A    
Cu1   Cu2   S    
C55   C60   A    
C15   C51   S    
C9    C61   S    
Cu2   N2    S    
C46   H16   S    
C3    H5    S    
C31   C37   A    
C7    H7    S    
C63   H31   S    
C37   H3    S    
C48   C49   A    
C8    H8    S    
C44   H15   S    
C38   H4    S    
C45   C50   A    
C59   C60   A    
C24   O8    A    
Cu2   O3    S    
C56   C57   A    
C40   C41   A    
C54   O12   D    
C33   C34   A    
Cu1   O4    S    
C25   C39   S    
C42   H13   S    
C64   H32   S    
C25   C35   A    
C8    C10   A    
C51   O9    D    
C12   C14   A    
C19   C68   S    
C43   C44   A    
Cu2   O2    S    
C47   H17   S    
C2    C5    S    
C23   C28   S    
C6    C11   A    
C68   H36   S    
C26   C36   A    
C15   C17   A    
C41   H12   S    
C29   H1    S    
C52   H22   S    
C20   C22   A    
C45   C46   A    
C17   H10   S    
C25   C27   A    
C26   C28   A    
C49   H19   S    
C3    C36   A    
C42   C43   A    
C28   C30   A    
C1    O3    A    
C5    C10   A    
C29   C31   A    
C2    O4    A    
C67   H35   S    
C30   C32   A    
C11   C13   A    
Cu1   O1    S    
C10   C55   S    
Cu1   O8    S    
C54   H24   S    
C33   C35   A    
C34   C36   A    
C39   C40   A    
C41   C42   A    
C7    C9    A    
C3    C37   A    
C16   C18   A    
C58   C59   A    
C64   C65   A    
C30   H2    S    
C4    C38   A    
C53   H23   S    
C21   C22   A    
C65   H33   S    
C58   H27   S    
C18   H9    S    
C32   C34   A    
