data_mof_unit_57817.cif
_audit_creation_date              2012-10-26T20:03:43-0400
_audit_creation_method            fapswitch 2.2
_symmetry_space_group_name_H-M    P1
_symmetry_Int_Tables_number       1
_space_group_crystal_system       triclinic
_cell_length_a                    12.412535
_cell_length_b                    13.134118
_cell_length_c                    15.818275
_cell_angle_alpha                 76.117525
_cell_angle_beta                  100.88255
_cell_angle_gamma                 117.267827
_cell_volume                      2215.97343087

loop_
_atom_site_label
_atom_site_type_symbol
_atom_type_description
_atom_site_fract_x
_atom_site_fract_y
_atom_site_fract_z
_atom_type_partial_charge
C1    C     C_R   0.855379 0.286300 0.507413 0.527827
C2    C     C_R   0.229316 0.837389 0.462067 0.011517
C3    C     C_R   0.809063 0.082711 0.574575 -0.157650
C4    C     C_R   0.001020 0.501994 0.659443 0.543705
C5    C     C_R   0.726445 0.967333 0.595426 -0.156912
C6    C     C_R   0.606262 0.930121 0.559431 -0.121640
C7    C     C_R   0.567159 0.007849 0.498582 0.036907
C8    C     C_R   0.655590 0.121691 0.469471 0.014297
C9    C     C_R   0.443402 0.976444 0.465506 0.014784
C10   C     C_R   0.412566 0.052584 0.396494 0.001970
C11   C     C_R   0.503579 0.158718 0.361745 -0.139522
C12   C     C_3   0.999195 0.512755 0.913653 0.027266
C13   C     C_R   0.623258 0.193097 0.397797 -0.113233
C14   C     C_R   0.349230 0.871696 0.499428 -0.182045
C15   C     C_R   0.197558 0.913808 0.394757 0.268006
C16   C     C_R   0.145187 0.714172 0.485174 0.556239
C17   C     C_R   0.774088 0.161526 0.513578 -0.022490
C18   C     C_R   0.370681 0.381527 0.665466 -0.167241
C19   C     C_R   0.758334 0.640457 0.377007 0.046238
C20   C     C_R   0.665779 0.676117 0.350720 -0.188312
C21   C     C_R   0.566514 0.629397 0.399698 -0.115529
C22   C     C_R   0.557814 0.545291 0.475749 -0.029229
C23   C     C_3   0.070986 0.619471 0.016538 -0.098057
C24   C     C_R   0.656756 0.513251 0.502989 0.171767
C25   C     C_R   0.455222 0.493462 0.526995 -0.035985
C26   C     C_R   0.468141 0.438091 0.613605 -0.096841
C27   C     C_R   0.572766 0.424096 0.644449 -0.170238
C28   C     C_R   0.000715 0.500865 0.340215 0.537361
C29   C     C_R   0.649350 0.434605 0.585082 0.285044
C30   C     C_R   0.337429 0.486249 0.494516 0.369650
C31   C     C_R   0.258516 0.382159 0.632560 0.393981
C32   C     C_3   0.048812 0.436430 0.046240 -0.161757
C33   C     C_3   0.932845 0.403755 0.981695 0.216042
C34   C     C_3   0.003788 0.508690 0.082464 -0.047390
C35   C     C_1   0.002281 0.505984 0.748376 -0.046182
C36   C     C_1   0.002430 0.503241 0.250418 -0.012886
C37   C     C_3   0.113215 0.546781 0.978808 0.226516
C38   C     C_3   0.818057 0.207345 0.033719 0.009360
C39   C     C_3   0.882520 0.128033 0.051785 -0.266555
C40   C     C_3   0.837001 0.032040 0.130835 -0.494546
C41   C     C_3   0.172709 0.322210 0.766354 0.011937
C42   C     C_3   0.155314 0.204885 0.823595 -0.282329
C43   C     C_3   0.150654 0.205631 0.919208 -0.488392
C44   C     C_3   0.275471 0.405657 0.372363 0.023865
C45   C     C_3   0.954731 0.583402 0.951822 0.245945
C46   C     C_3   0.285285 0.435408 0.273806 -0.263197
C47   C     C_3   0.252478 0.326272 0.237094 -0.498889
C48   C     C_3   0.646958 0.252249 0.652110 0.006307
C49   C     C_3   0.702214 0.236361 0.747050 -0.256322
C50   C     C_3   0.805531 0.200968 0.754751 -0.415770
C51   C     C_3   0.678008 0.393939 0.983978 0.033658
C52   C     C_3   0.590835 0.449105 0.976110 -0.258572
C53   C     C_3   0.495751 0.418503 0.898356 -0.512200
C54   C     C_3   0.839497 0.642157 0.831395 0.013479
C55   C     C_3   0.903177 0.736735 0.755902 -0.262723
C56   C     C_3   0.888188 0.474753 0.018649 0.294553
C57   C     C_3   0.828236 0.713697 0.668478 -0.477116
C58   C     C_3   0.314248 0.588510 0.025842 0.007979
C59   C     C_3   0.443771 0.665627 0.000105 -0.256512
C60   C     C_3   0.537626 0.664994 0.077848 -0.491059
C61   C     C_3   0.032114 0.959285 0.339548 0.003206
C62   C     C_3   0.031893 0.000306 0.422803 -0.276741
C63   C     C_3   0.964132 0.076407 0.404181 -0.479999
C64   C     C_1   0.001684 0.509446 0.823077 -0.018093
C65   C     C_1   0.003627 0.505838 0.174545 -0.029876
C66   C     C_R   0.291230 0.021098 0.361583 -0.127108
Cu1   Cu    Cu3+1 0.098270 0.475420 0.519690 1.016809
Cu2   Cu    Cu3+1 0.901730 0.524580 0.480310 0.995129
H1    H     H_    0.366801 0.813086 0.554589 0.121303
H2    H     H_    0.982053 0.180023 0.064438 0.155517
H3    H     H_    0.855703 0.070375 0.190448 0.139358
H4    H     H_    0.884785 0.975670 0.141539 0.146988
H5    H     H_    0.737648 0.977510 0.119641 0.146825
H6    H     H_    0.899414 0.111254 0.608789 0.148950
H7    H     H_    0.754534 0.907436 0.642650 0.117019
H8    H     H_    0.690543 0.275384 0.367615 0.143244
H9    H     H_    0.101280 0.343452 0.779324 0.171455
H10   H     H_    0.261052 0.393186 0.785881 0.116804
H11   H     H_    0.068433 0.135508 0.800554 0.172964
H12   H     H_    0.547017 0.839517 0.579228 0.107936
H13   H     H_    0.230851 0.184276 0.818324 0.149345
H14   H     H_    0.236810 0.273039 0.944731 0.150719
H15   H     H_    0.136881 0.119340 0.959156 0.150279
H16   H     H_    0.073944 0.223928 0.925618 0.162571
H17   H     H_    0.581710 0.382291 0.711630 0.101153
H18   H     H_    0.180255 0.342959 0.385657 0.156545
H19   H     H_    0.335943 0.361835 0.402326 0.112217
H20   H     H_    0.223410 0.475670 0.240657 0.168978
H21   H     H_    0.380067 0.498931 0.260314 0.165530
H22   H     H_    0.311162 0.283024 0.271542 0.141896
H23   H     H_    0.380113 0.331333 0.729157 0.097280
H24   H     H_    0.266894 0.349527 0.166768 0.128641
H25   H     H_    0.155553 0.264649 0.244564 0.137161
H26   H     H_    0.835449 0.678083 0.338735 0.164154
H27   H     H_    0.499989 0.664022 0.379234 0.173413
H28   H     H_    0.671755 0.741319 0.292662 0.096752
H29   H     H_    0.650982 0.190127 0.618067 0.163665
H30   H     H_    0.547331 0.224532 0.650069 0.091658
H31   H     H_    0.736964 0.318240 0.773232 0.182217
H32   H     H_    0.630419 0.167422 0.788236 0.118823
H33   H     H_    0.768684 0.111540 0.740746 0.133367
H34   H     H_    0.087495 0.377346 0.086462 0.095685
H35   H     H_    0.851441 0.201935 0.822100 0.175720
H36   H     H_    0.873661 0.261598 0.708174 0.184962
H37   H     H_    0.627961 0.298494 0.005282 0.133898
H38   H     H_    0.708045 0.407561 0.918551 0.125136
H39   H     H_    0.544291 0.418056 0.037073 0.159750
H40   H     H_    0.642874 0.545272 0.967972 0.189621
H41   H     H_    0.540255 0.456070 0.836358 0.137042
H42   H     H_    0.430799 0.455269 0.897194 0.148133
H43   H     H_    0.444824 0.322609 0.903486 0.143716
H44   H     H_    0.751743 0.643657 0.834856 0.143367
H45   H     H_    0.482019 0.216362 0.307182 0.104856
H46   H     H_    0.816268 0.555040 0.817620 0.108106
H47   H     H_    0.917338 0.822612 0.767034 0.165585
H48   H     H_    0.993651 0.740098 0.753423 0.174808
H49   H     H_    0.819595 0.631735 0.654117 0.186670
H50   H     H_    0.874224 0.785987 0.615460 0.146220
H51   H     H_    0.735864 0.706483 0.669960 0.138211
H52   H     H_    0.129319 0.707767 0.032296 0.125819
H53   H     H_    0.304263 0.498215 0.049406 0.131418
H54   H     H_    0.300138 0.621509 0.079654 0.126405
H55   H     H_    0.460156 0.634000 0.946820 0.167991
H56   H     H_    0.271489 0.078439 0.306193 0.094027
H57   H     H_    0.454958 0.756313 0.975546 0.169541
H58   H     H_    0.525281 0.699771 0.130947 0.141673
H59   H     H_    0.630721 0.720531 0.056928 0.156057
H60   H     H_    0.528397 0.575140 0.103390 0.149670
H61   H     H_    0.936199 0.917174 0.311590 0.146411
H62   H     H_    0.079115 0.033773 0.288252 0.116364
H63   H     H_    0.987513 0.923502 0.473596 0.176130
H64   H     H_    0.126842 0.051824 0.448678 0.147949
H65   H     H_    0.001049 0.149274 0.349191 0.131957
H66   H     H_    0.975836 0.113712 0.462990 0.167646
H67   H     H_    0.719014 0.153912 0.019756 0.137794
H68   H     H_    0.865517 0.023954 0.387638 0.157043
H69   H     H_    0.828547 0.243054 0.093666 0.148881
H70   H     H_    0.866007 0.087736 0.993491 0.167622
N1    N     N_R   0.246280 0.438200 0.549540 -0.216831
N2    N     N_R   0.754330 0.561180 0.450980 -0.233281
O1    O     O_R   0.972510 0.318130 0.524770 -0.485090
O2    O     O_3   0.154602 0.313282 0.676637 -0.547192
O3    O     O_3   0.308119 0.508221 0.405541 -0.559232
O4    O     O_3   0.713625 0.367651 0.607575 -0.506314
O5    O     O_3   0.773850 0.438702 0.048607 -0.565353
O6    O     O_3   0.911656 0.667827 0.910848 -0.563886
O7    O     O_3   0.230802 0.589830 0.951920 -0.562769
O8    O     O_3   0.078098 0.874686 0.356429 -0.565115
O9    O     O_R   0.806530 0.359650 0.491510 -0.450847
O10   O     O_R   0.082970 0.479240 0.637550 -0.478810
O11   O     O_R   0.916990 0.520750 0.604290 -0.457857
O12   O     O_R   0.193470 0.640350 0.508490 -0.504638
O13   O     O_R   0.027490 0.681870 0.475230 -0.468495
O14   O     O_R   0.083010 0.479250 0.395710 -0.464245
O15   O     O_R   0.917030 0.520760 0.362450 -0.513646
O16   O     O_3   0.859786 0.293036 0.958560 -0.605214

loop_
_geom_bond_atom_site_label_1
_geom_bond_atom_site_label_2
_ccdc_geom_bond_type
C53   H42   S    
C34   C56   S    
C8    C13   A    
C23   C45   S    
C40   H3    S    
C27   C29   A    
C43   H15   S    
C47   H24   S    
C19   C20   A    
C18   C26   A    
C38   O16   S    
Cu2   O15   S    
C33   O16   S    
C7    C8    A    
C46   H21   S    
C24   N2    A    
C50   H36   S    
C48   H29   S    
C26   C27   A    
Cu1   O14   S    
C18   H23   S    
C63   H65   S    
C61   O8    S    
C51   H38   S    
C41   H9    S    
C38   C39   S    
C12   C64   S    
C11   C13   A    
C55   H48   S    
C51   O5    S    
C12   C37   S    
C40   H5    S    
C48   O4    S    
C41   C42   S    
C56   O5    S    
C27   H17   S    
C3    H6    S    
C24   C29   A    
Cu2   O9    S    
C46   C47   S    
C23   H52   S    
C45   C56   S    
C19   N2    A    
C22   C25   A    
C28   O15   A    
C1    O9    A    
C35   C64   T    
C44   H19   S    
C2    C16   S    
C9    C10   A    
C61   H61   S    
C54   O6    S    
C53   H43   S    
C33   C56   S    
C20   H28   S    
C39   H70   S    
C50   H35   S    
C21   C22   A    
Cu1   O10   S    
C28   O14   A    
C43   H16   S    
C42   H13   S    
C44   H18   S    
C34   C65   S    
C44   C46   S    
C46   H20   S    
C10   C66   A    
C59   H55   S    
C58   H54   S    
C32   C37   S    
C42   H11   S    
Cu1   Cu2   S    
C63   H66   S    
C62   H64   S    
C60   H60   S    
C52   H39   S    
Cu2   O13   S    
C39   C40   S    
C36   C65   T    
C21   H27   S    
C58   C59   S    
C23   C37   S    
C15   C66   A    
C30   O3    S    
C51   C52   S    
C32   C34   S    
C5    H7    S    
C9    C14   A    
C62   C63   S    
C49   H31   S    
C6    H12   S    
C13   H8    S    
C51   H37   S    
C23   C34   S    
C47   H25   S    
C54   H44   S    
C16   O12   A    
C38   H67   S    
C37   O7    S    
C2    C15   A    
C52   H40   S    
C19   H26   S    
C61   H62   S    
C48   C49   S    
C15   O8    S    
C55   C57   S    
C14   H1    S    
C22   C24   A    
Cu2   N2    S    
C42   C43   S    
C31   N1    A    
Cu1   O1    S    
C41   H10   S    
Cu1   N1    S    
C52   C53   S    
C57   H49   S    
C53   H41   S    
C25   C30   A    
C7    C9    A    
C4    O11   A    
C54   C55   S    
C58   H53   S    
C30   N1    A    
C40   H4    S    
Cu1   O12   S    
C58   O7    S    
C39   H2    S    
C62   H63   S    
C60   H59   S    
C8    C17   A    
C12   C45   S    
C3    C5    A    
C2    C14   A    
C6    C7    A    
C32   H34   S    
C59   H57   S    
C4    O10   A    
C1    C17   S    
C45   O6    S    
C57   H51   S    
C63   H68   S    
C31   O2    S    
C60   H58   S    
C25   C26   A    
C41   O2    S    
Cu2   O11   S    
C32   C33   S    
C49   H32   S    
C29   O4    S    
C5    C6    A    
C55   H47   S    
C44   O3    S    
C54   H46   S    
C47   H22   S    
C38   H69   S    
C3    C17   A    
C66   H56   S    
C48   H30   S    
C61   C62   S    
C11   H45   S    
C4    C35   S    
C1    O1    A    
C10   C11   A    
C59   C60   S    
C20   C21   A    
C28   C36   S    
C50   H33   S    
C49   C50   S    
C16   O13   A    
C43   H14   S    
C18   C31   A    
C12   C33   S    
C57   H50   S    
