data_mof_unit_16515.cif
_audit_creation_date              2012-12-10T19:03:05-0500
_audit_creation_method            fapswitch 2.2
_symmetry_space_group_name_H-M    P1
_symmetry_Int_Tables_number       1
_space_group_crystal_system       triclinic
_cell_length_a                    10.843808
_cell_length_b                    10.868294
_cell_length_c                    9.588659
_cell_angle_alpha                 91.425207
_cell_angle_beta                  91.693214
_cell_angle_gamma                 91.254637
_cell_volume                      1128.92638677

loop_
_atom_site_label
_atom_site_type_symbol
_atom_type_description
_atom_site_fract_x
_atom_site_fract_y
_atom_site_fract_z
_atom_type_partial_charge
C1    C     C_R   0.501216 0.262744 0.498204 0.759566
C2    C     C_3   0.877284 0.484994 0.508527 -0.064964
C3    C     C_3   0.929357 0.619398 0.513008 -0.551842
C4    C     C_3   0.920121 0.425654 0.366561 0.129206
C5    C     C_R   0.429815 0.066589 0.590750 0.079652
C6    C     C_R   0.498044 0.129477 0.492619 -0.189464
C7    C     C_R   0.556951 0.060534 0.386903 0.384087
C8    C     C_R   0.554085 0.932614 0.391555 -0.210744
C9    C     C_R   0.498621 0.871259 0.500968 -0.161144
C10   C     C_R   0.432123 0.939695 0.596748 0.102501
C11   C     C_3   0.441323 0.945500 0.752454 -0.455287
C12   C     C_R   0.260103 0.492901 0.498893 0.814581
C13   C     C_3   0.431731 0.083694 0.745427 -0.441976
C14   C     C_R   0.585610 0.568766 0.078492 0.197917
C15   C     C_R   0.426828 0.419261 0.066085 0.247243
C16   C     C_R   0.427200 0.420848 0.918418 -0.034551
C17   C     C_R   0.585332 0.568585 0.930977 0.080218
C18   C     C_3   0.598954 0.704845 0.930748 0.156589
C19   C     C_3   0.604345 0.704817 0.089511 0.100573
C20   C     C_R   0.499940 0.737628 0.501392 0.831799
C21   C     C_R   0.739441 0.492969 0.502411 0.887334
C22   C     C_3   0.077018 0.412896 0.636092 0.704487
C23   C     C_3   0.929636 0.412110 0.641604 0.271795
C24   C     C_3   0.071092 0.621932 0.500667 -0.108234
C25   C     C_3   0.065025 0.416448 0.363351 0.400985
C26   C     C_3   0.121657 0.485625 0.501087 -0.113286
Cu1   Cu    Cu3+1 0.499990 0.499980 0.640670 0.953005
Cu2   Cu    Cu3+1 0.500010 0.500020 0.359330 0.983667
H1    H     H_    0.888690 0.488869 0.283340 0.144321
H2    H     H_    0.090898 0.658934 0.396805 0.199046
H3    H     H_    0.888651 0.671127 0.424530 0.198840
H4    H     H_    0.604185 0.881819 0.314904 0.190594
H5    H     H_    0.361262 0.900278 0.801739 0.191281
H6    H     H_    0.534411 0.920675 0.791749 0.238373
H7    H     H_    0.342837 0.118537 0.783519 0.199161
H8    H     H_    0.515623 0.133988 0.787901 0.216726
H9    H     H_    0.366938 0.358718 0.856541 0.169834
H10   H     H_    0.513995 0.745797 0.888311 0.116039
H11   H     H_    0.526861 0.753903 0.137571 0.109751
H12   H     H_    0.899574 0.670222 0.607346 0.228267
N1    N     N_R   0.500800 0.500930 0.147930 -0.212199
N2    N     N_R   0.500800 0.500890 0.852020 -0.224159
O1    O     O_R   0.500000 0.319640 0.618810 -0.599204
O2    O     O_R   0.500010 0.319680 0.381230 -0.587593
O3    O     O_R   0.317690 0.499960 0.618790 -0.567189
O4    O     O_R   0.317700 0.500000 0.381210 -0.547316
O5    O     O_R   0.499990 0.680320 0.618770 -0.563631
O6    O     O_R   0.500000 0.680360 0.381190 -0.585623
O7    O     O_R   0.682300 0.500000 0.618790 -0.582060
O8    O     O_R   0.682310 0.500040 0.381210 -0.552068
O9    O     O_3   0.132001 0.463262 0.761346 -0.726519
H13   H     H_    0.113301 0.550758 0.771140 0.332349
O10   O     O_3   0.624600 0.112588 0.283166 -0.723610
H14   H     H_    0.660593 0.191726 0.318913 0.370193
C27   C     C_3   0.343275 0.323056 0.123273 -0.732912
H15   H     H_    0.333352 0.332504 0.234644 0.287035
H16   H     H_    0.249670 0.329277 0.074086 0.236197
H17   H     H_    0.379516 0.230342 0.099344 0.202513
O11   O     O_3   0.116923 0.290320 0.629280 -0.768207
H18   H     H_    0.207713 0.290139 0.645788 0.333343
O12   O     O_3   0.707085 0.747155 0.867809 -0.706519
H19   H     H_    0.777465 0.699143 0.903509 0.351274
O13   O     O_3   0.721084 0.735428 0.148884 -0.727904
H20   H     H_    0.733723 0.824926 0.135052 0.350950
C28   C     C_3   0.873877 0.278212 0.641802 -0.669399
H21   H     H_    0.903914 0.230745 0.738034 0.234492
H22   H     H_    0.771474 0.278168 0.639292 0.202963
H23   H     H_    0.902056 0.219536 0.553827 0.264881
C29   C     C_3   0.890599 0.468164 0.786134 -0.791581
H24   H     H_    0.908727 0.568257 0.796463 0.204213
H25   H     H_    0.793533 0.448153 0.811531 0.250152
H26   H     H_    0.941970 0.424513 0.873180 0.252562
C30   C     C_3   0.132555 0.722779 0.598761 -0.840278
H27   H     H_    0.089431 0.730323 0.701827 0.230561
H28   H     H_    0.233200 0.711515 0.613287 0.246128
H29   H     H_    0.119967 0.814238 0.551532 0.237925
O14   O     O_3   0.110216 0.472729 0.242321 -0.728241
H30   H     H_    0.061546 0.544857 0.215560 0.306602
C31   C     C_3   0.105016 0.279986 0.347694 -0.640332
H31   H     H_    0.096628 0.248663 0.236570 0.222402
H32   H     H_    0.201658 0.268113 0.384176 0.178341
H33   H     H_    0.048174 0.214050 0.404884 0.250238
O15   O     O_3   0.858745 0.312333 0.336923 -0.768196
H34   H     H_    0.864102 0.295681 0.234961 0.343477

loop_
_geom_bond_atom_site_label_1
_geom_bond_atom_site_label_2
_ccdc_geom_bond_type
C27   H15   S    
C30   H27   S    
C23   C29   S    
C21   O7    A    
C4    C25   S    
C7    C8    A    
O14   H30   S    
Cu2   O4    S    
C25   O14   S    
C24   C26   S    
C13   H7    S    
C5    C6    A    
C24   C30   S    
C15   C16   A    
Cu2   N1    S    
C18   C19   S    
C29   H25   S    
C17   N2    A    
C9    C20   S    
Cu2   O8    S    
C1    O1    A    
C19   O13   S    
C8    C9    A    
C28   H22   S    
C9    C10   A    
C5    C13   S    
C4    H1    S    
C16   H9    S    
Cu1   O3    S    
O11   H18   S    
C30   H28   S    
C14   C17   A    
C3    C24   S    
O12   H19   S    
C21   O8    A    
O13   H20   S    
O9    H13   S    
C8    H4    S    
C11   H5    S    
C15   N1    A    
C13   H8    S    
C12   O4    A    
C22   O11   S    
C31   H32   S    
C25   C26   S    
O10   H14   S    
Cu2   O2    S    
C1    C6    S    
C12   C26   S    
C15   C27   S    
C29   H26   S    
C2    C4    S    
C1    O2    A    
O15   H34   S    
C28   H23   S    
C2    C21   S    
C17   C18   S    
C3    H3    S    
C20   O6    A    
C19   H11   S    
C14   N1    A    
C3    H12   S    
C27   H16   S    
C30   H29   S    
C7    O10   S    
C16   N2    A    
Cu1   Cu2   S    
Cu1   O5    S    
Cu2   O6    S    
C25   C31   S    
C14   C19   S    
C11   H6    S    
C12   O3    A    
C31   H33   S    
C18   O12   S    
C6    C7    A    
C23   C28   S    
C2    C3    S    
C18   H10   S    
C5    C10   A    
C11   C13   S    
Cu1   N2    S    
C4    O15   S    
C29   H24   S    
C24   H2    S    
C20   O5    A    
C10   C11   S    
C31   H31   S    
Cu1   O1    S    
C28   H21   S    
C22   C26   S    
C27   H17   S    
C2    C23   S    
C22   C23   S    
Cu1   O7    S    
C22   O9    S    
