data_mof_unit_46639.cif
_audit_creation_date              2012-12-10T22:11:11-0500
_audit_creation_method            fapswitch 2.2
_symmetry_space_group_name_H-M    P1
_symmetry_Int_Tables_number       1
_space_group_crystal_system       triclinic
_cell_length_a                    12.144414
_cell_length_b                    12.339451
_cell_length_c                    23.124823
_cell_angle_alpha                 90.424719
_cell_angle_beta                  90.125197
_cell_angle_gamma                 91.415502
_cell_volume                      3464.21724857

loop_
_atom_site_label
_atom_site_type_symbol
_atom_type_description
_atom_site_fract_x
_atom_site_fract_y
_atom_site_fract_z
_atom_type_partial_charge
C1    C     C_R   0.656728 0.998310 0.578882 0.889252
C2    C     C_R   0.343708 0.001510 0.420911 0.895294
C3    C     C_R   0.895825 0.767574 0.147623 -0.293886
C4    C     C_R   0.092475 0.182274 0.878561 -0.258771
C5    C     C_R   0.083058 0.900183 0.163780 0.106868
C6    C     C_R   0.909634 0.160390 0.804462 0.149925
C7    C     C_R   0.082278 0.817997 0.122664 -0.273128
C8    C     C_R   0.917224 0.243694 0.844669 -0.282235
C9    C     C_R   0.912013 0.118338 0.171470 -0.410858
C10   C     C_R   0.084581 0.822339 0.795444 -0.326803
C11   C     C_R   0.908468 0.198485 0.130424 0.405085
C12   C     C_R   0.086636 0.740326 0.836005 0.397750
C13   C     C_R   0.165214 0.910921 0.297771 0.147576
C14   C     C_R   0.894049 0.085450 0.671480 0.090021
C15   C     C_R   0.248082 0.914533 0.339244 -0.289745
C16   C     C_R   0.810628 0.087017 0.630542 -0.262664
C17   C     C_R   0.825344 0.088324 0.293952 -0.268945
C18   C     C_R   0.112163 0.909876 0.673642 -0.329287
C19   C     C_R   0.743752 0.089667 0.335666 0.087809
C20   C     C_R   0.189094 0.908256 0.629919 0.101845
C21   C     C_3   0.996989 0.004712 0.247856 -0.012893
C22   C     C_3   0.001319 0.994560 0.752713 -0.010740
C23   C     C_R   0.653134 0.002361 0.420074 0.916407
C24   C     C_R   0.345724 0.997525 0.579388 0.916384
C25   C     C_R   0.093531 0.000716 0.291808 0.234517
C26   C     C_R   0.905918 0.993405 0.708133 0.204249
C27   C     C_R   0.258831 0.001407 0.377334 -0.060663
C28   C     C_R   0.742284 0.996740 0.622111 -0.055990
C29   C     C_R   0.896058 0.999513 0.288150 0.050009
C30   C     C_R   0.104303 0.997830 0.712870 0.025634
C31   C     C_R   0.734342 0.003345 0.374359 -0.075736
C32   C     C_R   0.263866 0.995299 0.624857 -0.076159
C33   C     C_R   0.001436 0.108130 0.209939 -0.057326
C34   C     C_R   0.996292 0.894733 0.792595 -0.043115
C35   C     C_R   0.996224 0.273356 0.127028 -0.302911
C36   C     C_R   0.002494 0.733172 0.876973 -0.304666
C37   C     C_R   0.991906 0.912111 0.201981 0.206235
C38   C     C_R   0.000154 0.089322 0.797058 0.236723
C39   C     C_R   0.990496 0.749980 0.116009 -0.053093
C40   C     C_R   0.007327 0.254561 0.881392 -0.053319
C41   C     C_R   0.992826 0.662206 0.074669 0.872820
C42   C     C_R   0.007050 0.338814 0.924760 0.897833
C43   C     C_R   0.998176 0.353508 0.081444 0.974906
C44   C     C_R   0.001679 0.648044 0.919531 0.986495
C45   C     C_R   0.103227 0.086166 0.334229 0.167125
C46   C     C_R   0.841376 0.897722 0.694154 0.120579
C47   C     C_R   0.186413 0.086067 0.375272 -0.242829
C48   C     C_R   0.759067 0.902348 0.652767 -0.290939
C49   C     C_R   0.878690 0.907563 0.324386 0.511153
C50   C     C_R   0.178298 0.089184 0.705666 0.546666
C51   C     C_R   0.801513 0.914045 0.368906 -0.389348
C52   C     C_R   0.260719 0.082615 0.663385 -0.399605
C53   C     C_R   0.093079 0.183255 0.204897 0.427804
C54   C     C_R   0.906714 0.880722 0.831977 0.402609
C55   C     C_R   0.082957 0.271873 0.167228 0.248445
C56   C     C_R   0.918774 0.809104 0.878340 0.252070
C57   C     C_R   0.893058 0.850102 0.188544 0.125777
C58   C     C_R   0.089332 0.098928 0.837869 0.151937
H1    H     H_    0.193294 0.152446 0.406165 0.151534
H2    H     H_    0.709111 0.830016 0.644010 0.166720
H3    H     H_    0.844126 0.060624 0.172122 0.194770
H4    H     H_    0.155347 0.829378 0.767777 0.188920
H5    H     H_    0.835463 0.161096 0.268812 0.164902
H6    H     H_    0.055737 0.841211 0.676236 0.178589
H7    H     H_    0.794096 0.849404 0.400100 0.158753
H8    H     H_    0.322654 0.146593 0.659548 0.156971
H9    H     H_    0.821909 0.718559 0.139751 0.161764
H10   H     H_    0.161189 0.189381 0.908469 0.152064
H11   H     H_    0.154041 0.808273 0.095478 0.155514
H12   H     H_    0.849082 0.298505 0.848346 0.160187
H13   H     H_    0.303072 0.846888 0.342402 0.158499
H14   H     H_    0.801160 0.158775 0.604394 0.158017
O1    O     O_R   0.621380 0.090460 0.561410 -0.635336
O2    O     O_R   0.378620 0.909540 0.438590 -0.627823
O3    O     O_R   0.617150 0.909540 0.438590 -0.643011
O4    O     O_R   0.382850 0.090460 0.561410 -0.642381
O5    O     O_R   0.619720 0.093230 0.440890 -0.602422
O6    O     O_R   0.380280 0.906770 0.559110 -0.600333
O7    O     O_R   0.618800 0.906770 0.559110 -0.636176
O8    O     O_R   0.381200 0.093230 0.440890 -0.630005
O9    O     O_R   0.087590 0.627480 0.058790 -0.643433
O10   O     O_R   0.912410 0.372520 0.941210 -0.629676
O11   O     O_R   0.905660 0.383870 0.059980 -0.601644
O12   O     O_R   0.094340 0.616130 0.940020 -0.613517
O13   O     O_R   0.092570 0.390420 0.063230 -0.582135
O14   O     O_R   0.907430 0.609580 0.936770 -0.589615
O15   O     O_R   0.900680 0.620930 0.055550 -0.635274
O16   O     O_R   0.099320 0.379070 0.944450 -0.633672
Zn1   Zn    Zn3+2 0.501730 0.123520 0.501540 0.936752
Zn2   Zn    Zn3+2 0.498270 0.876480 0.498460 0.937785
Zn3   Zn    Zn3+2 0.125690 0.504390 0.002180 0.951655
Zn4   Zn    Zn3+2 0.874310 0.495610 0.997820 0.956689
O17   O     O_3   0.942981 0.816257 0.316834 -0.627129
C59   C     C_3   0.885263 0.717704 0.329088 0.121255
H15   H     H_    0.797319 0.719446 0.315423 0.128982
H16   H     H_    0.889813 0.700655 0.376153 0.143084
C60   C     C_3   0.937970 0.624131 0.297011 -0.891291
H17   H     H_    0.019465 0.606948 0.316161 0.238899
H18   H     H_    0.884899 0.549941 0.300748 0.201625
H19   H     H_    0.948126 0.643759 0.250543 0.274196
O18   O     O_3   0.169135 0.181055 0.740733 -0.622570
C61   C     C_3   0.203907 0.279537 0.714882 0.068127
H20   H     H_    0.177217 0.284261 0.668878 0.138757
H21   H     H_    0.294956 0.289304 0.718091 0.143263
C62   C     C_3   0.153380 0.373180 0.747842 -0.767721
H22   H     H_    0.180238 0.372327 0.793789 0.268591
H23   H     H_    0.180175 0.451428 0.728338 0.210074
H24   H     H_    0.062097 0.366048 0.746047 0.249599
O19   O     O_3   0.186488 0.173298 0.239483 -0.624588
C63   C     C_3   0.287432 0.190677 0.210015 0.191442
H25   H     H_    0.314199 0.277026 0.214206 0.189088
H26   H     H_    0.282731 0.167612 0.163419 0.135523
C64   C     C_3   0.376174 0.124610 0.238846 -0.895147
H27   H     H_    0.353803 0.037006 0.237223 0.264439
H28   H     H_    0.455943 0.137877 0.216264 0.199326
H29   H     H_    0.385982 0.149962 0.284804 0.268004
O20   O     O_3   0.814191 0.944902 0.826907 -0.624217
C65   C     C_3   0.714041 0.886128 0.837094 0.191674
H30   H     H_    0.690311 0.894593 0.883211 0.194114
H31   H     H_    0.719189 0.798376 0.825954 0.130016
C66   C     C_3   0.621050 0.932671 0.801454 -0.920943
H32   H     H_    0.644804 0.938598 0.755364 0.281064
H33   H     H_    0.546462 0.879181 0.804850 0.210122
H34   H     H_    0.600062 0.014207 0.817962 0.244684
N1    N     N_3   0.786843 0.875107 0.211417 -0.479571
H35   H     H_    0.752080 0.804962 0.229552 0.182046
H36   H     H_    0.735924 0.896834 0.177075 0.170939
N2    N     N_3   0.179639 0.026172 0.836705 -0.478211
H37   H     H_    0.252809 0.071443 0.831417 0.208838
H38   H     H_    0.183408 0.987888 0.876837 0.149577
N3    N     N_3   0.177732 0.971269 0.166592 -0.451211
H39   H     H_    0.183792 0.011066 0.126916 0.166092
H40   H     H_    0.247950 0.924651 0.170756 0.173709
N4    N     N_3   0.805560 0.145565 0.775764 -0.418685
H41   H     H_    0.744816 0.136874 0.807397 0.218847
H42   H     H_    0.788142 0.216841 0.753738 0.157272
N5    N     N_3   0.151250 0.811533 0.266075 -0.425337
H43   H     H_    0.140149 0.749315 0.295976 0.216600
H44   H     H_    0.224842 0.796241 0.244452 0.158626
N6    N     N_3   0.966424 0.178589 0.675742 -0.444184
H45   H     H_    0.006262 0.187571 0.635956 0.173395
H46   H     H_    0.919612 0.247570 0.682154 0.175205
O21   O     O_3   0.159453 0.356675 0.168585 -0.605506
C67   C     C_3   0.125136 0.433766 0.209686 0.114336
H47   H     H_    0.124246 0.398583 0.253918 0.144422
H48   H     H_    0.041674 0.463761 0.199050 0.125176
C68   C     C_3   0.205692 0.529922 0.209421 -0.834818
H49   H     H_    0.204207 0.570327 0.166667 0.271062
H50   H     H_    0.182272 0.588828 0.243294 0.200674
H51   H     H_    0.290384 0.502507 0.218475 0.242723
O22   O     O_3   0.849742 0.814717 0.925768 -0.607578
C69   C     C_3   0.895855 0.890671 0.965561 0.111645
H52   H     H_    0.911475 0.971091 0.945000 0.154314
H53   H     H_    0.974500 0.860572 0.983554 0.120497
C70   C     C_3   0.815987 0.906602 0.015309 -0.788998
H54   H     H_    0.795387 0.827494 0.035646 0.260620
H55   H     H_    0.853931 0.961669 0.048384 0.234280
H56   H     H_    0.739095 0.942821 0.999124 0.241249
O23   O     O_3   0.824703 0.196465 0.089609 -0.580546
C71   C     C_3   0.725305 0.226891 0.116185 0.137458
H57   H     H_    0.735817 0.305455 0.139967 0.127943
H58   H     H_    0.695087 0.163357 0.146568 0.119039
C72   C     C_3   0.637945 0.240580 0.069785 -0.820268
H59   H     H_    0.624563 0.163177 0.045656 0.248513
H60   H     H_    0.559154 0.263990 0.090110 0.192665
H61   H     H_    0.664639 0.304838 0.039099 0.259165
O24   O     O_3   0.167886 0.663481 0.833939 -0.589889
C73   C     C_3   0.269308 0.711163 0.852131 0.139935
H62   H     H_    0.260516 0.756859 0.893615 0.131355
H63   H     H_    0.303160 0.766639 0.818527 0.126880
C74   C     C_3   0.351709 0.622174 0.861669 -0.825918
H64   H     H_    0.363501 0.575750 0.820903 0.249494
H65   H     H_    0.432159 0.658534 0.875536 0.194161
H66   H     H_    0.321245 0.566028 0.895732 0.261356
N7    N     N_3   0.671452 0.179643 0.338790 -0.436577
H67   H     H_    0.719401 0.250323 0.345089 0.177183
H68   H     H_    0.631208 0.185743 0.298959 0.170236
N8    N     N_3   0.188272 0.819204 0.589703 -0.430423
H69   H     H_    0.198917 0.747849 0.612964 0.182803
H70   H     H_    0.110761 0.814327 0.569927 0.178203
N9    N     N_3   0.030989 0.176438 0.334459 -0.474938
H71   H     H_    0.078326 0.248013 0.330896 0.195401
H72   H     H_    0.991065 0.178497 0.374468 0.173168
N10   N     N_3   0.863059 0.792858 0.717349 -0.472474
H73   H     H_    0.790230 0.760836 0.734976 0.180614
H74   H     H_    0.884999 0.741615 0.683268 0.169301

loop_
_geom_bond_atom_site_label_1
_geom_bond_atom_site_label_2
_ccdc_geom_bond_type
C16   C28   A    
C74   H64   S    
C58   N2    S    
O18   C61   S    
C5    C37   A    
C70   H55   S    
C43   O11   A    
C62   H22   S    
C72   H59   S    
C16   H14   S    
C19   C31   A    
N2    H37   S    
C12   O24   S    
N8    H69   S    
O13   Zn3   S    
C45   N9    S    
C39   C41   S    
C29   C49   A    
N9    H71   S    
O6    Zn2   S    
C22   C34   S    
O11   Zn4   S    
C74   H65   S    
O5    Zn1   S    
O17   C59   S    
C9    H3    S    
C68   H50   S    
N6    H46   S    
C57   N1    S    
C17   C29   A    
N8    H70   S    
C21   C33   S    
C27   C47   A    
O21   C67   S    
C22   C38   S    
O10   Zn4   S    
N10   H73   S    
C61   C62   S    
C51   H7    S    
C45   C47   A    
C46   N10   S    
O8    Zn1   S    
C65   H30   S    
C32   C52   A    
C66   H34   S    
O3    Zn2   S    
C63   H25   S    
C73   C74   S    
C68   H49   S    
O7    Zn2   S    
C42   O10   A    
C1    C28   S    
C50   C52   A    
O22   C69   S    
C6    C38   A    
C48   H2    S    
C2    C27   S    
C18   C30   A    
O12   Zn3   S    
C12   C36   A    
C35   C43   S    
C19   N7    S    
C2    O2    A    
O4    Zn1   S    
C64   H29   S    
C73   H63   S    
C30   C50   A    
C3    C39   A    
C38   C58   A    
O15   Zn4   S    
C70   H56   S    
C9    C33   A    
C13   C25   A    
C10   H4    S    
C67   C68   S    
C44   O14   A    
C60   H18   S    
C60   H17   S    
C46   C48   A    
C53   C55   A    
C33   C53   A    
C41   O15   A    
C74   H66   S    
C54   C56   A    
C55   O21   S    
C35   C55   A    
C43   O13   A    
C71   C72   S    
C4    C40   A    
C72   H61   S    
N6    H45   S    
N7    H68   S    
N9    H72   S    
C23   O3    A    
O24   C73   S    
C5    C7    A    
C24   O4    A    
C6    C8    A    
C59   C60   S    
C49   C51   A    
C21   C29   S    
C14   C26   A    
C65   C66   S    
C23   C31   S    
C59   H16   S    
C24   C32   S    
C36   C56   A    
C62   H23   S    
C15   C27   A    
O23   C71   S    
C69   C70   S    
C63   H26   S    
C41   O9    A    
C68   H51   S    
C11   O23   S    
C59   H15   S    
C10   C34   A    
C62   H24   S    
C23   O5    A    
C56   O22   S    
C61   H21   S    
C9    C11   A    
C63   C64   S    
C66   H32   S    
C10   C12   A    
C3    C57   A    
C13   N5    S    
C67   H48   S    
C73   H62   S    
C69   H53   S    
C14   N6    S    
C13   C15   A    
N1    H35   S    
C1    O7    A    
C14   C16   A    
C36   C44   S    
C42   O16   A    
N3    H39   S    
C25   C45   A    
C24   O6    A    
C60   H19   S    
C52   H8    S    
C4    H10   S    
C64   H27   S    
C20   C32   A    
C53   O19   S    
C21   C25   S    
C28   C48   A    
C22   C30   S    
C72   H60   S    
N5    H44   S    
C3    H9    S    
C31   C51   A    
C67   H47   S    
N3    H40   S    
N2    H38   S    
C7    H11   S    
N4    H42   S    
C34   C54   A    
N4    H41   S    
C15   H13   S    
N5    H43   S    
C8    H12   S    
C44   O12   A    
C1    O1    A    
C71   H57   S    
O2    Zn2   S    
C11   C35   A    
O1    Zn1   S    
C6    N4    S    
N7    H67   S    
O14   Zn4   S    
O20   C65   S    
C17   H5    S    
C18   H6    S    
O16   Zn3   S    
C20   N8    S    
C40   C42   S    
C17   C19   A    
N10   H74   S    
C18   C20   A    
C61   H20   S    
C65   H31   S    
C66   H33   S    
C2    O8    A    
C26   C46   A    
C47   H1    S    
O9    Zn3   S    
C5    N3    S    
C21   C37   S    
C69   H52   S    
C50   O18   S    
C22   C26   S    
C54   O20   S    
C4    C58   A    
C70   H54   S    
N1    H36   S    
C7    C39   A    
C8    C40   A    
C49   O17   S    
O19   C63   S    
C37   C57   A    
C71   H58   S    
C64   H28   S    
