data_mof_unit_68480.cif
_audit_creation_date              2012-12-11T16:07:31-0500
_audit_creation_method            fapswitch 2.2
_symmetry_space_group_name_H-M    P1
_symmetry_Int_Tables_number       1
_space_group_crystal_system       triclinic
_cell_length_a                    7.105185
_cell_length_b                    14.7032
_cell_length_c                    16.262632
_cell_angle_alpha                 89.988223
_cell_angle_beta                  88.896345
_cell_angle_gamma                 89.03879
_cell_volume                      1698.38597056

loop_
_atom_site_label
_atom_site_type_symbol
_atom_type_description
_atom_site_fract_x
_atom_site_fract_y
_atom_site_fract_z
_atom_type_partial_charge
O1    O     O_R   0.494320 0.415010 0.412140 -0.491160
O2    O     O_R   0.824010 0.404260 0.587250 -0.511209
O3    O     O_R   0.994320 0.584990 0.587860 -0.537347
C1    C     C_R   0.654039 0.377814 0.611471 0.840049
O4    O     O_R   0.824040 0.403870 0.412760 -0.538355
O5    O     O_R   0.994350 0.584590 0.412130 -0.559364
C2    C     C_R   0.657352 0.377773 0.388427 0.885417
O6    O     O_R   0.494300 0.415410 0.587870 -0.527385
O7    O     O_3   0.660800 0.559290 0.500000 -0.395105
V1    V     V_3+5 0.935650 0.489000 0.500000 1.826804
O8    O     O_R   0.324060 0.595740 0.412750 -0.506470
C3    C     C_R   0.153540 0.615324 0.381825 0.853081
O9    O     O_R   0.324040 0.596130 0.587240 -0.530203
C4    C     C_R   0.151525 0.619238 0.614316 0.830677
V2    V     V_3+5 0.435660 0.511000 0.500000 1.842227
O10   O     O_3   0.160640 0.440710 0.500000 -0.352570
C5    C     C_3   0.070106 0.669328 0.773001 0.506453
C6    C     C_3   0.239710 0.720519 0.804665 0.516400
C7    C     C_3   0.121819 0.810290 0.810622 -0.491234
C8    C     C_3   0.950592 0.757426 0.779005 0.083360
C9    C     C_3   0.007594 0.777581 0.688860 0.542548
C10   C     C_3   0.177074 0.832205 0.719365 0.047486
C11   C     C_3   0.297749 0.743047 0.714651 0.462870
C12   C     C_3   0.130121 0.689673 0.683313 -0.479091
C13   C     C_3   0.214137 0.849855 0.263292 0.629211
C14   C     C_3   0.244802 0.774416 0.331578 0.548942
C15   C     C_3   0.247362 0.722539 0.162638 0.532588
C16   C     C_3   0.916738 0.775652 0.209419 0.530270
C17   C     C_3   0.119749 0.809105 0.184720 -0.623460
C18   C     C_3   0.133054 0.686088 0.310256 -0.617641
C19   C     C_3   0.205172 0.645837 0.225202 0.981840
C20   C     C_3   0.923559 0.719604 0.292760 0.578083
C21   C     C_3   0.491604 0.232007 0.667632 1.060711
C22   C     C_3   0.477977 0.167199 0.744053 0.323069
H1    H     H_    0.334041 0.172706 0.771433 0.191606
C23   C     C_3   0.581855 0.357908 0.761837 -0.096072
C24   C     C_3   0.836313 0.258473 0.695643 0.985954
C25   C     C_3   0.640321 0.307430 0.681567 -0.585970
C26   C     C_3   0.627210 0.188918 0.810158 -0.535255
C27   C     C_3   0.589216 0.291434 0.837734 0.104130
C28   C     C_3   0.822897 0.182556 0.762957 1.021100
H2    H     H_    0.686577 0.412702 0.767288 0.212505
C29   C     C_3   0.497592 0.339587 0.258532 1.019286
C30   C     C_3   0.503456 0.282431 0.177633 0.465624
C31   C     C_3   0.587704 0.211821 0.351172 0.562612
C32   C     C_3   0.845513 0.292555 0.270839 0.520901
C33   C     C_3   0.650857 0.306787 0.319045 -0.661295
C34   C     C_3   0.622205 0.190634 0.188665 -0.585948
C35   C     C_3   0.544174 0.149648 0.273929 0.601114
C36   C     C_3   0.831733 0.217883 0.201931 0.473953
O11   O     O_R   0.771990 0.083520 0.910980 -0.516737
O12   O     O_R   0.442180 0.095020 0.086060 -0.497702
O13   O     O_R   0.271950 0.914280 0.086680 -0.501634
C37   C     C_R   0.609437 0.119242 0.114901 0.851517
O14   O     O_R   0.442270 0.094630 0.911580 -0.548593
O15   O     O_R   0.272040 0.913890 0.910940 -0.542447
C38   C     C_R   0.612634 0.118084 0.882992 0.855525
O16   O     O_R   0.771900 0.083910 0.086710 -0.532836
O17   O     O_3   0.605520 0.939610 0.998840 -0.385507
V3    V     V_3+5 0.330640 0.009880 0.998810 1.768605
O18   O     O_R   0.942330 0.902710 0.911540 -0.544593
C39   C     C_R   0.112625 0.880338 0.882637 0.804244
O19   O     O_R   0.942240 0.903100 0.086030 -0.525266
C40   C     C_R   0.111157 0.880186 0.113952 0.841161
V4    V     V_3+5 0.830640 0.987830 0.998780 1.735034
O20   O     O_3   0.105630 0.058150 0.998800 -0.374326
F1    F     F_    0.344539 0.675163 0.861899 -0.581971
F2    F     F_    0.433709 0.753160 0.332282 -0.521916
F3    F     F_    0.432701 0.742888 0.170726 -0.533824
F4    F     F_    0.356283 0.588484 0.233362 -0.521537
I1    I     I_    0.793614 0.709061 0.101530 0.040557
F5    F     F_    0.798038 0.849209 0.222741 -0.532895
F6    F     F_    0.860821 0.775581 0.356495 -0.583412
I2    I     I_    0.717392 0.615376 0.294503 0.156044
I3    I     I_    0.255563 0.671982 0.038730 0.045441
F7    F     F_    0.070563 0.593789 0.190859 -0.688496
F8    F     F_    0.315828 0.270388 0.653930 -0.565396
F9    F     F_    0.007534 0.587033 0.803056 -0.571312
F10   F     F_    0.540289 0.181826 0.598522 -0.545155
F11   F     F_    0.503015 0.078035 0.719461 -0.558189
I4    I     I_    0.339308 0.450413 0.756312 0.039656
I5    I     I_    0.332540 0.295977 0.911962 -0.053399
F12   F     F_    0.966618 0.322048 0.719212 -0.592188
F13   F     F_    0.903375 0.220378 0.622718 -0.541719
F14   F     F_    0.845293 0.097920 0.726054 -0.555401
F15   F     F_    0.971911 0.189445 0.816028 -0.635246
I6    I     I_    0.691502 0.765952 0.841741 0.009168
I7    I     I_    0.816188 0.347559 0.905779 -0.054103
F16   F     F_    0.321268 0.331895 0.295163 -0.477602
F17   F     F_    0.518209 0.431764 0.245041 -0.619907
I8    I     I_    0.557754 0.379069 0.082599 -0.027432
F18   F     F_    0.325065 0.257483 0.161351 -0.532562
F19   F     F_    0.423758 0.221492 0.398524 -0.509396
F20   F     F_    0.350542 0.143072 0.268915 -0.486409
F21   F     F_    0.984706 0.265851 0.324322 -0.483693
I9    I     I_    0.958168 0.416094 0.227087 0.091670
I10   I     I_    0.978497 0.247980 0.086380 -0.000522
F22   F     F_    0.882367 0.806627 0.629920 -0.541251
F23   F     F_    0.929192 0.141806 0.228220 -0.564464
I11   I     I_    0.783723 0.158239 0.442469 0.225648
I12   I     I_    0.619554 0.013884 0.297138 0.158392
I13   I     I_    0.211347 0.959396 0.660205 0.211308
F24   F     F_    0.477046 0.737501 0.680343 -0.567779
F25   F     F_    0.387204 0.879499 0.237871 -0.526937
I14   I     I_    0.096117 0.974158 0.308179 0.138616
I15   I     I_    0.199191 0.816679 0.459214 0.015432

loop_
_geom_bond_atom_site_label_1
_geom_bond_atom_site_label_2
_ccdc_geom_bond_type
C18   C20   S    
O19   V4    S    
C15   C17   S    
C23   H2    S    
C7    C8    S    
C1    O6    A    
C31   F19   S    
C14   I15   S    
C13   I14   S    
C26   C28   S    
C34   C37   S    
C28   F15   S    
C36   F23   S    
C29   F16   S    
C16   C17   S    
C6    C7    S    
O5    C3    A    
C18   C19   S    
O13   C40   A    
C7    C39   S    
V2    O10   S    
C26   C38   S    
C8    I6    S    
C5    C8    S    
C22   H1    S    
O11   V4    S    
C4    C12   S    
C23   C27   S    
O12   V3    S    
C22   F11   S    
O8    V2    S    
C19   F4    S    
C11   F24   S    
C32   F21   S    
C11   C12   S    
C24   F13   S    
O11   C38   A    
C35   F20   S    
O7    V1    S    
C15   F3    S    
O14   V3    S    
C34   C36   S    
C17   C40   S    
V3    O20   S    
O17   V3    S    
C9    C10   S    
C24   C28   S    
C16   F5    S    
C15   I3    S    
O13   V3    S    
O12   C37   A    
C21   C22   S    
C31   C33   S    
C13   C17   S    
C5    C12   S    
C15   C19   S    
C6    C11   S    
C29   F17   S    
C27   I5    S    
C16   C20   S    
C7    C10   S    
C20   F6    S    
O4    C2    A    
C21   F10   S    
C6    F1    S    
C22   C26   S    
C2    C33   S    
O2    C1    A    
C29   C30   S    
C24   C25   S    
O18   V4    S    
O16   V4    S    
C31   C35   S    
C23   I4    S    
C5    C6    S    
C30   I8    S    
O3    C4    A    
O1    V2    S    
C34   C35   S    
C1    C25   S    
C14   C18   S    
O6    V2    S    
O9    V2    S    
O15   C39   A    
C16   I1    S    
O2    V1    S    
C26   C27   S    
C37   O16   A    
C32   C33   S    
C36   I10   S    
C3    C18   S    
O1    C2    A    
C31   I11   S    
C30   F18   S    
O5    V1    S    
O8    C3    A    
C13   F25   S    
C28   F14   S    
C32   C36   S    
C21   C25   S    
C10   I13   S    
C14   F2    S    
C27   I7    S    
O14   C38   A    
C13   C14   S    
O4    V1    S    
O3    V1    S    
V1    O10   S    
O17   V4    S    
C20   I2    S    
C9    F22   S    
C21   F8    S    
C19   F7    S    
C23   C25   S    
C5    F9    S    
O7    V2    S    
O18   C39   A    
O19   C40   A    
O15   V3    S    
C32   I9    S    
C8    C9    S    
V4    O20   S    
C9    C12   S    
C10   C11   S    
C24   F12   S    
O9    C4    A    
C29   C33   S    
C30   C34   S    
C35   I12   S    
