data_mof_unit_45234.cif
_audit_creation_date              2012-12-10T16:44:40-0500
_audit_creation_method            fapswitch 2.2
_symmetry_space_group_name_H-M    P1
_symmetry_Int_Tables_number       1
_space_group_crystal_system       triclinic
_cell_length_a                    15.036121
_cell_length_b                    8.757818
_cell_length_c                    7.492503
_cell_angle_alpha                 103.015222
_cell_angle_beta                  95.011553
_cell_angle_gamma                 93.649584
_cell_volume                      954.082701098

loop_
_atom_site_label
_atom_site_type_symbol
_atom_type_description
_atom_site_fract_x
_atom_site_fract_y
_atom_site_fract_z
_atom_type_partial_charge
C1    C     C_R   0.495795 0.200417 0.454051 0.836892
C2    C     C_R   0.504203 0.799582 0.545949 0.836891
C3    C     C_R   0.028980 0.375833 0.172711 -0.240268
C4    C     C_R   0.971020 0.624130 0.827298 -0.240249
C5    C     C_2   0.483259 0.033699 0.432577 -0.245412
C6    C     C_2   0.516738 0.966301 0.567422 -0.245397
C7    C     C_R   0.328849 0.498962 0.500903 0.817829
C8    C     C_R   0.671150 0.501038 0.499097 0.817830
C9    C     C_R   0.823408 0.562859 0.661393 -0.192640
C10   C     C_R   0.176592 0.437138 0.338606 -0.192631
C11   C     C_R   0.767867 0.502283 0.497702 -0.059571
C12   C     C_R   0.232133 0.497708 0.502298 -0.059573
C13   C     C_R   0.804591 0.441747 0.333800 -0.222226
C14   C     C_R   0.195409 0.558224 0.666204 -0.222222
C15   C     C_R   0.897492 0.438972 0.331927 0.053539
C16   C     C_R   0.102507 0.560985 0.668080 0.053542
C17   C     C_R   0.953347 0.500487 0.498639 0.055700
C18   C     C_R   0.046652 0.499476 0.501365 0.055705
C19   C     C_R   0.915874 0.562823 0.663051 0.102119
C20   C     C_R   0.084125 0.437153 0.336952 0.102117
C21   C     C_R   0.936098 0.375770 0.168774 -0.034862
C22   C     C_R   0.063901 0.624173 0.831240 -0.034868
Cu1   Cu    Cu3+1 0.510010 0.517380 0.684380 0.981139
Cu2   Cu    Cu3+1 0.489990 0.482620 0.315620 0.981135
H1    H     H_    0.794655 0.610696 0.787931 0.157601
H2    H     H_    0.205344 0.389315 0.212069 0.157603
H3    H     H_    0.058450 0.327859 0.047002 0.156105
H4    H     H_    0.941550 0.672112 0.953009 0.156103
N1    N     N_2   0.474890 0.456420 0.038520 -0.212276
N2    N     N_2   0.525110 0.543580 0.961480 -0.212274
O1    O     O_R   0.506510 0.286130 0.619770 -0.587835
O2    O     O_R   0.493490 0.713870 0.380230 -0.587838
O3    O     O_R   0.489600 0.256770 0.308360 -0.589410
O4    O     O_R   0.510400 0.743230 0.691640 -0.589403
O5    O     O_R   0.378710 0.514640 0.655720 -0.598074
O6    O     O_R   0.621290 0.485360 0.344280 -0.598075
O7    O     O_R   0.361800 0.485290 0.344300 -0.596944
O8    O     O_R   0.638200 0.514710 0.655700 -0.596943
H5    H     H_    0.760270 0.394927 0.208733 0.174113
H6    H     H_    0.239729 0.605043 0.791270 0.174112
C23   C     C_1   0.882393 0.308454 0.995827 0.236455
N3    N     N_1   0.839483 0.254296 0.857416 -0.260304
C24   C     C_1   0.117607 0.691480 0.004203 0.236426
N4    N     N_1   0.160516 0.745645 0.142630 -0.260302
C25   C     C_1   0.425584 0.948571 0.269533 0.314871
N5    N     N_1   0.379765 0.881428 0.139731 -0.256652
C26   C     C_1   0.574427 0.051424 0.730439 0.314868
N6    N     N_1   0.620263 0.118563 0.860210 -0.256650
C27   C     C_1   0.410618 0.347602 0.927341 0.560769
N7    N     N_1   0.356570 0.256032 0.836619 -0.350669
C28   C     C_1   0.589381 0.652398 0.072659 0.560775
N8    N     N_1   0.643429 0.743968 0.163381 -0.350670

loop_
_geom_bond_atom_site_label_1
_geom_bond_atom_site_label_2
_ccdc_geom_bond_type
C24   N4    T    
Cu2   O2    S    
N1    N2    D    
C14   C16   A    
Cu1   O8    S    
C4    C22   A    
C23   N3    T    
C18   C20   A    
C26   N6    T    
C13   C15   A    
C15   C21   A    
N2    C28   S    
Cu1   O4    S    
C10   H2    S    
C3    H3    S    
Cu2   O7    S    
C7    O7    A    
C9    H1    S    
C3    C20   A    
N1    C27   S    
C25   N5    T    
C9    C11   A    
C2    O4    A    
Cu2   O6    S    
C8    O8    A    
C2    C6    S    
C21   C23   S    
C10   C12   A    
C7    O5    A    
C16   C18   A    
C17   C19   A    
C14   H6    S    
C12   C14   A    
C17   C18   A    
Cu1   O5    S    
C8    C11   S    
C5    C6    D    
C1    C5    S    
C7    C12   S    
C3    C21   A    
C11   C13   A    
C13   H5    S    
C6    C26   S    
Cu1   Cu2   S    
C1    O3    A    
C28   N8    T    
Cu1   N2    S    
C1    O1    A    
C2    O2    A    
C27   N7    T    
C8    O6    A    
C15   C17   A    
Cu2   N1    S    
C16   C22   A    
C4    H4    S    
C4    C19   A    
C5    C25   S    
C9    C19   A    
C22   C24   S    
Cu2   O3    S    
C10   C20   A    
Cu1   O1    S    
