data_mof_unit_40979.cif
_audit_creation_date              2012-12-11T14:41:06-0500
_audit_creation_method            fapswitch 2.2
_symmetry_space_group_name_H-M    P1
_symmetry_Int_Tables_number       1
_space_group_crystal_system       triclinic
_cell_length_a                    6.940752
_cell_length_b                    17.815063
_cell_length_c                    18.945218
_cell_angle_alpha                 89.99973
_cell_angle_beta                  90.001632
_cell_angle_gamma                 90.000758
_cell_volume                      2342.57495693

loop_
_atom_site_label
_atom_site_type_symbol
_atom_type_description
_atom_site_fract_x
_atom_site_fract_y
_atom_site_fract_z
_atom_type_partial_charge
O1    O     O_R   0.377350 0.828520 0.186660 -0.538426
O2    O     O_R   0.622650 0.171480 0.813340 -0.538426
O3    O     O_R   0.122650 0.171480 0.686660 -0.538426
O4    O     O_R   0.877350 0.828520 0.313340 -0.538426
O5    O     O_R   0.877350 0.671480 0.313340 -0.538424
O6    O     O_R   0.122650 0.328520 0.686660 -0.538424
O7    O     O_R   0.622650 0.328520 0.813340 -0.538423
O8    O     O_R   0.377350 0.671480 0.186660 -0.538423
O9    O     O_R   0.707090 0.671930 0.178410 -0.541976
O10   O     O_R   0.292910 0.328070 0.821590 -0.541976
O11   O     O_R   0.792910 0.328070 0.678410 -0.541980
O12   O     O_R   0.207090 0.671930 0.321590 -0.541980
O13   O     O_R   0.207090 0.828070 0.321590 -0.541986
O14   O     O_R   0.792910 0.171930 0.678410 -0.541986
O15   O     O_R   0.292910 0.171930 0.821590 -0.541983
O16   O     O_R   0.707090 0.828070 0.178410 -0.541983
C1    C     C_R   0.540009 0.645674 0.161349 0.701198
C2    C     C_R   0.459991 0.354326 0.838651 0.701197
C3    C     C_R   0.959987 0.354326 0.661349 0.701209
C4    C     C_R   0.040013 0.645674 0.338651 0.701209
C5    C     C_R   0.040016 0.854328 0.338649 0.701200
C6    C     C_R   0.959984 0.145672 0.661350 0.701200
C7    C     C_R   0.459988 0.145674 0.838650 0.701197
C8    C     C_R   0.540012 0.854326 0.161350 0.701197
O17   O     O_3   0.543850 0.750000 0.294270 -0.368174
O18   O     O_3   0.456150 0.250000 0.705730 -0.368174
O19   O     O_3   0.956150 0.250000 0.794270 -0.368169
O20   O     O_3   0.043850 0.750000 0.205730 -0.368170
V1    V     V_3+5 0.818700 0.750000 0.241790 1.400352
V2    V     V_3+5 0.181300 0.250000 0.758210 1.400352
V3    V     V_3+5 0.681300 0.250000 0.741790 1.400349
V4    V     V_3+5 0.318700 0.750000 0.258210 1.400349
C9    C     C_R   0.955533 0.415352 0.607463 -0.069655
C10   C     C_R   0.044467 0.584648 0.392537 -0.069655
C11   C     C_R   0.544445 0.584645 0.107467 -0.069656
C12   C     C_R   0.455555 0.415355 0.892533 -0.069656
C13   C     C_R   0.455535 0.084646 0.892535 -0.069646
C14   C     C_R   0.544465 0.915354 0.107465 -0.069646
C15   C     C_R   0.044479 0.915351 0.392539 -0.069656
C16   C     C_R   0.955521 0.084649 0.607461 -0.069656
C17   C     C_R   0.235110 0.489883 0.455037 -0.199944
C18   C     C_R   0.764890 0.510117 0.544963 -0.199944
C19   C     C_R   0.264986 0.510157 0.954996 -0.199912
C20   C     C_R   0.735014 0.489843 0.045004 -0.199912
C21   C     C_R   0.735108 0.010120 0.044969 -0.199935
C22   C     C_R   0.264892 0.989880 0.955031 -0.199935
C23   C     C_R   0.764823 0.989916 0.544929 -0.199966
C24   C     C_R   0.235177 0.010083 0.455070 -0.199966
C25   C     C_R   0.214457 0.541856 0.400340 -0.161244
C26   C     C_R   0.785543 0.458144 0.599660 -0.161244
C27   C     C_R   0.285630 0.458176 0.900306 -0.161258
C28   C     C_R   0.714370 0.541824 0.099694 -0.161258
C29   C     C_R   0.714458 0.958147 0.099667 -0.161223
C30   C     C_R   0.285542 0.041853 0.900333 -0.161223
C31   C     C_R   0.785488 0.041880 0.599635 -0.161230
C32   C     C_R   0.214512 0.958120 0.400365 -0.161230
C33   C     C_R   0.892676 0.572789 0.440324 -0.240960
C34   C     C_R   0.107324 0.427211 0.559676 -0.240960
C35   C     C_R   0.607280 0.427187 0.940347 -0.240969
C36   C     C_R   0.392720 0.572813 0.059653 -0.240969
C37   C     C_R   0.392686 0.927205 0.059670 -0.240978
C38   C     C_R   0.607314 0.072794 0.940330 -0.240978
C39   C     C_R   0.107343 0.072774 0.559691 -0.240965
C40   C     C_R   0.892657 0.927226 0.440309 -0.240965
C41   C     C_R   0.913489 0.520781 0.496154 0.160258
C42   C     C_R   0.086511 0.479219 0.503846 0.160258
C43   C     C_R   0.586475 0.479202 0.996171 0.160246
C44   C     C_R   0.413525 0.520798 0.003829 0.160246
C45   C     C_R   0.413495 0.979216 0.003842 0.160254
C46   C     C_R   0.586505 0.020784 0.996158 0.160254
C47   C     C_R   0.086532 0.020768 0.503858 0.160271
C48   C     C_R   0.913467 0.979232 0.496142 0.160271
H1    H     H_    0.238270 0.394424 0.564442 0.123157
H2    H     H_    0.761730 0.605576 0.435557 0.123157
H3    H     H_    0.261842 0.605629 0.064392 0.123163
H4    H     H_    0.738158 0.394371 0.935608 0.123163
H5    H     H_    0.738239 0.105592 0.935574 0.123157
H6    H     H_    0.261761 0.894408 0.064426 0.123156
H7    H     H_    0.761691 0.894451 0.435530 0.123159
H8    H     H_    0.238309 0.105548 0.564470 0.123159
H9    H     H_    0.368417 0.458565 0.459500 0.122796
H10   H     H_    0.631583 0.541435 0.540500 0.122796
H11   H     H_    0.131726 0.541498 0.959436 0.122810
H12   H     H_    0.868274 0.458502 0.040564 0.122810
H13   H     H_    0.868430 0.041431 0.040504 0.122788
H14   H     H_    0.131570 0.958569 0.959496 0.122788
H15   H     H_    0.631470 0.958626 0.540442 0.122781
H16   H     H_    0.368530 0.041374 0.459558 0.122781
H17   H     H_    0.665838 0.450713 0.635679 0.128707
H18   H     H_    0.334162 0.549287 0.364320 0.128707
H19   H     H_    0.834036 0.549239 0.135731 0.128706
H20   H     H_    0.165964 0.450761 0.864269 0.128706
H21   H     H_    0.165813 0.049289 0.864316 0.128698
H22   H     H_    0.834187 0.950711 0.135684 0.128698
H23   H     H_    0.334243 0.950679 0.364358 0.128711
H24   H     H_    0.665757 0.049321 0.635642 0.128711

loop_
_geom_bond_atom_site_label_1
_geom_bond_atom_site_label_2
_ccdc_geom_bond_type
C32   H23   S    
C9    C34   A    
C19   H11   S    
O13   V4    S    
C18   H10   S    
O14   V3    S    
C12   C35   A    
C13   C38   A    
O5    C4    A    
O6    C3    A    
O11   C3    A    
C16   C39   A    
O20   V1    S    
C38   C46   A    
C30   H21   S    
C38   H5    S    
C35   C43   A    
C34   C42   A    
C19   C44   A    
C22   C45   A    
C18   C41   A    
C8    C14   S    
C24   H16   S    
C25   H18   S    
O4    V1    S    
O9    V1    S    
C14   C37   A    
C4    C10   S    
C20   C28   A    
O17   V4    S    
O15   C7    A    
C29   H22   S    
O11   V3    S    
O18   V3    S    
O16   C8    A    
O12   V4    S    
O19   V2    S    
C22   C30   A    
C17   C25   A    
O5    V1    S    
C39   H8    S    
O17   V1    S    
O7    V3    S    
C20   C43   A    
O19   V3    S    
C43   C44   A    
O8    V4    S    
O20   V4    S    
C3    C9    S    
C6    C16   S    
O3    C6    A    
C9    C26   A    
C7    C13   S    
O1    V4    S    
O2    V3    S    
C23   H15   S    
C33   H2    S    
O3    V2    S    
C21   H13   S    
C15   C40   A    
C27   H20   S    
C10   C33   A    
O10   V2    S    
C26   H17   S    
C15   C32   A    
C5    C15   S    
C37   H6    S    
O7    C2    A    
C17   H9    S    
O12   C4    A    
O13   C5    A    
C12   C27   A    
C18   C26   A    
C13   C30   A    
O9    C1    A    
O6    V2    S    
C39   C47   A    
O18   V2    S    
C40   H7    S    
C24   C47   A    
C11   C28   A    
O15   V2    S    
C23   C31   A    
C37   C45   A    
C24   C32   A    
C10   C25   A    
C21   C46   A    
C33   C41   A    
C31   H24   S    
C20   H12   S    
C16   C31   A    
C17   C42   A    
C36   H3    S    
O8    C1    A    
O14   C6    A    
O16   V1    S    
C47   C48   A    
O4    C5    A    
C19   C27   A    
C14   C29   A    
O10   C2    A    
C40   C48   A    
C45   C46   A    
C23   C48   A    
C21   C29   A    
C36   C44   A    
O1    C8    A    
C41   C42   A    
O2    C7    A    
C11   C36   A    
C28   H19   S    
C1    C11   S    
C2    C12   S    
C35   H4    S    
C34   H1    S    
C22   H14   S    
