data_mof_unit_67495.cif
_audit_creation_date              2013-03-05T15:41:00-0500
_audit_creation_method            fapswitch 2.2
_symmetry_space_group_name_H-M    P1
_symmetry_Int_Tables_number       1
_space_group_crystal_system       triclinic
_cell_length_a                    11.051231
_cell_length_b                    8.895278
_cell_length_c                    7.512566
_cell_angle_alpha                 103.142652
_cell_angle_beta                  91.868645
_cell_angle_gamma                 96.834446
_cell_volume                      712.698462343

loop_
_atom_site_label
_atom_site_type_symbol
_atom_site_description
_atom_site_fract_x
_atom_site_fract_y
_atom_site_fract_z
_atom_type_partial_charge
O1    O     O_R   0.509140 0.286130 0.619770 -0.568466
O2    O     O_R   0.485380 0.256770 0.308360 -0.567251
C1    C     C_R   0.501736 0.200935 0.453711 0.835413
O3    O     O_R   0.329570 0.514650 0.655700 -0.550174
O4    O     O_R   0.305810 0.485300 0.344290 -0.494127
C2    C     C_R   0.259028 0.499311 0.503790 0.854721
Cu1   Cu    Cu3+1 0.514070 0.517380 0.684380 1.078758
Cu2   Cu    Cu3+1 0.485930 0.482620 0.315620 1.096522
O5    O     O_R   0.514620 0.743230 0.691640 -0.547544
O6    O     O_R   0.490860 0.713870 0.380230 -0.607352
O7    O     O_R   0.694190 0.514700 0.655710 -0.573950
O8    O     O_R   0.670430 0.485350 0.344300 -0.601591
C3    C     C_R   0.517926 0.800049 0.545440 0.963704
C4    C     C_R   0.739601 0.509418 0.495283 0.834983
C5    C     C_3   0.054596 0.428445 0.647725 -0.190670
H1    H     H_    0.095007 0.490014 0.782370 0.259722
C6    C     C_3   0.920317 0.457477 0.655847 -0.507500
H2    H     H_    0.859513 0.351506 0.668277 0.200765
H3    H     H_    0.911181 0.541270 0.786264 0.258716
H4    H     H_    0.097182 0.713553 0.704501 0.114877
C7    C     C_3   0.086980 0.679957 0.552733 0.133955
C8    C     C_3   0.057755 0.421791 0.311587 -0.314642
C9    C     C_3   0.119405 0.507470 0.504269 -0.130127
H5    H     H_    0.085993 0.488559 0.209974 0.278486
H6    H     H_    0.090546 0.307184 0.261535 0.208210
C10   C     C_3   0.876641 0.517135 0.486286 -0.082499
C11   C     C_3   0.947435 0.690647 0.504297 0.532710
C12   C     C_3   0.917026 0.394724 0.316576 -0.050913
H7    H     H_    0.894314 0.277595 0.345409 0.206022
C13   C     C_2   0.503621 0.033882 0.433017 -0.259813
H8    H     H_    0.470601 0.960110 0.300273 0.177562
C14   C     C_2   0.537171 0.969840 0.571999 0.052651
N1    N     N_2   0.464720 0.456420 0.038520 0.066921
N2    N     N_2   0.535280 0.543580 0.961480 -0.194179
H9    H     H_    0.599999 0.618874 0.047371 0.235723
C15   C     C_3   0.854014 0.367690 0.123219 -0.722529
H10   H     H_    0.760705 0.303923 0.116129 0.231574
H11   H     H_    0.848891 0.474022 0.074650 0.309194
H12   H     H_    0.905053 0.291441 0.022499 0.240870
S1    S     S_3+6 0.200852 0.823764 0.504700 0.058191
O9    O     O_2   0.257910 0.766462 0.327589 -0.232829
O10   O     O_2   0.152743 0.970657 0.496781 -0.228754
O11   O     O_3   0.303083 0.865979 0.684372 -0.539390
H13   H     H_    0.260208 0.918580 0.789920 0.393051
S2    S     S_3+6 0.925554 0.762587 0.294915 0.072388
O12   O     O_2   0.949398 0.936787 0.330631 -0.233555
O13   O     O_2   0.006394 0.699761 0.146777 -0.286743
O14   O     O_3   0.780157 0.715639 0.214318 -0.559497
H14   H     H_    0.737586 0.804356 0.272665 0.357568
C16   C     C_3   0.594114 0.064583 0.757002 -0.636722
H15   H     H_    0.634806 0.990938 0.837654 0.246035
H16   H     H_    0.669383 0.153216 0.738520 0.221424
H17   H     H_    0.524651 0.120914 0.841628 0.277852
S3    S     S_3+6 0.330694 0.337501 0.954732 0.129947
O15   O     O_2   0.295963 0.238457 0.086803 -0.256879
O16   O     O_2   0.235809 0.442876 0.959118 -0.331423
O17   O     O_3   0.328273 0.207543 0.755313 -0.498723
H18   H     H_    0.296469 0.255073 0.661492 0.353985
C17   C     C_3   0.063589 0.254581 0.618209 -0.558648
H19   H     H_    0.093655 0.227409 0.747777 0.302097
H20   H     H_    0.976103 0.179641 0.571349 0.283015
H21   H     H_    0.126767 0.221859 0.510401 0.228168
S4    S     S_3+6 0.893606 0.837190 0.690928 -0.010958
O18   O     O_2   0.807976 0.927551 0.612818 -0.335747
O19   O     O_2   0.827211 0.770053 0.831962 -0.295001
O20   O     O_3   0.011558 0.965269 0.801336 -0.520173
H22   H     H_    0.028929 0.933918 0.916966 0.392589

loop_
_geom_bond_atom_site_label_1
_geom_bond_atom_site_label_2
_geom_bond_distance
_ccdc_geom_bond_type
C1    C13   1.461258 S    
C16   H16   1.110868 S    
O11   H13   0.990323 S    
S4    O19   1.500603 D    
C5    C6    1.537031 S    
O4    Cu2   2.011508 S    
C3    C14   1.466255 S    
C10   C12   1.591167 S    
Cu2   O8    2.039980 S    
C5    C9    1.563216 S    
C12   H7    1.113284 S    
S1    O10   1.480606 D    
C6    H2    1.114533 S    
C7    C11   1.591755 S    
S4    O20   1.682688 S    
C17   H19   1.105130 S    
C8    C12   1.548191 S    
S2    O12   1.500566 D    
C4    C10   1.512260 S    
Cu1   O7    2.011508 S    
C14   C16   1.523813 S    
O17   H18   0.976628 S    
O4    C2    1.306314 A    
C7    S1    1.790705 S    
C11   S4    1.851142 S    
O1    Cu1   1.996874 S    
O3    Cu1   2.039982 S    
O14   H14   0.990335 S    
C2    C9    1.553398 S    
C8    H5    1.100216 S    
C15   H11   1.095133 S    
S1    O9    1.500201 D    
C6    H3    1.103611 S    
O8    C4    1.307985 A    
O6    C3    1.306185 A    
N1    N2    1.278177 D    
O2    C1    1.314099 A    
Cu2   N1    2.043872 S    
S2    O13   1.499937 D    
C7    C9    1.581281 S    
C10   C11   1.619667 S    
C13   H8    1.086262 S    
Cu2   O6    1.996874 S    
O7    C4    1.313739 A    
S3    O16   1.483699 D    
C17   H20   1.104878 S    
C16   H17   1.105914 S    
C11   S2    1.847177 S    
C6    C10   1.570201 S    
S4    O18   1.498412 D    
C13   C14   1.359291 D    
Cu1   Cu2   2.720010 S    
O20   H22   0.990580 S    
Cu1   N2    2.043872 S    
C12   C15   1.545359 S    
O3    C2    1.332144 A    
N2    H9    1.017769 S    
S2    O14   1.668748 S    
N1    S3    1.724099 S    
Cu1   O5    1.996580 S    
C15   H12   1.111854 S    
O5    C3    1.309119 A    
S3    O15   1.499950 D    
C15   H10   1.109681 S    
C17   H21   1.098275 S    
C16   H15   1.109656 S    
H4    C7    1.109342 S    
C8    C9    1.565499 S    
C5    C17   1.527411 S    
S3    O17   1.668524 S    
S1    O11   1.675841 S    
O2    Cu2   1.996580 S    
C5    H1    1.087645 S    
O1    C1    1.298454 A    
C8    H6    1.111083 S    
