data_mof_unit_11729.cif
_audit_creation_date              2012-12-11T16:25:33-0500
_audit_creation_method            fapswitch 2.2
_symmetry_space_group_name_H-M    P1
_symmetry_Int_Tables_number       1
_space_group_crystal_system       triclinic
_cell_length_a                    20.573032
_cell_length_b                    7.286623
_cell_length_c                    13.051029
_cell_angle_alpha                 89.998378
_cell_angle_beta                  103.418024
_cell_angle_gamma                 90.001296
_cell_volume                      1903.04728445

loop_
_atom_site_label
_atom_site_type_symbol
_atom_type_description
_atom_site_fract_x
_atom_site_fract_y
_atom_site_fract_z
_atom_type_partial_charge
O1    O     O_R   0.449520 0.506760 0.599710 -0.534131
O2    O     O_R   0.550480 0.006760 0.400290 -0.534134
O3    O     O_R   0.587930 0.180200 0.595790 -0.537169
O4    O     O_R   0.412070 0.680200 0.404210 -0.537160
C1    C     C_R   0.613092 0.345033 0.621545 0.692223
C2    C     C_R   0.386908 0.845034 0.378453 0.692224
O5    O     O_R   0.452350 0.177380 0.611700 -0.540584
O6    O     O_R   0.547650 0.677380 0.388300 -0.540582
O7    O     O_R   0.413930 0.001760 0.416320 -0.535265
O8    O     O_R   0.586070 0.501760 0.583680 -0.535264
C3    C     C_R   0.435933 0.344809 0.638232 0.687183
C4    C     C_R   0.564074 0.844818 0.361777 0.687203
O9    O     O_3   0.487550 0.337460 0.435880 -0.377110
O10   O     O_3   0.512450 0.837460 0.564120 -0.377116
V1    V     V_3+5 0.502310 0.064670 0.511900 1.402197
V2    V     V_3+5 0.497690 0.564670 0.488100 1.402211
C5    C     C_R   0.609187 0.858596 0.097970 -0.132654
C6    C     C_R   0.390811 0.358116 0.902041 -0.132592
H1    H     H_    0.517875 0.853087 0.150888 0.107588
H2    H     H_    0.482130 0.352477 0.849147 0.107715
C7    C     C_R   0.603347 0.850199 0.281032 -0.047110
C8    C     C_R   0.396661 0.350136 0.718979 -0.047120
C9    C     C_R   0.923811 0.868601 0.320541 -0.250517
C10   C     C_R   0.076192 0.368674 0.679457 -0.250530
C11   C     C_R   0.888921 0.907848 0.396740 -0.076010
C12   C     C_R   0.111086 0.407944 0.603266 -0.076023
C13   C     C_R   0.819464 0.927142 0.370215 0.292935
C14   C     C_R   0.180543 0.427225 0.629797 0.292909
C15   C     C_R   0.783566 0.885840 0.265326 -0.023194
C16   C     C_R   0.216439 0.385847 0.734680 -0.023211
C17   C     C_R   0.820582 0.867865 0.185439 0.015746
C18   C     C_R   0.179419 0.367807 0.814561 0.015738
C19   C     C_R   0.712417 0.867476 0.236183 0.050610
C20   C     C_R   0.287587 0.367413 0.763821 0.050577
C21   C     C_R   0.679360 0.862980 0.127910 0.121800
C22   C     C_R   0.320640 0.362686 0.872094 0.121826
C23   C     C_R   0.716497 0.858851 0.050836 -0.176518
C24   C     C_R   0.283500 0.358492 0.949162 -0.176519
C25   C     C_R   0.786006 0.856435 0.079124 -0.173075
C26   C     C_R   0.213991 0.356213 0.920871 -0.173086
C27   C     C_R   0.673020 0.844210 0.310952 -0.259887
C28   C     C_R   0.326987 0.344277 0.689046 -0.259833
C29   C     C_R   0.571618 0.856061 0.174382 -0.177568
C30   C     C_R   0.428387 0.355660 0.825638 -0.177679
C31   C     C_R   0.891520 0.863562 0.213979 -0.090569
C32   C     C_R   0.108481 0.363576 0.786019 -0.090570
H3    H     H_    0.812529 0.846641 0.016723 0.126981
H4    H     H_    0.187465 0.346358 0.983266 0.126992
C33   C     C_R   0.224716 0.827299 0.030451 -0.208748
C34   C     C_R   0.775273 0.327452 0.969555 -0.208739
C35   C     C_R   0.276941 0.826470 0.979557 -0.125345
C36   C     C_R   0.723044 0.326723 0.020444 -0.125330
C37   C     C_R   0.343260 0.840708 0.037227 0.349292
C38   C     C_R   0.656727 0.340968 0.962762 0.349271
C39   C     C_R   0.356036 0.843924 0.147886 -0.226170
C40   C     C_R   0.643957 0.344093 0.852104 -0.226176
C41   C     C_R   0.303514 0.844604 0.201533 0.022339
C42   C     C_R   0.696482 0.344682 0.798464 0.022344
C43   C     C_R   0.236359 0.842560 0.141481 0.060634
C44   C     C_R   0.763636 0.342633 0.858522 0.060620
C45   C     C_R   0.317002 0.855070 0.312932 -0.129513
C46   C     C_R   0.682998 0.355069 0.687065 -0.129492
C47   C     C_R   0.263794 0.884869 0.363224 0.033222
C48   C     C_R   0.736208 0.384811 0.636771 0.033221
C49   C     C_R   0.195901 0.894633 0.303942 -0.029200
C50   C     C_R   0.804101 0.394587 0.696055 -0.029197
C51   C     C_R   0.182113 0.863219 0.191314 -0.141395
C52   C     C_R   0.817885 0.363220 0.808688 -0.141385
C53   C     C_R   0.278481 0.910066 0.473559 -0.233830
C54   C     C_R   0.721523 0.409958 0.526433 -0.233849
C55   C     C_R   0.229116 0.941525 0.526998 -0.204142
C56   C     C_R   0.770888 0.441410 0.472993 -0.204113
C57   C     C_R   0.162224 0.948304 0.473437 0.375970
C58   C     C_R   0.837780 0.448224 0.526555 0.375964
C59   C     C_R   0.145899 0.937783 0.361692 0.181773
C60   C     C_R   0.854104 0.437719 0.638303 0.181801
H5    H     H_    0.174880 0.821414 0.980341 0.130972
H6    H     H_    0.825108 0.321560 0.019669 0.130948
H7    H     H_    0.264372 0.819863 0.894455 0.121846
H8    H     H_    0.735609 0.320187 0.105547 0.121835
O11   O     O_R   0.913760 0.203480 0.916370 -0.538662
O12   O     O_R   0.086240 0.703480 0.083630 -0.538658
O13   O     O_R   0.047590 0.535230 0.888250 -0.537880
O14   O     O_R   0.952410 0.035230 0.111750 -0.537884
C61   C     C_R   0.066907 0.368870 0.864924 0.689572
C62   C     C_R   0.933093 0.868866 0.135075 0.689561
O15   O     O_R   0.912020 0.532880 0.904260 -0.527867
O16   O     O_R   0.087980 0.032880 0.095740 -0.527872
O17   O     O_R   0.949590 0.708460 0.099750 -0.537054
O18   O     O_R   0.050410 0.208460 0.900250 -0.537049
C63   C     C_R   0.886850 0.365470 0.879018 0.700797
C64   C     C_R   0.113148 0.865469 0.120986 0.700770
O19   O     O_3   0.012370 0.375360 0.064120 -0.382220
O20   O     O_3   0.987630 0.875360 0.935880 -0.382211
V3    V     V_3+5 0.997700 0.648160 0.988110 1.366492
V4    V     V_3+5 0.002300 0.148160 0.011890 1.366484
N1    N     N_2   0.398015 0.856341 0.987189 -0.530516
H9    H     H_    0.433766 0.949548 0.022935 0.248445
C65   C     C_3   0.385624 0.859283 0.873244 -0.539204
H10   H     H_    0.433931 0.867243 0.849260 0.201329
H11   H     H_    0.354974 0.980472 0.841048 0.201909
H12   H     H_    0.359896 0.731989 0.839294 0.211080
N2    N     N_2   0.601967 0.356698 0.012784 -0.530575
H13   H     H_    0.566217 0.449882 0.977001 0.248501
C66   C     C_3   0.614351 0.359703 0.126728 -0.539172
H14   H     H_    0.566041 0.367683 0.150701 0.201350
H15   H     H_    0.645002 0.480903 0.158902 0.201957
H16   H     H_    0.640077 0.232425 0.160709 0.211035
H17   H     H_    0.407551 0.851570 0.191549 0.087029
H18   H     H_    0.592444 0.351749 0.808435 0.087009
H19   H     H_    0.328867 0.903720 0.521669 0.145246
H20   H     H_    0.671137 0.403595 0.478323 0.145225
H21   H     H_    0.244273 0.958059 0.611480 0.135147
H22   H     H_    0.755730 0.457919 0.388510 0.135130
N3    N     N_2   0.079822 0.986863 0.310784 -0.562396
H23   H     H_    0.052956 0.899771 0.255533 0.238698
C67   C     C_3   0.065209 0.181377 0.303342 -0.466610
H24   H     H_    0.011286 0.204150 0.269682 0.202050
H25   H     H_    0.095070 0.250806 0.253994 0.206251
H26   H     H_    0.076781 0.243661 0.382691 0.178768
N4    N     N_2   0.920182 0.486782 0.689212 -0.562408
H27   H     H_    0.947043 0.399683 0.744467 0.238701
C68   C     C_3   0.934813 0.681288 0.696634 -0.466739
H28   H     H_    0.988742 0.704032 0.730267 0.202041
H29   H     H_    0.904971 0.750751 0.745995 0.206291
H30   H     H_    0.923233 0.743562 0.617283 0.178782
H31   H     H_    0.691600 0.852811 0.968042 0.130521
H32   H     H_    0.308393 0.352288 0.031953 0.130515
H33   H     H_    0.583410 0.857135 0.015512 0.125926
H34   H     H_    0.416583 0.356425 0.984501 0.125896
H35   H     H_    0.695364 0.817356 0.392832 0.153225
H36   H     H_    0.304647 0.317566 0.607151 0.153231
H37   H     H_    0.976870 0.852011 0.345605 0.142210
H38   H     H_    0.023133 0.352103 0.654388 0.142265
N5    N     N_2   0.789028 0.023104 0.442141 -0.538836
H39   H     H_    0.745537 0.094310 0.412494 0.264924
C69   C     C_3   0.800044 0.957741 0.549471 -0.554875
H40   H     H_    0.760626 0.012023 0.586596 0.203970
H41   H     H_    0.849076 0.007077 0.595864 0.194265
H42   H     H_    0.797721 0.806048 0.551436 0.208041
N6    N     N_2   0.210980 0.523216 0.557880 -0.538854
H43   H     H_    0.254468 0.594436 0.587535 0.264901
C70   C     C_3   0.199970 0.457860 0.450550 -0.554865
H44   H     H_    0.239386 0.512172 0.413426 0.203975
H45   H     H_    0.150935 0.507170 0.404154 0.194251
H46   H     H_    0.202302 0.306167 0.448588 0.208032
H47   H     H_    0.917176 0.936921 0.475740 0.122164
H48   H     H_    0.082833 0.437044 0.524267 0.122168
N7    N     N_2   0.110494 0.975002 0.529584 -0.515803
H49   H     H_    0.062772 0.942495 0.488951 0.271558
C71   C     C_3   0.122891 0.927970 0.640402 -0.552937
H50   H     H_    0.076197 0.944880 0.668384 0.192160
H51   H     H_    0.160833 0.020604 0.688102 0.207495
H52   H     H_    0.139520 0.783644 0.653165 0.212023
N8    N     N_2   0.889507 0.474977 0.470405 -0.515835
H53   H     H_    0.937237 0.442550 0.511040 0.271564
C72   C     C_3   0.877118 0.427951 0.359588 -0.552895
H54   H     H_    0.923803 0.445020 0.331596 0.192169
H55   H     H_    0.839143 0.520494 0.311886 0.207449
H56   H     H_    0.860541 0.283578 0.346835 0.212025

loop_
_geom_bond_atom_site_label_1
_geom_bond_atom_site_label_2
_ccdc_geom_bond_type
C42   C46   A    
C70   H46   S    
C50   C52   A    
O16   V4    S    
O4    V2    S    
C72   H54   S    
C9    C31   A    
O15   C63   A    
C13   C15   A    
N3    C67   S    
O1    C3    A    
O2    C4    A    
C2    O7    A    
C47   C49   A    
N1    H9    S    
N5    H39   S    
O5    C3    A    
C69   H41   S    
C58   C60   A    
C60   N4    S    
C2    C45   S    
O19   V4    S    
C21   C23   A    
C10   C12   A    
C67   H25   S    
C68   H29   S    
N8    C72   S    
C42   C44   A    
C70   H44   S    
C15   C19   A    
C52   C63   S    
O12   C64   A    
C55   H21   S    
C45   C47   A    
O14   V4    S    
C71   H52   S    
C53   C55   A    
C26   H4    S    
C46   C48   A    
N1    C65   S    
C7    C29   A    
N6    H43   S    
N2    C66   S    
C8    C30   A    
C47   C53   A    
H1    C29   S    
C14   C16   A    
C49   C51   A    
C20   C28   A    
C65   H12   S    
C58   N8    S    
C34   C36   A    
C71   H50   S    
C48   C54   A    
C40   C42   A    
C16   C18   A    
C32   C61   S    
C43   C51   A    
O6    V2    S    
O5    V1    S    
C50   C60   A    
C72   H55   S    
N5    C69   S    
C39   H17   S    
C57   C59   A    
C34   H6    S    
C40   H18   S    
C66   H16   S    
C36   C38   A    
C37   C39   A    
C69   H42   S    
C38   C40   A    
C16   C20   A    
C5    H33   S    
O16   C64   A    
C38   N2    S    
C68   H28   S    
C19   C27   A    
C56   C58   A    
C67   H26   S    
C27   H35   S    
O11   V4    S    
C9    H37   S    
C68   H30   S    
C33   C35   A    
C4    C7    S    
C36   H8    S    
O15   V3    S    
C35   C37   A    
N6    C70   S    
C48   C50   A    
O17   V3    S    
C5    C29   A    
C6    C30   A    
C66   H15   S    
C65   H10   S    
O6    C4    A    
O13   V3    S    
O18   V4    S    
C11   H47   S    
O1    V2    S    
C12   H48   S    
O2    V1    S    
N4    H27   S    
C54   H20   S    
C7    C27   A    
O4    C2    A    
O13   C61   A    
H2    C30   S    
C72   H56   S    
C39   C41   A    
C17   C31   A    
C6    H34   S    
C59   N3    S    
N2    H13   S    
C18   C26   A    
O3    V1    S    
C25   H3    S    
C66   H14   S    
C10   H38   S    
C70   H45   S    
O12   V3    S    
C65   H11   S    
C18   C32   A    
O14   C62   A    
O3    C1    A    
C62   O17   A    
C33   C43   A    
C24   H32   S    
C61   O18   A    
C41   C45   A    
C11   C13   A    
C69   H40   S    
C3    C8    S    
C12   C14   A    
C49   C59   A    
C37   N1    S    
C34   C44   A    
N7    C71   S    
C31   C62   S    
O7    V1    S    
C13   N5    S    
C1    O8    A    
C15   C17   A    
O8    V2    S    
N7    H49   S    
C24   C26   A    
C53   H19   S    
C8    C28   A    
C28   H36   S    
C56   H22   S    
C22   C24   A    
C51   C64   S    
C19   C21   A    
C33   H5    S    
C1    C46   S    
C20   C22   A    
C71   H51   S    
O20   V3    S    
C35   H7    S    
N4    C68   S    
C41   C43   A    
O11   C63   A    
C9    C11   A    
C44   C52   A    
C23   C25   A    
C57   N7    S    
O9    V2    S    
C55   C57   A    
N8    H53   S    
C17   C25   A    
O10   V1    S    
C54   C56   A    
C14   N6    S    
C5    C21   A    
C67   H24   S    
C6    C22   A    
N3    H23   S    
C10   C32   A    
C23   H31   S    
