data_mof_unit_24364.cif
_audit_creation_date              2012-12-11T20:41:09-0500
_audit_creation_method            fapswitch 2.2
_symmetry_space_group_name_H-M    P1
_symmetry_Int_Tables_number       1
_space_group_crystal_system       triclinic
_cell_length_a                    8.441543
_cell_length_b                    18.692231
_cell_length_c                    26.828073
_cell_angle_alpha                 95.811882
_cell_angle_beta                  92.780026
_cell_angle_gamma                 86.138831
_cell_volume                      4198.20980091

loop_
_atom_site_label
_atom_site_type_symbol
_atom_type_description
_atom_site_fract_x
_atom_site_fract_y
_atom_site_fract_z
_atom_type_partial_charge
Ba1   Ba    Ba6+2 0.852670 0.466460 0.522850 1.713943
Ba2   Ba    Ba6+2 0.337150 0.533490 0.477140 1.703636
Br1   Br    Br    0.004684 0.152125 0.420617 -0.545627
Br2   Br    Br    0.793207 0.350539 0.317096 -0.640018
Br3   Br    Br    0.522652 0.719660 0.708417 -0.609668
Br4   Br    Br    0.223722 0.706133 0.994835 -0.568586
Br5   Br    Br    0.429647 0.848982 0.543966 -0.601974
Br6   Br    Br    0.014828 0.899489 0.453251 -0.482517
C1    C     C_3   0.712728 0.229136 0.692515 -0.373098
C2    C     C_R   0.910445 0.565397 0.175947 0.568970
C3    C     C_2   0.750772 0.530719 0.271049 -0.075444
C4    C     C_3   0.127655 0.283669 0.659554 0.312991
C5    C     C_3   0.709474 0.524763 0.324836 -0.030887
C6    C     C_1   0.987095 0.495029 0.344317 0.125928
C7    C     C_2   0.026947 0.496231 0.297030 -0.093115
C8    C     C_2   0.902354 0.513485 0.257069 0.221311
C9    C     C_R   0.039251 0.498069 0.104636 -0.080729
C10   C     C_R   0.062579 0.438227 0.132653 -0.044014
C11   C     C_R   0.132288 0.373648 0.109823 -0.051254
C12   C     C_3   0.674505 0.287618 0.657625 0.346145
C13   C     C_R   0.962427 0.562045 0.126390 -0.035493
C14   C     C_2   0.854005 0.529002 0.360065 -0.265806
C15   C     C_2   0.338958 0.494825 0.646229 -0.185004
C16   C     C_3   0.253204 0.227871 0.678177 -0.219117
C17   C     C_R   0.176500 0.420722 0.978046 0.015373
C18   C     C_R   0.146748 0.552591 0.980005 -0.010878
C19   C     C_R   0.179632 0.483905 0.953221 0.020257
C20   C     C_R   0.200351 0.353596 0.949730 -0.099417
C21   C     C_R   0.228365 0.347109 0.898224 0.069893
C22   C     C_R   0.234326 0.410574 0.872921 -0.023112
C23   C     C_3   0.564225 0.735647 0.640074 0.493795
C24   C     C_R   0.217100 0.478645 0.901556 -0.097569
C25   C     C_R   0.238375 0.541934 0.878779 -0.083400
C26   C     C_R   0.273754 0.537369 0.827699 0.603238
C27   C     C_R   0.253022 0.409439 0.820147 0.561611
C28   C     C_3   0.106447 0.298303 0.404622 0.299405
C29   C     C_2   0.410254 0.433482 0.722333 -0.086352
C30   C     C_3   0.424426 0.429889 0.666259 -0.089759
C31   C     C_1   0.198427 0.516748 0.663493 -0.040883
C32   C     C_2   0.161315 0.507721 0.711113 -0.032481
C33   C     C_2   0.284738 0.470085 0.744203 0.263064
C34   C     C_3   0.720997 0.771087 0.643753 -0.312368
C35   C     C_R   0.147872 0.426504 0.030401 0.025527
C36   C     C_R   0.090056 0.493512 0.054363 0.052036
C37   C     C_R   0.079733 0.555762 0.028081 0.033404
C38   C     C_R   0.172306 0.367537 0.059647 -0.098906
C39   C     C_R   0.936084 0.620754 0.097647 -0.051582
C40   C     C_3   0.992851 0.238750 0.385339 0.079684
C41   C     C_R   0.186281 0.614571 0.957749 0.238469
C42   C     C_R   0.228697 0.608656 0.907824 -0.038534
C43   C     C_R   0.992659 0.617432 0.049386 -0.046856
C44   C     C_2   0.423951 0.305467 0.527181 -0.239361
C45   C     C_3   0.076136 0.688211 0.343821 0.335678
C46   C     C_3   0.343068 0.258448 0.559389 -0.077067
C47   C     C_2   0.389075 0.178815 0.548529 -0.096462
C48   C     C_2   0.511700 0.156304 0.519013 -0.061288
C49   C     C_2   0.591232 0.209749 0.493059 -0.136175
C50   C     C_1   0.539274 0.278262 0.497565 0.069455
C51   C     C_R   0.686455 0.939996 0.505761 0.571697
C52   C     C_3   0.153410 0.692283 0.645819 0.293092
C53   C     C_R   0.573020 0.080105 0.514198 0.486200
C54   C     C_R   0.632348 0.812945 0.518841 0.122650
C55   C     C_R   0.677643 0.738485 0.516431 -0.014586
C56   C     C_3   0.037882 0.715169 0.292264 -0.225521
C57   C     C_R   0.912692 0.759546 0.471456 -0.007571
C58   C     C_R   0.873005 0.834368 0.476546 0.162212
C59   C     C_R   0.732203 0.861450 0.500362 -0.112844
C60   C     C_R   0.814613 0.712605 0.491159 -0.314059
C61   C     C_3   0.139260 0.687327 0.702279 -0.371085
C62   C     C_3   0.617093 0.367201 0.361315 0.473052
C63   C     C_3   0.476732 0.360160 0.323705 -0.266475
C64   C     C_3   0.127154 0.773254 0.637688 -0.217115
C65   C     C_3   0.091300 0.786472 0.583438 -0.314848
C66   C     C_3   0.184087 0.737344 0.267011 -0.187318
C67   C     C_3   0.645452 0.704414 0.341873 0.299234
C68   C     C_3   0.264253 0.674362 0.234749 -0.368496
C69   C     C_3   0.497451 0.818245 0.378733 -0.182534
C70   C     C_3   0.450742 0.897054 0.372159 -0.341806
C71   C     C_3   0.256512 0.270848 0.873239 -0.163208
C72   C     C_3   0.431945 0.253188 0.862626 -0.372910
C73   C     C_3   0.008810 0.540406 0.734606 -0.206212
C74   C     C_3   0.919217 0.485454 0.759096 -0.305691
C75   C     C_3   0.182617 0.159084 0.691894 -0.189810
C76   C     C_3   0.133525 0.166032 0.746266 -0.418907
C77   C     C_3   0.272416 0.263343 0.412899 -0.213588
C78   C     C_3   0.611363 0.785181 0.338612 -0.227963
C79   C     C_3   0.335213 0.211876 0.368746 -0.344482
C80   C     C_R   0.015971 0.444228 0.182904 0.609710
H1    H     H_    0.722910 0.269698 0.620291 0.080275
H2    H     H_    0.493554 0.311630 0.296445 0.136855
H3    H     H_    0.459250 0.408471 0.302708 0.104495
H4    H     H_    0.369683 0.352632 0.342722 0.143831
H5    H     H_    0.542817 0.293533 0.653337 -0.088103
H6    H     H_    0.652568 0.179769 0.677904 0.088670
H7    H     H_    0.468470 0.771598 0.625445 0.039661
H8    H     H_    0.747400 0.791006 0.608184 0.050845
H9    H     H_    0.716887 0.818447 0.672345 0.127440
H10   H     H_    0.815372 0.731425 0.654987 0.157677
H11   H     H_    0.670835 0.247554 0.730581 0.115008
H12   H     H_    0.010740 0.221567 0.345036 0.135397
H13   H     H_    0.322281 0.253227 0.710851 0.125904
H14   H     H_    0.183009 0.650622 0.342469 0.106302
H15   H     H_    0.973903 0.658865 0.353472 -0.107407
H16   H     H_    0.979942 0.672400 0.267896 0.130635
H17   H     H_    0.950410 0.762263 0.296552 0.117461
H18   H     H_    0.733948 0.684278 0.313851 0.006925
H19   H     H_    0.694504 0.696076 0.380335 -0.027697
H20   H     H_    0.725041 0.812263 0.344116 0.100723
H21   H     H_    0.043052 0.299303 0.689661 0.090680
H22   H     H_    0.560033 0.793947 0.300583 0.122274
H23   H     H_    0.870823 0.260072 0.388751 0.155819
H24   H     H_    0.147583 0.480822 0.286336 0.114919
H25   H     H_    0.154302 0.326904 0.130557 0.130152
H26   H     H_    0.498313 0.404347 0.744790 0.084112
H27   H     H_    0.192285 0.304436 0.966995 0.067633
H28   H     H_    0.226913 0.316328 0.045126 0.075849
H29   H     H_    0.656319 0.540432 0.243169 0.101203
H30   H     H_    0.871287 0.669733 0.112369 0.136498
H31   H     H_    0.184716 0.334097 0.654158 -0.049535
H32   H     H_    0.256378 0.657086 0.891857 0.168367
H33   H     H_    0.959686 0.662448 0.028041 0.139694
H34   H     H_    0.274114 0.672949 0.633981 0.067903
H35   H     H_    0.848216 0.557874 0.397209 0.057052
H36   H     H_    0.406617 0.531832 0.628214 0.077185
H37   H     H_    0.330152 0.140472 0.567904 0.102348
H38   H     H_    0.691909 0.191808 0.470307 0.147968
H39   H     H_    0.396487 0.363126 0.533220 0.073201
H40   H     H_    0.848396 0.655512 0.488182 0.090989
H41   H     H_    0.339171 0.212193 0.648719 0.058506
H42   H     H_    0.067600 0.325864 0.440854 0.081754
H43   H     H_    0.183877 0.759178 0.559729 0.193176
H44   H     H_    0.976848 0.764658 0.570899 0.102301
H45   H     H_    0.217881 0.642595 0.714805 0.149078
H46   H     H_    0.083794 0.845159 0.579446 0.166808
H47   H     H_    0.028074 0.799460 0.659910 0.108406
H48   H     H_    0.232489 0.802377 0.652036 0.122659
H49   H     H_    0.289777 0.627209 0.256391 0.160915
H50   H     H_    0.185935 0.658337 0.201609 0.135454
H51   H     H_    0.377646 0.690756 0.221420 0.151882
H52   H     H_    0.145987 0.780091 0.242243 0.132757
H53   H     H_    0.270713 0.760588 0.295458 0.159072
H54   H     H_    0.558276 0.928171 0.372288 0.164573
H55   H     H_    0.381529 0.901426 0.336195 0.134009
H56   H     H_    0.013990 0.682153 0.711146 0.114011
H57   H     H_    0.376085 0.920554 0.403431 0.199498
H58   H     H_    0.388200 0.788227 0.376837 0.196208
H59   H     H_    0.555478 0.814350 0.416330 0.126535
H60   H     H_    0.476762 0.290750 0.837941 0.159081
H61   H     H_    0.504300 0.256507 0.898394 0.123927
H62   H     H_    0.447856 0.197531 0.844006 0.119193
H63   H     H_    0.221629 0.230479 0.897714 0.086783
H64   H     H_    0.178922 0.261748 0.839088 0.151573
H65   H     H_    0.924775 0.432482 0.736323 0.164936
H66   H     H_    0.968299 0.478415 0.797395 0.094988
H67   H     H_    0.179418 0.736246 0.725142 0.160838
H68   H     H_    0.793153 0.505277 0.763300 0.151728
H69   H     H_    0.036388 0.584564 0.763774 0.134792
H70   H     H_    0.928247 0.565800 0.707078 0.169115
H71   H     H_    0.240891 0.168679 0.771778 0.145851
H72   H     H_    0.054472 0.215165 0.754763 0.143561
H73   H     H_    0.069785 0.118175 0.753193 0.134691
H74   H     H_    0.079708 0.144770 0.666311 0.156454
H75   H     H_    0.274084 0.113557 0.687019 0.131621
H76   H     H_    0.281593 0.159149 0.366894 0.168798
H77   H     H_    0.308777 0.234378 0.332389 0.144833
H78   H     H_    0.615213 0.421817 0.381873 0.020138
H79   H     H_    0.465320 0.200936 0.374022 0.160603
H80   H     H_    0.347828 0.308698 0.420251 0.071305
H81   H     H_    0.275628 0.233477 0.446574 0.109872
H82   H     H_    0.842087 0.215778 0.694721 0.125312
N1    N     N_R   0.943102 0.507836 0.204469 -0.427887
N2    N     N_R   0.271034 0.472370 0.798390 -0.423084
N3    N     N_R   0.638424 0.973027 0.550443 -0.196190
N4    N     N_R   0.582056 0.041536 0.554551 -0.232668
N5    N     N_R   0.625728 0.047984 0.469837 -0.205912
N6    N     N_R   0.679954 0.979046 0.465593 -0.198214
O1    O     O_2   0.914730 0.537460 0.618690 -0.410561
O2    O     O_2   0.245066 0.750698 0.466238 -0.405525
O3    O     O_3   0.101203 0.747158 0.379296 -0.587066
O4    O     O_3   0.146720 0.537410 0.558510 -0.464628
O5    O     O_3   0.553920 0.415280 0.473710 -0.491405
O6    O     O_2   0.383540 0.672140 0.526840 -0.450302
O7    O     O_3   0.573217 0.667760 0.612055 -0.599774
O8    O     O_2   0.379471 0.547279 0.327456 -0.518178
O9    O     O_3   0.505887 0.668739 0.329715 -0.603495
O10   O     O_2   0.038028 0.392315 0.207230 -0.554129
O11   O     O_2   0.248424 0.353103 0.793080 -0.641612
O12   O     O_3   0.618872 0.311477 0.393227 -0.650529
O13   O     O_2   0.836840 0.619761 0.193690 -0.616454
O14   O     O_2   0.305662 0.591424 0.809087 -0.572254
O15   O     O_3   0.666360 0.409390 0.586570 -0.464410
O16   O     O_2   0.714166 0.492431 0.670675 -0.458969
O17   O     O_3   0.038719 0.652441 0.616694 -0.606402
O18   O     O_3   0.741893 0.352004 0.677715 -0.611242
O19   O     O_2   0.806150 0.327840 0.473120 -0.466537
O20   O     O_3   0.073640 0.373350 0.561550 -0.476123
O21   O     O_2   0.026467 0.243488 0.518293 -0.429102
O22   O     O_3   0.041668 0.255115 0.616291 -0.592415
O23   O     O_2   0.274960 0.462520 0.381280 -0.487721
O24   O     O_3   0.042980 0.462530 0.441480 -0.491583
O25   O     O_3   0.523340 0.590550 0.413420 -0.452297
O26   O     O_3   0.111755 0.347475 0.367844 -0.612305
O27   O     O_3   0.635780 0.584660 0.526290 -0.427092
O28   O     O_3   0.116060 0.626590 0.438450 -0.494812
P1    P     P_3+3 0.084800 0.558370 0.611580 1.016775
P2    P     P_3+3 0.628800 0.338360 0.458800 0.973317
P3    P     P_3+3 0.122805 0.281324 0.562522 0.981873
P4    P     P_3+3 0.104900 0.441570 0.388420 1.016212
P5    P     P_3+3 0.093694 0.720512 0.439892 1.031059
P6    P     P_3+3 0.636406 0.422628 0.650326 0.978088
P7    P     P_3+3 0.564768 0.672809 0.546709 1.022007
P8    P     P_3+3 0.533075 0.581754 0.348217 0.934914

loop_
_geom_bond_atom_site_label_1
_geom_bond_atom_site_label_2
_ccdc_geom_bond_type
O3    P5    S    
C47   C48   D    
C65   H43   S    
C67   H19   S    
C23   C34   S    
C6    P4    S    
C53   N5    A    
C12   H5    S    
C17   C35   A    
Br2   C62   S    
C73   C74   S    
C76   H72   S    
C11   C38   A    
C56   H17   S    
C4    O22   S    
C69   C70   S    
C17   C20   A    
C72   H62   S    
O19   P2    D    
O12   P2    S    
C18   C19   A    
C21   C22   A    
C66   C68   S    
C54   C59   A    
C75   C76   S    
Ba2   O24   S    
C20   C21   A    
Ba1   O19   S    
C16   C75   S    
C16   H13   S    
C34   H10   S    
Ba1   O4    S    
C15   C31   D    
C64   H48   S    
C50   P2    S    
O7    P7    S    
C7    C8    S    
Br1   C40   S    
C48   C49   S    
Ba1   Ba2   S    
Ba2   O6    S    
O23   P4    D    
C75   H75   S    
C67   C78   S    
C70   H57   S    
C51   C59   S    
C46   C47   S    
C74   H65   S    
Ba1   O1    S    
C16   H41   S    
C44   H39   S    
C39   H30   S    
C79   H79   S    
C63   H4    S    
C47   H37   S    
O1    P1    D    
O28   P5    S    
C62   C63   S    
C9    C13   A    
Ba1   P1    S    
C69   H59   S    
O25   P8    S    
C57   P5    S    
C18   C37   A    
C62   O12   S    
C74   H68   S    
C80   O10   D    
C58   C59   A    
O22   P3    S    
C65   H44   S    
O24   P4    S    
C80   N1    Am   
O26   P4    S    
C27   N2    Am   
C5    P8    S    
O27   P7    S    
C1    H82   S    
C67   O9    S    
Ba2   O25   S    
Ba2   O4    S    
C45   O3    S    
C12   O18   S    
C4    H21   S    
C76   H71   S    
C44   C46   S    
C52   O17   S    
O8    P8    D    
C37   C43   A    
C77   C79   S    
C2    C13   A    
C72   H61   S    
C40   H12   S    
C33   N2    S    
C2    O13   D    
C73   H69   S    
C53   N4    A    
Ba2   O23   S    
C26   O14   D    
Ba1   O20   S    
Ba2   O28   S    
C69   H58   S    
C51   N6    A    
C34   H9    S    
C31   C32   D    
Ba1   O5    S    
C10   C11   A    
C64   H47   S    
C39   C43   A    
C29   H26   S    
C2    N1    Am   
C68   H49   S    
C66   H52   S    
Br6   C58   S    
C10   C80   A    
O2    P5    D    
C61   H56   S    
Ba2   O5    S    
C35   C36   A    
Br5   C54   S    
C29   C30   S    
C20   H27   S    
C28   H42   S    
O18   P6    S    
C4    H31   S    
C3    C8    D    
C1    C12   S    
N5    N6    A    
C21   C71   S    
C45   H14   S    
C57   C60   A    
C79   H76   S    
C54   C55   A    
C9    C10   A    
O9    P8    S    
C61   H67   S    
C30   P6    S    
C52   H34   S    
Ba1   P2    S    
O16   P6    D    
C44   C50   D    
Ba1   O15   S    
C27   O11   D    
C32   C33   S    
C75   H74   S    
C69   C78   S    
C57   C58   A    
C46   P3    S    
C43   H33   S    
C34   H8    S    
C18   C41   A    
Ba1   O24   S    
Ba2   P4    S    
O4    P1    S    
Ba1   O27   S    
C49   H38   S    
C26   N2    Am   
C36   C37   A    
C71   H63   S    
C68   H51   S    
C56   H16   S    
C60   H40   S    
C55   C60   A    
C61   H45   S    
C73   H70   S    
C78   H22   S    
C19   C24   A    
C6    C7    D    
C77   H80   S    
C7    H24   S    
C66   H53   S    
C78   H20   S    
Ba2   O27   S    
C55   P7    S    
C64   C65   S    
C51   N3    A    
C11   H25   S    
C56   C66   S    
C15   H36   S    
C68   H50   S    
C28   C77   S    
C17   C19   A    
C15   C30   S    
C22   C27   A    
C12   H1    S    
C4    C16   S    
C42   H32   S    
C38   H28   S    
C32   C73   S    
C24   C25   A    
C6    C14   D    
O20   P3    S    
C70   H54   S    
O5    P2    S    
C25   C42   A    
C9    C36   A    
C14   H35   S    
C70   H55   S    
C22   C24   A    
C3    C5    S    
C8    N1    S    
C49   C50   D    
C79   H77   S    
C63   H2    S    
C52   C61   S    
C45   H15   S    
C23   H7    S    
C31   P1    S    
O6    P7    D    
C45   C56   S    
C25   C26   A    
C5    C14   S    
C28   C40   S    
C23   O7    S    
Br4   C41   S    
C29   C33   D    
C35   C38   A    
C77   H81   S    
C62   H78   S    
O21   P3    D    
O15   P6    S    
N3    N4    A    
C71   C72   S    
C74   H66   S    
C72   H60   S    
C40   H23   S    
C63   H3    S    
C65   H46   S    
C67   H18   S    
C1    H11   S    
C41   C42   A    
C52   C64   S    
C48   C53   S    
Br3   C23   S    
O17   P1    S    
C1    H6    S    
C28   O26   S    
C76   H73   S    
C71   H64   S    
C13   C39   A    
C3    H29   S    
