data_mof_unit_57841.cif
_audit_creation_date              2012-12-10T17:40:58-0500
_audit_creation_method            fapswitch 2.2
_symmetry_space_group_name_H-M    P1
_symmetry_Int_Tables_number       1
_space_group_crystal_system       triclinic
_cell_length_a                    14.994048
_cell_length_b                    13.934967
_cell_length_c                    11.680156
_cell_angle_alpha                 89.999873
_cell_angle_beta                  87.414862
_cell_angle_gamma                 90.000118
_cell_volume                      2437.98640404

loop_
_atom_site_label
_atom_site_type_symbol
_atom_type_description
_atom_site_fract_x
_atom_site_fract_y
_atom_site_fract_z
_atom_type_partial_charge
C1    C     C_R   0.329274 0.500059 0.502883 0.812249
C2    C     C_R   0.670726 0.500059 0.497117 0.812246
C3    C     C_R   0.911704 0.501390 0.391533 0.085930
C4    C     C_R   0.088296 0.501385 0.608466 0.085936
C5    C     C_R   0.941989 0.502787 0.706943 -0.222764
C6    C     C_R   0.058011 0.502798 0.293057 -0.222763
C7    C     C_R   0.034599 0.504123 0.710348 -0.186736
C8    C     C_R   0.965401 0.504134 0.289651 -0.186743
C9    C     C_R   0.437699 0.794878 0.566622 0.359978
C10   C     C_R   0.551589 0.205006 0.419843 0.359211
C11   C     C_R   0.562301 0.794879 0.433379 0.359977
C12   C     C_R   0.448411 0.205006 0.580156 0.359208
C13   C     C_R   0.557226 0.897186 0.423196 -0.048792
C14   C     C_R   0.440457 0.102705 0.573788 -0.047017
C15   C     C_R   0.442774 0.897186 0.576804 -0.048792
C16   C     C_R   0.559543 0.102705 0.426212 -0.047018
C17   C     C_R   0.500000 0.948559 0.500000 -0.075698
C18   C     C_R   0.500000 0.051316 0.500000 -0.077156
C19   C     C_R   0.611461 0.949979 0.342177 0.171277
C20   C     C_R   0.377689 0.049956 0.643986 0.175501
C21   C     C_R   0.388539 0.949978 0.657823 0.171278
C22   C     C_R   0.622311 0.049957 0.356014 0.175499
C23   C     C_R   0.500351 0.499992 0.284296 0.805595
C24   C     C_R   0.499649 0.499991 0.715704 0.805597
C25   C     C_1   0.500340 0.499906 0.162520 -0.194728
C26   C     C_1   0.499660 0.499906 0.837480 -0.194732
C27   C     C_1   0.500162 0.499758 0.059936 -0.010411
C28   C     C_1   0.499839 0.499758 0.940064 -0.010413
C29   C     C_R   0.817716 0.501716 0.389542 0.176403
C30   C     C_R   0.182284 0.501711 0.610457 0.176395
C31   C     C_R   0.767211 0.500520 0.494380 -0.112472
C32   C     C_R   0.232789 0.500520 0.505620 -0.112475
C33   C     C_R   0.808394 0.500117 0.598956 -0.291208
C34   C     C_R   0.191606 0.500122 0.401044 -0.291209
C35   C     C_R   0.900960 0.500670 0.601829 0.118253
C36   C     C_R   0.099040 0.500676 0.398170 0.118254
C37   C     C_R   0.953117 0.500309 0.498296 0.018197
C38   C     C_R   0.046882 0.500309 0.501703 0.018196
Cu1   Cu    Cu3+1 0.500000 0.597420 0.500000 0.921427
Cu2   Cu    Cu3+1 0.500000 0.402580 0.500000 0.925909
H1    H     H_    0.767838 0.499996 0.678332 0.142948
H2    H     H_    0.232162 0.500006 0.321667 0.142949
H3    H     H_    0.902319 0.504244 0.786838 0.143153
H4    H     H_    0.097681 0.504260 0.213161 0.143155
H5    H     H_    0.063429 0.507753 0.793390 0.176515
H6    H     H_    0.936571 0.507769 0.206610 0.176521
N1    N     N_R   0.500000 0.743810 0.500000 -0.235961
N2    N     N_R   0.500000 0.256190 0.500000 -0.237618
O1    O     O_R   0.370260 0.582280 0.500020 -0.583262
O2    O     O_R   0.629740 0.417720 0.499980 -0.586631
O3    O     O_R   0.629740 0.582280 0.499980 -0.583264
O4    O     O_R   0.370260 0.417720 0.500020 -0.586631
O5    O     O_R   0.500010 0.582270 0.337200 -0.590357
O6    O     O_R   0.499990 0.417730 0.662800 -0.574435
O7    O     O_R   0.499990 0.582270 0.662800 -0.590356
O8    O     O_R   0.500010 0.417730 0.337200 -0.574435
N3    N     N_2   0.774595 0.507115 0.283110 -0.445111
H7    H     H_    0.716400 0.546477 0.283887 0.239818
C39   C     C_3   0.770849 0.418973 0.217550 -0.709601
H8    H     H_    0.809693 0.427910 0.135169 0.230343
H9    H     H_    0.700825 0.403217 0.197100 0.216878
H10   H     H_    0.798030 0.356784 0.264518 0.236092
N4    N     N_2   0.225404 0.507104 0.716890 -0.445111
H11   H     H_    0.283596 0.546471 0.716116 0.239816
C40   C     C_3   0.229160 0.418955 0.782435 -0.709577
H12   H     H_    0.190294 0.427869 0.864806 0.230342
H13   H     H_    0.299183 0.403219 0.802909 0.216873
H14   H     H_    0.202007 0.356762 0.735444 0.236085
N5    N     N_2   0.362516 0.747509 0.618937 -0.420219
H15   H     H_    0.372644 0.683295 0.659023 0.282107
C41   C     C_3   0.279289 0.758835 0.561562 -0.657504
H16   H     H_    0.225317 0.718933 0.609167 0.221636
H17   H     H_    0.285702 0.731521 0.472306 0.246159
H18   H     H_    0.259855 0.835587 0.558245 0.220501
N6    N     N_2   0.591886 0.252287 0.323186 -0.422032
H19   H     H_    0.622464 0.316663 0.336845 0.293827
C42   C     C_3   0.545960 0.241648 0.217159 -0.670724
H20   H     H_    0.582370 0.281683 0.147449 0.214325
H21   H     H_    0.476570 0.269199 0.226838 0.245637
H22   H     H_    0.542881 0.165004 0.191823 0.222088
N7    N     N_2   0.637484 0.747510 0.381062 -0.420219
H23   H     H_    0.627356 0.683296 0.340977 0.282107
C43   C     C_3   0.720711 0.758837 0.438436 -0.657500
H24   H     H_    0.774684 0.718936 0.390829 0.221636
H25   H     H_    0.714300 0.731519 0.527692 0.246158
H26   H     H_    0.740144 0.835590 0.441755 0.220501
N8    N     N_2   0.408114 0.252287 0.676814 -0.422035
H27   H     H_    0.377537 0.316663 0.663155 0.293828
C44   C     C_3   0.454041 0.241647 0.782841 -0.670723
H28   H     H_    0.417632 0.281683 0.852551 0.214325
H29   H     H_    0.523431 0.269196 0.773161 0.245636
H30   H     H_    0.457117 0.165004 0.808179 0.222088
C45   C     C_3   0.649877 0.904408 0.232668 -0.828981
H31   H     H_    0.650353 0.956634 0.160813 0.223023
H32   H     H_    0.719346 0.879823 0.243382 0.245696
H33   H     H_    0.607676 0.843918 0.205203 0.237782
C46   C     C_3   0.292773 0.095642 0.694400 -0.834500
H34   H     H_    0.236787 0.043406 0.696183 0.224089
H35   H     H_    0.301976 0.120564 0.783262 0.245120
H36   H     H_    0.270825 0.155942 0.640299 0.236706
C47   C     C_3   0.350122 0.904407 0.767332 -0.828982
H37   H     H_    0.349647 0.956632 0.839187 0.223023
H38   H     H_    0.280653 0.879822 0.756618 0.245695
H39   H     H_    0.392323 0.843916 0.794796 0.237782
C48   C     C_3   0.707227 0.095643 0.305600 -0.834500
H40   H     H_    0.763212 0.043407 0.303815 0.224089
H41   H     H_    0.698023 0.120568 0.216739 0.245121
H42   H     H_    0.729176 0.155942 0.359702 0.236709

loop_
_geom_bond_atom_site_label_1
_geom_bond_atom_site_label_2
_ccdc_geom_bond_type
Cu1   O3    S    
N8    H27   S    
N4    C40   S    
C45   H31   S    
C14   C18   A    
C11   N1    A    
C34   H2    S    
C12   N2    A    
C46   H34   S    
C23   O8    A    
C42   H20   S    
C11   N7    S    
C24   O7    A    
C48   H41   S    
C47   H37   S    
C7    H5    S    
C35   C37   A    
C24   C26   S    
N3    C39   S    
C24   O6    A    
C3    C29   A    
N5    C41   S    
Cu2   N2    S    
C2    O2    A    
N7    C43   S    
Cu1   O7    S    
C20   C46   S    
Cu2   O8    S    
C31   C33   A    
C44   H29   S    
C19   C45   S    
C21   C47   S    
C5    H3    S    
C39   H8    S    
C47   H38   S    
C6    H4    S    
C30   N4    S    
C4    C7    A    
C46   H35   S    
C23   O5    A    
C42   H21   S    
C48   H42   S    
C39   H9    S    
C13   C19   A    
C14   C20   A    
C19   C22   A    
C3    C8    A    
Cu1   Cu2   S    
C5    C7    A    
C6    C8    A    
C40   H13   S    
Cu2   O4    S    
C1    C32   S    
N7    H23   S    
C2    C31   S    
C32   C34   A    
N6    H19   S    
C37   C38   A    
C10   N6    S    
C43   H24   S    
C40   H14   S    
C17   C18   A    
C44   H30   S    
N6    C42   S    
C16   C18   A    
C43   H25   S    
C12   C14   A    
C9    N1    A    
C45   H33   S    
Cu2   O6    S    
N8    C44   S    
C10   N2    A    
C25   C27   T    
C46   H36   S    
Cu1   N1    S    
C29   N3    S    
C42   H22   S    
C15   C17   A    
C39   H10   S    
C16   C22   A    
C12   N8    S    
Cu1   O1    S    
C9    N5    S    
C41   H18   S    
C47   H39   S    
C22   C48   S    
C48   H40   S    
C26   C28   T    
C13   C17   A    
C33   H1    S    
C36   C38   A    
C9    C15   A    
C41   H16   S    
C29   C31   A    
C10   C16   A    
C30   C32   A    
C11   C13   A    
N3    H7    S    
Cu1   O5    S    
Cu2   O2    S    
C5    C35   A    
C33   C35   A    
C6    C36   A    
C34   C36   A    
C23   C25   S    
N5    H15   S    
C1    O4    A    
C8    H6    S    
C2    O3    A    
N4    H11   S    
C15   C21   A    
C43   H26   S    
C20   C21   A    
C3    C37   A    
C45   H32   S    
C40   H12   S    
C41   H17   S    
C27   C28   S    
C44   H28   S    
C4    C38   A    
C1    O1    A    
C4    C30   A    
