data_mof_unit_30245.cif
_audit_creation_date              2012-12-10T19:47:22-0500
_audit_creation_method            fapswitch 2.2
_symmetry_space_group_name_H-M    P1
_symmetry_Int_Tables_number       1
_space_group_crystal_system       triclinic
_cell_length_a                    10.829988
_cell_length_b                    10.868519
_cell_length_c                    12.714622
_cell_angle_alpha                 92.975496
_cell_angle_beta                  93.128673
_cell_angle_gamma                 90.305116
_cell_volume                      1492.29112356

loop_
_atom_site_label
_atom_site_type_symbol
_atom_type_description
_atom_site_fract_x
_atom_site_fract_y
_atom_site_fract_z
_atom_type_partial_charge
C1    C     C_R   0.261918 0.496072 0.500477 0.797358
C2    C     C_R   0.738082 0.503929 0.499523 0.797358
C3    C     C_R   0.494037 0.871694 0.497434 -0.084431
C4    C     C_R   0.505962 0.128306 0.502566 -0.084432
C5    C     C_R   0.451531 0.934204 0.407554 -0.004150
C6    C     C_R   0.548469 0.065796 0.592446 -0.004149
C7    C     C_R   0.244657 0.193361 0.718396 -0.295260
C8    C     C_R   0.755343 0.806651 0.281617 -0.295268
C9    C     C_R   0.191714 0.264195 0.639525 -0.218508
C10   C     C_R   0.808286 0.735811 0.360484 -0.218508
C11   C     C_R   0.129128 0.373138 0.666459 0.035921
C12   C     C_R   0.870872 0.626870 0.333545 0.035921
C13   C     C_R   0.120752 0.410551 0.773210 -0.329767
C14   C     C_R   0.879249 0.589465 0.226792 -0.329770
C15   C     C_R   0.175160 0.340187 0.851991 0.572824
C16   C     C_R   0.824841 0.659834 0.148015 0.572831
C17   C     C_R   0.236781 0.231338 0.824627 0.570557
C18   C     C_R   0.763220 0.768682 0.175384 0.570560
C19   C     C_R   0.937974 0.451795 0.581756 -0.236762
C20   C     C_R   0.062026 0.548206 0.418244 -0.236759
C21   C     C_R   0.871787 0.506122 0.499176 -0.087686
C22   C     C_R   0.128213 0.493879 0.500824 -0.087685
C23   C     C_R   0.503821 0.261894 0.500946 0.788751
C24   C     C_R   0.496178 0.738106 0.499053 0.788751
C25   C     C_R   0.934171 0.556537 0.416900 0.068467
C26   C     C_R   0.065828 0.443466 0.583100 0.068465
C27   C     C_2   0.474344 0.458783 0.030703 -0.242240
C28   C     C_2   0.525656 0.541217 0.969297 -0.242252
C29   C     C_1   0.521901 0.527409 0.852951 0.258126
C30   C     C_1   0.478099 0.472591 0.147049 0.258130
C31   C     C_R   0.762698 0.253837 0.786631 -0.106214
C32   C     C_R   0.237311 0.746155 0.213365 -0.106205
C33   C     C_R   0.710541 0.200212 0.691746 -0.101045
C34   C     C_R   0.289463 0.799785 0.308251 -0.101043
C35   C     C_R   0.602561 0.127770 0.691625 0.105296
C36   C     C_R   0.397441 0.872230 0.308373 0.105291
C37   C     C_R   0.550510 0.107122 0.788233 -0.119532
C38   C     C_R   0.449495 0.892876 0.211767 -0.119526
C39   C     C_R   0.601833 0.162417 0.882377 -0.088083
C40   C     C_R   0.398178 0.837577 0.117623 -0.088090
C41   C     C_R   0.707637 0.236088 0.881523 -0.097316
C42   C     C_R   0.292376 0.763904 0.118474 -0.097321
C43   C     C_R   0.541041 0.938141 0.588277 -0.238709
C44   C     C_R   0.458958 0.061859 0.411723 -0.238709
Cu1   Cu    Cu3+1 0.492140 0.492110 0.395880 0.993361
Cu2   Cu    Cu3+1 0.507860 0.507890 0.604120 0.993360
H1    H     H_    0.747858 0.278236 0.954571 0.166235
H2    H     H_    0.252159 0.721753 0.045426 0.166239
H3    H     H_    0.071750 0.493805 0.795169 0.199004
H4    H     H_    0.928249 0.506212 0.204830 0.199004
H5    H     H_    0.889296 0.411498 0.643530 0.151673
H6    H     H_    0.110704 0.588505 0.356471 0.151671
H7    H     H_    0.571335 0.622598 0.006589 0.215500
H8    H     H_    0.428665 0.377402 0.993411 0.215507
H9    H     H_    0.846493 0.308317 0.787435 0.140986
H10   H     H_    0.153518 0.691673 0.212560 0.140989
H11   H     H_    0.754532 0.214109 0.618763 0.107664
H12   H     H_    0.245469 0.785887 0.381233 0.107663
H13   H     H_    0.470533 0.047535 0.790813 0.162302
H14   H     H_    0.529471 0.952466 0.209189 0.162313
H15   H     H_    0.560262 0.147091 0.956150 0.174439
H16   H     H_    0.439752 0.852903 0.043851 0.174440
H17   H     H_    0.575820 0.890080 0.656330 0.173792
H18   H     H_    0.424179 0.109920 0.343670 0.173792
H19   H     H_    0.290199 0.108238 0.696690 0.174246
H20   H     H_    0.709802 0.891773 0.303327 0.174247
H21   H     H_    0.197416 0.233019 0.557621 0.154717
H22   H     H_    0.802584 0.766982 0.442390 0.154717
N1    N     N_1   0.480320 0.480250 0.239400 -0.156588
N2    N     N_1   0.519680 0.519750 0.760600 -0.156589
O1    O     O_R   0.313000 0.493330 0.412070 -0.578908
O2    O     O_R   0.687000 0.506670 0.587930 -0.578908
O3    O     O_R   0.326280 0.506660 0.587930 -0.565997
O4    O     O_R   0.673720 0.493340 0.412070 -0.565996
O5    O     O_R   0.493370 0.312980 0.412070 -0.580818
O6    O     O_R   0.506630 0.687020 0.587930 -0.580819
O7    O     O_R   0.506650 0.326310 0.587930 -0.569461
O8    O     O_R   0.493350 0.673690 0.412070 -0.569461
F1    F     F_    0.166517 0.376779 0.954912 -0.640209
F2    F     F_    0.833483 0.623250 0.045093 -0.640206
F3    F     F_    0.287333 0.161779 0.901062 -0.669544
F4    F     F_    0.712670 0.838247 0.098953 -0.669545

loop_
_geom_bond_atom_site_label_1
_geom_bond_atom_site_label_2
_ccdc_geom_bond_type
C8    H20   S    
Cu1   O1    S    
C38   H14   S    
Cu2   O6    S    
C27   H8    S    
C43   H17   S    
C39   C41   A    
Cu1   Cu2   S    
C44   H18   S    
C3    C43   A    
C1    O1    A    
C28   C29   S    
C35   C37   A    
C20   C25   A    
C5    C36   S    
C40   H16   S    
C6    C35   S    
C15   C17   A    
C19   C26   A    
C18   F4    S    
C15   F1    S    
C7    C17   A    
C31   C33   A    
Cu1   O8    S    
Cu2   O2    S    
C2    O4    A    
C40   C42   A    
C1    C22   S    
C27   C30   S    
C3    C24   S    
C2    O2    A    
C39   H15   S    
Cu1   N1    S    
C4    C6    A    
C23   O5    A    
C4    C23   S    
C24   O6    A    
C4    C44   A    
C11   C26   S    
C8    C18   A    
Cu1   O4    S    
C16   F2    S    
C32   C34   A    
C9    H21   S    
C7    H19   S    
C2    C21   S    
C41   H1    S    
C16   C18   A    
C42   H2    S    
C23   O7    A    
C9    C11   A    
C37   H13   S    
C10   C12   A    
C13   H3    S    
C24   O8    A    
C5    C44   A    
C12   C14   A    
C6    C43   A    
C13   C15   A    
C14   C16   A    
C30   N1    T    
C29   N2    T    
C7    C9    A    
C21   C25   A    
C33   H11   S    
C31   C41   A    
C19   C21   A    
C8    C10   A    
C20   C22   A    
C3    C5    A    
Cu2   O7    S    
C28   H7    S    
C10   H22   S    
C12   C25   S    
Cu1   O5    S    
C1    O3    A    
C36   C38   A    
C37   C39   A    
C38   C40   A    
C11   C13   A    
C14   H4    S    
C33   C35   A    
C34   C36   A    
C17   F3    S    
Cu2   N2    S    
C19   H5    S    
C20   H6    S    
C22   C26   A    
C27   C28   D    
C34   H12   S    
C32   C42   A    
C31   H9    S    
C32   H10   S    
Cu2   O3    S    
