data_mof_unit_53283.cif
_audit_creation_date              2012-10-26T20:43:06-0400
_audit_creation_method            fapswitch 2.2
_symmetry_space_group_name_H-M    P1
_symmetry_Int_Tables_number       1
_space_group_crystal_system       triclinic
_cell_length_a                    10.852701
_cell_length_b                    9.596968
_cell_length_c                    15.07918
_cell_angle_alpha                 89.682421
_cell_angle_beta                  92.350079
_cell_angle_gamma                 88.714194
_cell_volume                      1568.79330609

loop_
_atom_site_label
_atom_site_type_symbol
_atom_type_description
_atom_site_fract_x
_atom_site_fract_y
_atom_site_fract_z
_atom_type_partial_charge
C1    C     C_R   0.262555 0.500775 0.499878 0.600456
C2    C     C_R   0.128674 0.498890 0.497383 -0.052751
C3    C     C_R   0.426911 0.077264 0.440362 0.060172
C4    C     C_R   0.572840 0.923026 0.559975 0.066579
C5    C     C_R   0.570401 0.071587 0.561506 0.039091
C6    C     C_R   0.428952 0.928917 0.439088 0.060566
C7    C     C_R   0.499512 0.500293 0.328761 0.523628
C8    C     C_R   0.499424 0.499752 0.671191 0.573305
C9    C     C_R   0.523366 0.622406 0.814511 -0.116625
C10   C     C_R   0.471914 0.378034 0.185374 -0.131686
C11   C     C_R   0.497895 0.499774 0.767990 0.004822
C12   C     C_R   0.737803 0.497931 0.499264 0.600141
C13   C     C_R   0.497620 0.500676 0.231832 -0.024560
C14   C     C_R   0.470294 0.378112 0.813931 -0.096444
C15   C     C_R   0.521461 0.623249 0.185640 -0.129787
C16   C     C_R   0.468546 0.378078 0.906254 0.007833
C17   C     C_R   0.522619 0.623415 0.093377 0.003070
C18   C     C_R   0.496066 0.501084 0.953313 0.044979
C19   C     C_R   0.495650 0.500254 0.046379 0.046265
C20   C     C_R   0.524093 0.624688 0.907299 0.003094
C21   C     C_R   0.468587 0.376421 0.092481 0.000039
C22   C     C_R   0.439287 0.256674 0.951901 -0.108099
C23   C     C_R   0.439139 0.254661 0.044444 -0.008265
C24   C     C_R   0.551284 0.745035 0.047784 -0.115687
C25   C     C_1   0.406258 0.126959 0.088053 0.186680
C26   C     C_1   0.585269 0.874609 0.911797 0.187881
C27   C     C_3   0.164697 0.194069 0.598978 -0.046900
C28   C     C_3   0.820395 0.636921 0.311072 -0.072022
C29   C     C_3   0.883970 0.163353 0.520241 -0.093310
C30   C     C_3   0.144881 0.565049 0.302598 -0.078170
C31   C     C_1   0.342789 0.153689 0.380201 0.241734
C32   C     C_1   0.657264 0.846898 0.619983 0.251578
C33   C     C_1   0.638518 0.141048 0.631896 0.261515
C34   C     C_R   0.552500 0.746776 0.955318 -0.005816
C35   C     C_1   0.361912 0.861404 0.367864 0.281436
C36   C     C_R   0.070707 0.400315 0.549713 0.227913
C37   C     C_R   0.930528 0.588556 0.440171 0.224397
C38   C     C_R   0.942661 0.387147 0.540140 0.231417
C39   C     C_R   0.058870 0.583708 0.436771 0.225847
C40   C     C_R   0.871887 0.491797 0.493854 -0.061644
Cu1   Cu    Cu3+1 0.500000 0.640660 0.500000 1.015519
Cu2   Cu    Cu3+1 0.500000 0.359340 0.500000 0.978809
H1    H     H_    0.543241 0.716009 0.778043 0.157153
H2    H     H_    0.752307 0.712533 0.280676 0.138667
H3    H     H_    0.773293 0.535889 0.318387 0.086969
H4    H     H_    0.896396 0.625733 0.264535 0.133646
H5    H     H_    0.803644 0.173693 0.472684 0.147040
H6    H     H_    0.873969 0.065415 0.558425 0.148422
H7    H     H_    0.968487 0.150749 0.481442 0.088577
H8    H     H_    0.236400 0.514842 0.317651 0.148769
H9    H     H_    0.150817 0.625045 0.239906 0.165879
H10   H     H_    0.075358 0.482837 0.289884 0.082506
H11   H     H_    0.454158 0.283893 0.221939 0.163170
H12   H     H_    0.449138 0.283580 0.777840 0.140608
H13   H     H_    0.540785 0.718421 0.221474 0.137131
H14   H     H_    0.416123 0.163209 0.915270 0.137173
H15   H     H_    0.573904 0.838652 0.084433 0.134869
H16   H     H_    0.254707 0.164705 0.632263 0.137759
H17   H     H_    0.173874 0.174604 0.526783 0.107865
H18   H     H_    0.094703 0.125177 0.626339 0.156792
N1    N     N_R   0.500000 0.852070 0.500000 -0.269091
N2    N     N_R   0.500000 0.147930 0.500000 -0.278799
N3    N     N_1   0.379555 0.025040 0.123089 -0.291548
N4    N     N_1   0.611850 0.976644 0.876840 -0.292716
N5    N     N_1   0.274088 0.213310 0.332162 -0.332441
N6    N     N_1   0.726060 0.787253 0.667948 -0.280281
N7    N     N_1   0.692792 0.194381 0.689522 -0.207689
N8    N     N_1   0.309227 0.811784 0.308326 -0.246599
O1    O     O_R   0.319640 0.618740 0.499990 -0.474947
O2    O     O_3   0.863721 0.691137 0.393024 -0.515093
O3    O     O_3   0.887601 0.276518 0.580438 -0.509788
O4    O     O_3   0.114016 0.658161 0.371284 -0.514788
O5    O     O_R   0.680360 0.381260 0.500010 -0.492581
O6    O     O_R   0.680360 0.618740 0.500010 -0.457726
O7    O     O_R   0.319640 0.381260 0.499990 -0.499015
O8    O     O_R   0.499970 0.618800 0.370260 -0.506757
O9    O     O_R   0.500030 0.381200 0.629740 -0.497877
O10   O     O_R   0.500030 0.618800 0.629740 -0.511923
O11   O     O_R   0.499970 0.381200 0.370260 -0.513867
O12   O     O_3   0.136766 0.334338 0.619443 -0.526467

loop_
_geom_bond_atom_site_label_1
_geom_bond_atom_site_label_2
_ccdc_geom_bond_type
C30   H9    S    
C12   O6    A    
Cu1   Cu2   S    
Cu1   N1    S    
C3    C6    A    
C29   H7    S    
C28   H4    S    
Cu2   O7    S    
C29   H5    S    
C6    N1    A    
C7    O11   A    
C19   C21   A    
C18   C19   A    
C37   C40   A    
C27   H18   S    
C11   C14   A    
C6    C35   S    
C31   N5    T    
C1    C2    S    
C25   N3    T    
C10   H11   S    
C26   N4    T    
Cu1   O6    S    
C2    C39   A    
C26   C34   S    
C24   H15   S    
C5    C33   S    
C39   O4    S    
C10   C13   A    
Cu2   N2    S    
C20   C34   A    
C30   H8    S    
Cu2   O11   S    
C12   O5    A    
C8    O10   A    
C10   C21   A    
C28   H3    S    
C9    H1    S    
C17   C24   A    
C29   H6    S    
C1    O7    A    
C27   O12   S    
C36   O12   S    
Cu1   O10   S    
C22   H14   S    
C4    N1    A    
C28   H2    S    
C1    O1    A    
C15   H13   S    
C12   C40   S    
C9    C20   A    
C3    C31   S    
C9    C11   A    
C4    C32   S    
C14   H12   S    
C13   C15   A    
C8    O9    A    
C14   C16   A    
C33   N7    T    
C32   N6    T    
C3    N2    A    
C2    C36   A    
C15   C17   A    
C30   H10   S    
C38   O3    S    
Cu2   O5    S    
C16   C22   A    
C28   O2    S    
C4    C5    A    
C27   H16   S    
C30   O4    S    
C7    O8    A    
C21   C23   A    
C37   C39   A    
C27   H17   S    
Cu1   O8    S    
C38   C40   A    
C35   N8    T    
C8    C11   S    
C36   C38   A    
C17   C19   A    
C5    N2    A    
C18   C20   A    
C23   C25   S    
C24   C34   A    
C7    C13   S    
Cu2   O9    S    
C16   C18   A    
C22   C23   A    
C37   O2    S    
Cu1   O1    S    
C29   O3    S    
