data_mof_unit_60506.cif
_audit_creation_date              2012-12-10T19:02:13-0500
_audit_creation_method            fapswitch 2.2
_symmetry_space_group_name_H-M    P1
_symmetry_Int_Tables_number       1
_space_group_crystal_system       triclinic
_cell_length_a                    13.36556
_cell_length_b                    14.259432
_cell_length_c                    16.950213
_cell_angle_alpha                 90.014409
_cell_angle_beta                  84.659573
_cell_angle_gamma                 90.013456
_cell_volume                      3216.43860915

loop_
_atom_site_label
_atom_site_type_symbol
_atom_type_description
_atom_site_fract_x
_atom_site_fract_y
_atom_site_fract_z
_atom_type_partial_charge
C1    C     C_R   0.500008 0.673456 0.499997 0.925919
C2    C     C_R   0.499987 0.326544 0.500037 0.932840
C3    C     C_1   0.500019 0.774100 0.500006 -0.225228
C4    C     C_1   0.499974 0.225901 0.500044 -0.224363
C5    C     C_1   0.500013 0.858665 0.500017 -0.003367
C6    C     C_1   0.499977 0.141337 0.500046 -0.002820
C7    C     C_1   0.500000 0.957721 0.500031 0.012256
C8    C     C_1   0.499989 0.042280 0.500040 0.012439
C9    C     C_1   0.830586 0.499997 0.500010 0.072265
C10   C     C_1   0.169414 0.500002 0.499993 0.064614
C11   C     C_1   0.950475 0.499998 0.500004 -0.048953
C12   C     C_1   0.049525 0.500001 0.500001 -0.046532
C13   C     C_R   0.486083 0.500019 0.655398 0.894363
C14   C     C_R   0.513880 0.500178 0.344680 0.927781
C15   C     C_R   0.475972 0.480528 0.739827 -0.107000
C16   C     C_R   0.524211 0.513095 0.259394 -0.074381
C17   C     C_R   0.554595 0.432153 0.771002 -0.214013
C18   C     C_R   0.443096 0.552058 0.224308 -0.240447
C19   C     C_R   0.550323 0.413346 0.851094 -0.197258
C20   C     C_R   0.448545 0.563926 0.143282 -0.195072
C21   C     C_R   0.467991 0.443703 0.900958 0.094496
C22   C     C_R   0.534625 0.535950 0.096483 0.116572
C23   C     C_R   0.385918 0.487856 0.870707 0.140763
C24   C     C_R   0.618701 0.500692 0.130359 0.088465
C25   C     C_R   0.389135 0.506079 0.789346 0.036927
C26   C     C_R   0.613877 0.489403 0.213052 0.045184
C27   C     C_2   0.480048 0.450484 0.984837 -0.067183
C28   C     C_2   0.527354 0.526059 0.012144 -0.059730
H1    H     H_    0.620583 0.410327 0.733502 0.167648
H2    H     H_    0.374598 0.572040 0.259542 0.170043
H3    H     H_    0.383483 0.589915 0.116397 0.157068
H4    H     H_    0.614213 0.380838 0.875123 0.156287
N1    N     N_1   0.738130 0.500000 0.500020 -0.062202
N2    N     N_1   0.261870 0.500000 0.499980 -0.066936
O1    O     O_R   0.423530 0.626280 0.499990 -0.598270
O2    O     O_R   0.576470 0.373720 0.500010 -0.595477
O3    O     O_R   0.576470 0.626280 0.500010 -0.593356
O4    O     O_R   0.423530 0.373720 0.499990 -0.592448
O5    O     O_R   0.414510 0.500000 0.615790 -0.619687
O6    O     O_R   0.585490 0.500000 0.384210 -0.584286
O7    O     O_R   0.567420 0.500000 0.615810 -0.607543
O8    O     O_R   0.432580 0.500000 0.384190 -0.619951
Zn1   Zn    Zn3+2 0.397910 0.500000 0.499990 0.962876
Zn2   Zn    Zn3+2 0.602090 0.500000 0.500010 0.979576
N3    N     N_3   0.697128 0.450629 0.249748 -0.444564
H5    H     H_    0.712529 0.383697 0.226612 0.180410
H6    H     H_    0.760003 0.493246 0.236197 0.185923
N4    N     N_3   0.306484 0.554612 0.759548 -0.473511
H7    H     H_    0.272846 0.510411 0.720539 0.211992
H8    H     H_    0.333674 0.614557 0.729167 0.191281
C29   C     C_1   0.568946 0.600344 0.960637 0.202061
N5    N     N_1   0.602102 0.659579 0.919481 -0.201279
C30   C     C_1   0.439126 0.375820 0.036176 0.200116
N6    N     N_1   0.406483 0.316262 0.077213 -0.201228
N7    N     N_3   0.302516 0.518725 0.923747 -0.464983
H9    H     H_    0.295951 0.591439 0.918205 0.200162
H10   H     H_    0.237187 0.487818 0.906215 0.201498
N8    N     N_3   0.705758 0.472536 0.079976 -0.467487
H11   H     H_    0.718083 0.401014 0.088363 0.182738
H12   H     H_    0.767881 0.509873 0.096301 0.184996

loop_
_geom_bond_atom_site_label_1
_geom_bond_atom_site_label_2
_ccdc_geom_bond_type
C2    C4    S    
C11   C12   T    
C27   C30   S    
C23   N7    S    
C18   H2    S    
C17   H1    S    
C2    O4    A    
O6    Zn2   S    
C28   C29   S    
C13   C15   S    
C1    O3    A    
C14   O8    A    
C3    C5    T    
O3    Zn2   S    
N4    H8    S    
C21   C27   S    
C5    C7    S    
C7    C8    T    
C10   N2    T    
C16   C18   A    
C22   C28   S    
C30   N6    T    
C9    N1    T    
C9    C11   S    
C25   N4    S    
C10   C12   S    
C19   H4    S    
C22   C24   A    
C13   O7    A    
N4    H7    S    
C19   C21   A    
C24   C26   A    
C18   C20   A    
N7    H10   S    
C21   C23   A    
C16   C26   A    
O7    Zn2   S    
C14   C16   S    
N7    H9    S    
O2    Zn2   S    
C4    C6    T    
C13   O5    A    
O8    Zn1   S    
C14   O6    A    
C29   N5    T    
N3    H5    S    
O4    Zn1   S    
C23   C25   A    
O1    Zn1   S    
C1    O1    A    
C15   C25   A    
C24   N8    S    
N3    H6    S    
C2    O2    A    
C27   C28   D    
C15   C17   A    
C6    C8    S    
C26   N3    S    
C17   C19   A    
N8    H11   S    
O5    Zn1   S    
N1    Zn2   S    
N8    H12   S    
N2    Zn1   S    
C20   C22   A    
C1    C3    S    
C20   H3    S    
