data_mof_unit_17920.cif
_audit_creation_date              2013-03-05T16:11:40-0500
_audit_creation_method            fapswitch 2.2
_symmetry_space_group_name_H-M    P1
_symmetry_Int_Tables_number       1
_space_group_crystal_system       triclinic
_cell_length_a                    10.854695
_cell_length_b                    9.70319
_cell_length_c                    19.390906
_cell_angle_alpha                 89.972637
_cell_angle_beta                  93.316262
_cell_angle_gamma                 89.409359
_cell_volume                      2038.82087468

loop_
_atom_site_label
_atom_site_type_symbol
_atom_site_description
_atom_site_fract_x
_atom_site_fract_y
_atom_site_fract_z
_atom_type_partial_charge
O1    O     O_R   0.317570 0.620260 0.500040 -0.503771
O2    O     O_R   0.317570 0.379740 0.500040 -0.565114
C1    C     C_R   0.260161 0.500610 0.499454 0.804523
O3    O     O_R   0.499870 0.620300 0.400170 -0.559381
O4    O     O_R   0.499870 0.379700 0.400170 -0.535211
C2    C     C_R   0.509942 0.500212 0.367938 0.880635
Cu1   Cu    Cu3+1 0.499860 0.642410 0.500030 1.037571
Cu2   Cu    Cu3+1 0.499860 0.357590 0.500030 1.029636
O5    O     O_R   0.682190 0.620260 0.500020 -0.555299
O6    O     O_R   0.682190 0.379740 0.500020 -0.597183
O7    O     O_R   0.499890 0.620220 0.599880 -0.588829
O8    O     O_R   0.499890 0.379780 0.599880 -0.516788
C3    C     C_R   0.739228 0.499885 0.499082 0.796033
C4    C     C_R   0.501109 0.500271 0.632044 0.833474
C5    C     C_R   0.555217 0.628246 0.257184 0.247119
C6    C     C_R   0.519525 0.380820 0.251032 0.279536
C7    C     C_R   0.541888 0.636404 0.184145 -0.108656
C8    C     C_R   0.509009 0.388396 0.178252 -0.111993
C9    C     C_R   0.515091 0.516927 0.144668 -0.189904
C10   C     C_R   0.528145 0.502810 0.291227 -0.264249
N1    N     N_R   0.421545 0.446624 0.031067 -0.193229
N2    N     N_R   0.589082 0.596131 0.033321 -0.191146
N3    N     N_R   0.419843 0.443185 0.962431 -0.203053
N4    N     N_R   0.586216 0.594537 0.964675 -0.208862
C11   C     C_R   0.502306 0.516996 0.928150 0.405907
C12   C     C_R   0.506662 0.522524 0.067930 0.478343
C13   C     C_R   0.516121 0.633220 0.815198 -0.137348
C14   C     C_R   0.490013 0.385642 0.818112 -0.144146
H1    H     H_    0.525718 0.731520 0.841335 0.159871
H2    H     H_    0.481087 0.290675 0.846713 0.163104
C15   C     C_R   0.514875 0.629052 0.743403 -0.146420
C16   C     C_R   0.492969 0.380744 0.746309 -0.115339
H3    H     H_    0.523374 0.724971 0.715696 0.173764
H4    H     H_    0.487305 0.281553 0.721021 0.207342
C17   C     C_R   0.503101 0.502799 0.708116 -0.043124
C18   C     C_R   0.502053 0.511880 0.852798 0.055455
C19   C     C_3   0.075159 0.591997 0.557863 -0.349921
C20   C     C_3   0.071947 0.355949 0.509957 -0.278577
H5    H     H_    0.105665 0.698004 0.551781 0.278173
H6    H     H_    0.100946 0.285485 0.468682 0.230094
H7    H     H_    0.113264 0.553492 0.608900 0.184689
H8    H     H_    0.108951 0.320381 0.561424 0.249075
C21   C     C_3   0.933293 0.596183 0.555851 -0.330860
C22   C     C_3   0.931400 0.355809 0.510918 -0.341969
H9    H     H_    0.901243 0.565413 0.607075 0.197597
H10   H     H_    0.907152 0.323405 0.563171 0.207267
H11   H     H_    0.903711 0.704177 0.544684 0.239095
H12   H     H_    0.892868 0.282131 0.471508 0.215125
H13   H     H_    0.093256 0.664171 0.420283 0.251103
H14   H     H_    0.095367 0.493025 0.385514 0.168472
H15   H     H_    0.884651 0.660710 0.418805 0.232074
H16   H     H_    0.883016 0.487829 0.385285 0.199097
C23   C     C_3   0.063304 0.556740 0.428782 -0.344328
C24   C     C_3   0.121188 0.501936 0.498655 0.026138
C25   C     C_3   0.877592 0.501247 0.498198 0.038775
C26   C     C_3   0.920358 0.554320 0.428154 -0.341663
C27   C     C_3   0.629854 0.077428 0.510105 -0.201855
C28   C     C_3   0.626573 0.912253 0.522065 -0.231167
H17   H     H_    0.676265 0.094573 0.460994 0.154487
H18   H     H_    0.694127 0.867955 0.486956 0.186082
H19   H     H_    0.491650 0.099486 0.607864 0.161672
H20   H     H_    0.457223 0.880823 0.606554 0.105611
C29   C     C_3   0.432171 0.082175 0.560326 0.222146
C30   C     C_3   0.420737 0.918219 0.555503 0.240658
C31   C     C_3   0.446858 0.085417 0.434927 -0.195138
C32   C     C_3   0.465436 0.922422 0.431145 -0.136804
N5    N     N_3   0.500250 0.143650 0.501520 -0.276321
N6    N     N_3   0.500250 0.856350 0.501520 -0.270842
H21   H     H_    0.504349 0.125140 0.394683 0.219338
H22   H     H_    0.548109 0.907794 0.400692 0.177619
N7    N     N_R   0.611830 0.740183 0.295867 0.129964
O9    O     O_R   0.701551 0.713663 0.341354 -0.398961
O10   O     O_R   0.590529 0.867973 0.278333 -0.281003
N8    N     N_R   0.544009 0.249490 0.282914 0.130022
O11   O     O_R   0.651450 0.226515 0.314392 -0.360647
O12   O     O_R   0.471609 0.146168 0.268777 -0.262537
C33   C     C_2   0.721419 0.138574 0.563592 0.920882
O13   O     O_2   0.828557 0.097690 0.564248 -0.601638
O14   O     O_R   0.685739 0.226248 0.615883 -0.721390
H23   H     H_    0.756891 0.252578 0.649290 0.321438
C34   C     C_2   0.673867 0.866263 0.596419 0.878848
O15   O     O_2   0.728409 0.757372 0.605933 -0.601994
O16   O     O_R   0.653038 0.947400 0.654481 -0.800202
H24   H     H_    0.689272 0.905595 0.699206 0.341759
C35   C     C_2   0.318016 0.140634 0.410719 0.992226
O17   O     O_2   0.225211 0.076539 0.421416 -0.531188
O18   O     O_R   0.305809 0.255130 0.367118 -0.724087
H25   H     H_    0.216891 0.277182 0.351807 0.318184
C36   C     C_2   0.368620 0.857548 0.380843 0.983151
O19   O     O_2   0.302335 0.764270 0.396659 -0.550960
O20   O     O_R   0.355203 0.909231 0.313467 -0.691204
H26   H     H_    0.289559 0.859824 0.283803 0.350299
N9    N     N_R   0.316721 0.153677 0.575993 0.147212
O21   O     O_R   0.314245 0.226442 0.632228 -0.392757
O22   O     O_R   0.211259 0.113958 0.548970 -0.293734
N10   N     N_R   0.294852 0.865798 0.555369 0.174008
O23   O     O_R   0.250567 0.836201 0.614605 -0.374395
O24   O     O_R   0.219062 0.873071 0.501338 -0.279353
C37   C     C_2   0.560470 0.769079 0.148606 0.994288
O25   O     O_2   0.472923 0.827662 0.118318 -0.545644
O26   O     O_R   0.678632 0.825084 0.148760 -0.676998
H27   H     H_    0.679969 0.915276 0.122464 0.349804
C38   C     C_2   0.505769 0.259812 0.136833 0.983592
O27   O     O_2   0.413269 0.188716 0.133897 -0.490603
O28   O     O_R   0.606950 0.223811 0.098978 -0.734982
H28   H     H_    0.592512 0.136627 0.071022 0.340390

loop_
_geom_bond_atom_site_label_1
_geom_bond_atom_site_label_2
_geom_bond_distance
_ccdc_geom_bond_type
C32   N6    1.533145 S    
N1    C12   1.358341 A    
N9    O21   1.300786 A    
C13   H1    1.083467 S    
O18   H25   1.013914 S    
C34   O15   1.214580 D    
Cu1   Cu2   2.763662 S    
C33   O13   1.224247 D    
Cu1   O7    1.947996 S    
O26   H27   1.013303 S    
N8    O12   1.299782 A    
C6    N8    1.431766 S    
C30   N6    1.515103 S    
C20   H8    1.107643 S    
O4    C2    1.334088 A    
C1    C24   1.507613 S    
H13   C23   1.110192 S    
C27   H17   1.116005 S    
C28   H18   1.112407 S    
Cu1   O5    1.988578 S    
H15   C26   1.110052 S    
H19   C29   1.108289 S    
C9    C12   1.486466 S    
O5    C3    1.316942 A    
H20   C30   1.104440 S    
Cu1   N6    2.076160 S    
O16   H24   1.014047 S    
C31   N5    1.497816 S    
N10   O24   1.295560 A    
C15   H3    1.081872 S    
C36   O20   1.398371 S    
C6    C10   1.418474 A    
C33   O14   1.393318 S    
N9    O22   1.293616 A    
C27   N5    1.540746 S    
O3    Cu1   1.948332 S    
C34   O16   1.401844 S    
C22   H10   1.107726 S    
C32   C36   1.532223 S    
C35   O18   1.396333 S    
C5    C10   1.425686 A    
C29   N5    1.519247 S    
H14   C23   1.112247 S    
N8    O11   1.301743 A    
C13   C15   1.392059 A    
C16   C17   1.405153 A    
C27   C33   1.519544 S    
C14   C16   1.395388 A    
N4    C11   1.355474 A    
C30   N10   1.462809 S    
O3    C2    1.329035 A    
C28   C34   1.565397 S    
C4    C17   1.474232 S    
N7    O10   1.300452 A    
C8    C9    1.410593 A    
C35   O17   1.217204 D    
O14   H23   1.013785 S    
O1    C1    1.323046 A    
C16   H4    1.081086 S    
C19   C21   1.538265 S    
C20   C22   1.526800 S    
C21   H9    1.112939 S    
C37   O25   1.222743 D    
C20   C24   1.539204 S    
Cu2   O8    1.948201 S    
N10   O23   1.303575 A    
C25   C26   1.550053 S    
C38   O28   1.397396 S    
O7    C4    1.319782 A    
C31   C35   1.540022 S    
C7    C37   1.481047 S    
C19   C24   1.545880 S    
C21   C25   1.548614 S    
C37   O26   1.397978 S    
O8    C4    1.325194 A    
N1    N3    1.330416 A    
N2    N4    1.329774 A    
O20   H26   1.014063 S    
C5    N7    1.442645 S    
C23   C26   1.551392 S    
C28   N6    1.511778 S    
C5    C7    1.417400 A    
O1    Cu1   1.992554 S    
Cu2   O6    1.992984 S    
O2    Cu2   1.988149 S    
O6    C3    1.326234 A    
O4    Cu2   1.948129 S    
C23   C24   1.551542 S    
C13   C18   1.398893 A    
C2    C10   1.512095 S    
O28   H28   1.013616 S    
C29   N9    1.473238 S    
C14   H2    1.083355 S    
O2    C1    1.322146 A    
N7    O9    1.299195 A    
C19   H5    1.092256 S    
C20   H6    1.110122 S    
C22   C25   1.536072 S    
C27   C28   1.620353 S    
C32   H22   1.110375 S    
C31   H21   1.099091 S    
C7    C9    1.413023 A    
C15   C17   1.406849 A    
C8    C38   1.483769 S    
N3    C11   1.355597 A    
C19   H7    1.113188 S    
C11   C18   1.461862 S    
C29   C30   1.599362 S    
C22   H12   1.113425 S    
C14   C18   1.401346 A    
Cu2   N5    2.076045 S    
C6    C8    1.411107 A    
C31   C32   1.594576 S    
N2    C12   1.357593 A    
C38   O27   1.222692 D    
C36   O19   1.212286 D    
C21   H11   1.110347 S    
H16   C26   1.112882 S    
C3    C25   1.503175 S    
