data_mof_unit_56033.cif
_audit_creation_date              2013-03-05T15:46:58-0500
_audit_creation_method            fapswitch 2.2
_symmetry_space_group_name_H-M    P1
_symmetry_Int_Tables_number       1
_space_group_crystal_system       triclinic
_cell_length_a                    10.191206
_cell_length_b                    10.567324
_cell_length_c                    15.010902
_cell_angle_alpha                 89.79665
_cell_angle_beta                  80.757111
_cell_angle_gamma                 93.54476
_cell_volume                      1592.38974811

loop_
_atom_site_label
_atom_site_type_symbol
_atom_site_description
_atom_site_fract_x
_atom_site_fract_y
_atom_site_fract_z
_atom_type_partial_charge
O1    O     O_R   0.431060 0.692470 0.507460 -0.599684
O2    O     O_R   0.568940 0.307530 0.492540 -0.593606
O3    O     O_R   0.651120 0.659650 0.483670 -0.611940
O4    O     O_R   0.348880 0.340350 0.516330 -0.605927
C1    C     C_R   0.553817 0.734107 0.498395 0.978440
C2    C     C_R   0.446326 0.265873 0.510502 0.968103
O5    O     O_R   0.389960 0.516440 0.644050 -0.619413
O6    O     O_R   0.610040 0.483560 0.355950 -0.637625
O7    O     O_R   0.610030 0.483620 0.620260 -0.607465
O8    O     O_R   0.389970 0.516380 0.379740 -0.632618
C3    C     C_R   0.499965 0.499856 0.673437 1.009242
C4    C     C_R   0.499874 0.499439 0.326603 0.880309
Zn1   Zn    Zn3+2 0.353060 0.521920 0.515880 0.965984
Zn2   Zn    Zn3+2 0.646940 0.478080 0.484120 0.975406
C5    C     C_R   0.612077 0.462466 0.172730 -0.266543
C6    C     C_R   0.386766 0.533904 0.827495 -0.194453
C7    C     C_R   0.499361 0.498229 0.230738 -0.071369
C8    C     C_R   0.500087 0.499751 0.769384 -0.050383
C9    C     C_R   0.386091 0.532867 0.197207 -0.252497
C10   C     C_R   0.613478 0.465407 0.802891 -0.188178
C11   C     C_R   0.385271 0.533116 0.105127 0.121662
C12   C     C_R   0.613815 0.463867 0.895021 0.108711
C13   C     C_R   0.499280 0.497894 0.046454 0.069802
C14   C     C_R   0.499576 0.498471 0.953730 0.057371
C15   C     C_R   0.613091 0.462344 0.080483 0.121865
C16   C     C_R   0.385676 0.533788 0.919722 0.111181
C17   C     C_R   0.272775 0.568509 0.070867 -0.219130
C18   C     C_R   0.726171 0.428118 0.929288 -0.195240
C19   C     C_R   0.272833 0.568545 0.978297 -0.193145
C20   C     C_R   0.725881 0.427465 0.021893 -0.214877
H1    H     H_    0.698823 0.434254 0.199182 0.166876
H2    H     H_    0.299809 0.561689 0.801112 0.175766
H3    H     H_    0.298883 0.560444 0.242526 0.161176
H4    H     H_    0.701124 0.438966 0.757510 0.179409
H5    H     H_    0.185219 0.596334 0.115573 0.148461
H6    H     H_    0.813820 0.400553 0.884559 0.156783
H7    H     H_    0.185098 0.595900 0.952513 0.151992
H8    H     H_    0.813552 0.399930 0.047674 0.151763
C21   C     C_2   0.579316 0.868921 0.511360 -0.468777
C22   C     C_2   0.421866 0.131116 0.530699 -0.467006
C23   C     C_2   0.497645 0.931589 0.573246 0.284501
C24   C     C_2   0.508603 0.068891 0.571079 0.282084
H9    H     H_    0.338507 0.080198 0.506864 0.150423
H10   H     H_    0.658767 0.919679 0.465498 0.145033
H11   H     H_    0.116615 0.428160 0.441038 0.153322
H12   H     H_    0.883542 0.572447 0.558517 0.152608
N1    N     N_2   0.842700 0.448880 0.462930 -0.092220
N2    N     N_2   0.157300 0.551120 0.537070 -0.109225
C25   C     C_2   0.926043 0.508322 0.507375 -0.062425
C26   C     C_2   0.074043 0.491901 0.492430 -0.081886
N3    N     N_R   0.608519 0.132657 0.615509 0.234828
O9    O     O_R   0.722663 0.083517 0.614662 -0.390068
O10   O     O_R   0.575196 0.221766 0.672649 -0.396844
N4    N     N_R   0.404965 0.868688 0.644501 0.212017
O11   O     O_R   0.443305 0.776689 0.689842 -0.419663
O12   O     O_R   0.296336 0.921994 0.677748 -0.404833
C27   C     C_3   0.112986 0.633500 0.611816 -0.175530
C28   C     C_3   0.054026 0.556328 0.697409 -0.394572
C29   C     C_3   0.016718 0.643238 0.777286 -0.859118
H13   H     H_    0.105155 0.703318 0.789707 0.290606
H14   H     H_    0.937567 0.705053 0.763825 0.282430
H15   H     H_    0.978947 0.585299 0.838931 0.241613
H16   H     H_    0.963747 0.497924 0.686668 0.219924
H17   H     H_    0.127953 0.490757 0.714013 0.244339
H18   H     H_    0.201347 0.691362 0.626133 0.254624
H19   H     H_    0.043142 0.702114 0.593384 0.156992
C30   C     C_3   0.886547 0.365095 0.388889 -0.177142
C31   C     C_3   0.945394 0.441023 0.302691 -0.401685
C32   C     C_3   0.982563 0.353138 0.223409 -0.915645
H20   H     H_    0.061458 0.291308 0.237310 0.273977
H21   H     H_    0.893954 0.293081 0.211228 0.260087
H22   H     H_    0.020659 0.410378 0.161479 0.256688
H23   H     H_    0.871490 0.506293 0.285683 0.241288
H24   H     H_    0.035741 0.499716 0.312934 0.212420
H25   H     H_    0.956649 0.297113 0.407826 0.155395
H26   H     H_    0.798022 0.306392 0.375159 0.205232

loop_
_geom_bond_atom_site_label_1
_geom_bond_atom_site_label_2
_geom_bond_distance
_ccdc_geom_bond_type
C4    C7    1.439958 S    
Zn1   N2    2.012337 S    
O7    Zn2   2.019355 S    
C3    C8    1.440440 S    
C5    H1    1.082855 S    
Zn2   N1    2.012337 S    
C30   H26   1.110252 S    
C6    H2    1.082810 S    
C23   C24   1.448145 S    
C24   N3    1.439518 S    
O6    C4    1.290113 A    
C27   H19   1.111131 S    
C13   C14   1.391371 A    
C10   H4    1.084763 S    
C18   C20   1.389602 A    
C11   C17   1.399934 A    
C30   H25   1.111099 S    
C32   H21   1.111159 S    
C29   H13   1.110951 S    
C21   C23   1.348498 D    
C6    C8    1.398242 A    
C12   C18   1.399914 A    
O5    C3    1.290248 A    
O7    C3    1.289173 A    
H12   C25   1.081340 S    
C20   H8    1.084037 S    
C27   C28   1.536497 S    
O2    C2    1.284850 A    
O3    Zn2   1.916510 S    
O8    C4    1.289037 A    
H11   C26   1.081365 S    
O1    C1    1.286091 A    
C12   C14   1.411079 A    
N2    C26   1.296350 D    
C7    C9    1.399085 A    
C14   C16   1.410629 A    
C8    C10   1.399062 A    
C13   C15   1.410742 A    
C11   C13   1.411139 A    
C6    C16   1.382668 A    
C32   H20   1.111219 S    
O2    Zn2   1.919622 S    
N4    O12   1.301383 A    
C23   N4    1.439020 S    
C5    C15   1.383099 A    
O4    C2    1.297123 A    
C17   C19   1.389471 A    
C10   C12   1.383540 A    
C21   H10   1.087139 S    
C31   H24   1.109788 S    
N3    O9    1.301150 A    
O3    C1    1.295604 A    
N2    C27   1.453774 S    
C2    C22   1.452806 S    
O1    Zn1   1.919621 S    
C18   H6    1.083725 S    
C16   C19   1.400075 A    
N1    C25   1.296196 D    
C25   C26   1.509754 S    
C9    H3    1.084815 S    
C29   H14   1.111202 S    
N1    C30   1.454373 S    
C28   H16   1.109742 S    
C5    C7    1.398316 A    
C1    C21   1.451679 S    
N4    O11   1.299506 A    
C15   C20   1.400201 A    
C29   H15   1.109837 S    
O6    Zn2   2.020064 S    
O5    Zn1   2.020067 S    
C32   H22   1.109869 S    
C28   H17   1.110639 S    
C17   H5    1.083742 S    
C31   H23   1.110375 S    
C9    C11   1.383554 A    
C28   C29   1.526515 S    
C31   C32   1.526059 S    
C22   H9    1.087069 S    
C19   H7    1.084041 S    
C30   C31   1.536716 S    
O4    Zn1   1.916512 S    
C27   H18   1.107238 S    
C22   C24   1.349933 D    
N3    O10   1.299778 A    
O8    Zn1   2.019352 S    
