data_mof_unit_35231.cif
_audit_creation_date              2012-12-10T17:56:44-0500
_audit_creation_method            fapswitch 2.2
_symmetry_space_group_name_H-M    P1
_symmetry_Int_Tables_number       1
_space_group_crystal_system       triclinic
_cell_length_a                    10.75723
_cell_length_b                    9.558977
_cell_length_c                    10.781162
_cell_angle_alpha                 90.330875
_cell_angle_beta                  91.051277
_cell_angle_gamma                 90.328351
_cell_volume                      1108.38258179

loop_
_atom_site_label
_atom_site_type_symbol
_atom_type_description
_atom_site_fract_x
_atom_site_fract_y
_atom_site_fract_z
_atom_type_partial_charge
C1    C     C_R   0.262410 0.499458 0.497041 0.878424
C2    C     C_R   0.737449 0.499958 0.495975 0.832103
C3    C     C_R   0.937704 0.551545 0.594683 -0.252864
C4    C     C_R   0.066084 0.552601 0.594877 -0.266119
C5    C     C_R   0.415438 0.073962 0.430851 -0.151942
C6    C     C_R   0.585213 0.076279 0.569006 -0.158040
C7    C     C_R   0.416959 0.925053 0.426838 0.470926
C8    C     C_R   0.589335 0.926575 0.565999 0.509108
C9    C     C_R   0.503438 0.499782 0.262754 0.805016
C10   C     C_R   0.504448 0.500376 0.737545 0.769593
C11   C     C_R   0.700990 0.649355 0.135161 -0.130156
C12   C     C_R   0.702664 0.647566 0.876676 -0.158084
C13   C     C_R   0.793642 0.721272 0.072771 -0.129266
C14   C     C_R   0.794820 0.719908 0.943849 -0.142326
C15   C     C_R   0.606222 0.576484 0.937687 0.087094
C16   C     C_R   0.605793 0.576537 0.068798 0.083483
C17   C     C_R   0.512459 0.499452 0.129428 -0.109892
C18   C     C_R   0.512596 0.500673 0.871666 -0.094662
C19   C     C_R   0.425226 0.420018 0.062134 -0.213937
C20   C     C_R   0.424994 0.420923 0.934238 -0.203002
C21   C     C_R   0.063433 0.441552 0.390410 0.403248
C22   C     C_R   0.932911 0.443334 0.388748 0.403506
C23   C     C_R   0.871213 0.498672 0.492281 -0.182036
C24   C     C_R   0.128518 0.497789 0.493677 -0.177932
Cu1   Cu    Cu3+1 0.500000 0.640660 0.500000 1.000830
Cu2   Cu    Cu3+1 0.500000 0.359340 0.500000 0.936702
H1    H     H_    0.354777 0.360028 0.108931 0.164460
H2    H     H_    0.354406 0.361269 0.883647 0.151922
H3    H     H_    0.706829 0.649368 0.235293 0.151956
H4    H     H_    0.709136 0.645228 0.777126 0.172229
H5    H     H_    0.865750 0.776613 0.124795 0.128140
H6    H     H_    0.868348 0.773663 0.895870 0.120533
H7    H     H_    0.890246 0.591522 0.674744 0.154426
H8    H     H_    0.116968 0.594804 0.674473 0.160419
H9    H     H_    0.346400 0.130401 0.378319 0.146888
H10   H     H_    0.649133 0.136234 0.626638 0.151337
N1    N     N_R   0.500000 0.852070 0.500000 -0.230212
N2    N     N_R   0.500000 0.147940 0.500000 -0.201221
O1    O     O_R   0.319640 0.618740 0.499990 -0.535612
O2    O     O_R   0.680360 0.618740 0.500010 -0.564611
O3    O     O_R   0.319620 0.381170 0.499990 -0.577273
O4    O     O_R   0.680380 0.381170 0.500010 -0.595453
O5    O     O_R   0.500000 0.618810 0.319650 -0.585435
O6    O     O_R   0.500000 0.618810 0.680350 -0.555706
O7    O     O_R   0.499970 0.381240 0.319640 -0.587038
O8    O     O_R   0.500030 0.381240 0.680360 -0.576415
O9    O     O_3   0.128145 0.402639 0.285932 -0.582435
C25   C     C_3   0.131597 0.255438 0.276330 -0.298803
H11   H     H_    0.217679 0.225671 0.228374 0.156822
H12   H     H_    0.053818 0.216785 0.216868 0.182565
H13   H     H_    0.131834 0.201218 0.367644 0.144245
O10   O     O_3   0.868324 0.410839 0.279821 -0.576665
C26   C     C_3   0.821631 0.272369 0.283656 -0.316064
H14   H     H_    0.719739 0.273884 0.295320 0.212516
H15   H     H_    0.865065 0.205759 0.356892 0.140861
H16   H     H_    0.837511 0.221474 0.192664 0.172037
O11   O     O_3   0.328434 0.853243 0.356301 -0.556077
C27   C     C_3   0.342771 0.881762 0.228189 0.084581
H17   H     H_    0.415131 0.812749 0.189200 0.165449
H18   H     H_    0.371122 0.991407 0.208309 0.060913
C28   C     C_3   0.219853 0.855853 0.158012 -0.428725
H19   H     H_    0.149076 0.931014 0.190921 0.196094
H20   H     H_    0.233869 0.874533 0.057545 0.177722
C29   C     C_3   0.171740 0.706998 0.175081 -0.627170
H21   H     H_    0.243742 0.629936 0.149307 0.249428
H22   H     H_    0.088162 0.689303 0.115037 0.214735
H23   H     H_    0.145489 0.691154 0.273036 0.276079
O12   O     O_3   0.679096 0.852651 0.632248 -0.593228
C30   C     C_3   0.801183 0.908211 0.620128 0.032932
H24   H     H_    0.864510 0.840473 0.675054 0.160836
H25   H     H_    0.811417 0.013167 0.663559 0.119839
C31   C     C_3   0.846561 0.907859 0.485272 -0.368351
H26   H     H_    0.836841 0.801751 0.444241 0.245428
H27   H     H_    0.789991 0.980622 0.427999 0.183778
C32   C     C_3   0.982816 0.952196 0.479160 -0.907148
H28   H     H_    0.995973 0.058590 0.519442 0.245012
H29   H     H_    0.011951 0.953725 0.380929 0.249523
H30   H     H_    0.042583 0.877122 0.530727 0.280162

loop_
_geom_bond_atom_site_label_1
_geom_bond_atom_site_label_2
_ccdc_geom_bond_type
C15   C18   A    
C9    O7    A    
C28   C29   S    
C3    C23   A    
C19   C20   A    
Cu1   O5    S    
C26   H14   S    
C21   C22   A    
C10   C18   S    
Cu1   O2    S    
C4    C24   A    
C3    H7    S    
C27   H18   S    
C15   C16   A    
C30   H25   S    
C28   H20   S    
Cu2   O7    S    
Cu1   N1    S    
C25   H13   S    
O12   C30   S    
C10   O8    A    
C6    N2    A    
C19   H1    S    
C27   C28   S    
C25   H12   S    
C13   C14   A    
C30   H24   S    
C31   C32   S    
Cu1   O6    S    
C26   H15   S    
C4    H8    S    
C9    O5    A    
C10   O6    A    
C29   H23   S    
C31   H27   S    
C5    C7    A    
C1    O1    A    
Cu2   N2    S    
C6    C8    A    
C20   H2    S    
Cu1   Cu2   S    
C29   H22   S    
C30   C31   S    
C32   H28   S    
C11   C16   A    
O9    C25   S    
C12   C15   A    
C7    N1    A    
C32   H29   S    
C9    C17   S    
C25   H11   S    
C12   C14   A    
C8    O12   S    
C8    N1    A    
C3    C4    A    
O10   C26   S    
Cu2   O4    S    
C22   O10   S    
C26   H16   S    
C1    O3    A    
C12   H4    S    
C13   H5    S    
C14   H6    S    
C31   H26   S    
C29   H21   S    
C27   H17   S    
Cu1   O1    S    
C11   C13   A    
O11   C27   S    
C16   C17   A    
C2    O4    A    
C5    H9    S    
C17   C19   A    
C6    H10   S    
C18   C20   A    
C28   H19   S    
C32   H30   S    
Cu2   O8    S    
C2    O2    A    
C11   H3    S    
C1    C24   S    
C21   C24   A    
C2    C23   S    
C22   C23   A    
C5    N2    A    
C7    O11   S    
Cu2   O3    S    
C21   O9    S    
