data_mof_unit_44465.cif
_audit_creation_date              2012-12-11T16:19:20-0500
_audit_creation_method            fapswitch 2.2
_symmetry_space_group_name_H-M    P1
_symmetry_Int_Tables_number       1
_space_group_crystal_system       triclinic
_cell_length_a                    7.015263
_cell_length_b                    32.386824
_cell_length_c                    34.118837
_cell_angle_alpha                 90.168828
_cell_angle_beta                  90.09953
_cell_angle_gamma                 89.983566
_cell_volume                      7751.82535347

loop_
_atom_site_label
_atom_site_type_symbol
_atom_type_description
_atom_site_fract_x
_atom_site_fract_y
_atom_site_fract_z
_atom_type_partial_charge
O1    O     O_R   0.417270 0.211480 0.210950 -0.529915
O2    O     O_R   0.582730 0.788520 0.789050 -0.534120
O3    O     O_R   0.582730 0.788520 0.710950 -0.530019
O4    O     O_R   0.417270 0.211480 0.289050 -0.532758
O5    O     O_R   0.917270 0.288520 0.289050 -0.519826
O6    O     O_R   0.082730 0.711480 0.710950 -0.534794
O7    O     O_R   0.082730 0.711480 0.789050 -0.520985
O8    O     O_R   0.917270 0.288520 0.210950 -0.537054
O9    O     O_R   0.746940 0.206370 0.288750 -0.533098
O10   O     O_R   0.253060 0.793630 0.711250 -0.520165
O11   O     O_R   0.253060 0.793630 0.788750 -0.518303
O12   O     O_R   0.746940 0.206370 0.211250 -0.522127
O13   O     O_R   0.246940 0.293630 0.211250 -0.518261
O14   O     O_R   0.753060 0.706370 0.788750 -0.525482
O15   O     O_R   0.753060 0.706370 0.711250 -0.520608
O16   O     O_R   0.246940 0.293630 0.288750 -0.506766
C1    C     C_R   0.579050 0.196727 0.302233 0.822666
C2    C     C_R   0.422818 0.804096 0.698389 0.810132
C3    C     C_R   0.421133 0.802910 0.802684 0.821098
C4    C     C_R   0.577067 0.195853 0.198499 0.808329
C5    C     C_R   0.078840 0.303306 0.197669 0.820297
C6    C     C_R   0.922358 0.696564 0.802244 0.824207
C7    C     C_R   0.920574 0.696662 0.697541 0.815088
C8    C     C_R   0.077746 0.304112 0.301967 0.790516
O17   O     O_3   0.583760 0.276950 0.250000 -0.359546
O18   O     O_3   0.416240 0.723050 0.750000 -0.374060
O19   O     O_3   0.083760 0.223050 0.250000 -0.386566
O20   O     O_3   0.916240 0.776950 0.750000 -0.376061
V1    V     V_3+5 0.858600 0.245000 0.250000 1.656896
V2    V     V_3+5 0.141400 0.755000 0.750000 1.674630
V3    V     V_3+5 0.358600 0.255000 0.250000 1.680337
V4    V     V_3+5 0.641400 0.745000 0.750000 1.652189
C9    C     C_R   0.802383 0.570545 0.549553 0.675343
C10   C     C_R   0.954823 0.408786 0.464194 0.673749
C11   C     C_R   0.170428 0.434868 0.054126 0.693043
C12   C     C_R   0.944853 0.592658 0.970858 0.644773
C13   C     C_R   0.298941 0.938653 0.941402 0.729598
C14   C     C_R   0.538267 0.094760 0.026407 0.652975
C15   C     C_R   0.678253 0.068987 0.449366 0.691307
C16   C     C_R   0.455936 0.911102 0.532436 0.645802
N1    N     N_R   0.910280 0.563932 0.582685 -0.547982
N2    N     N_R   0.941987 0.422994 0.426411 -0.560105
N3    N     N_R   0.046171 0.436772 0.085243 -0.547017
N4    N     N_R   0.981523 0.580978 0.932563 -0.549946
N5    N     N_R   0.451140 0.935272 0.916282 -0.557993
N6    N     N_R   0.462790 0.087713 0.063003 -0.521096
N7    N     N_R   0.553188 0.067021 0.418304 -0.550817
N8    N     N_R   0.494044 0.922468 0.570765 -0.552345
C17   C     C_R   0.001254 0.526428 0.586973 0.650917
C18   C     C_R   0.901575 0.463890 0.419347 0.610424
C19   C     C_R   0.922924 0.469702 0.088502 0.655901
C20   C     C_R   0.046276 0.541316 0.925767 0.679801
C21   C     C_R   0.596082 0.963785 0.917842 0.659786
C22   C     C_R   0.323672 0.057242 0.064484 0.628409
C23   C     C_R   0.427088 0.034552 0.415539 0.649206
C24   C     C_R   0.561274 0.961944 0.577647 0.681019
C25   C     C_R   0.975529 0.494337 0.558661 -0.143569
C26   C     C_R   0.867269 0.491944 0.450845 -0.145749
C27   C     C_R   0.929767 0.502842 0.061162 -0.144948
C28   C     C_R   0.095433 0.514929 0.957419 -0.148770
C29   C     C_R   0.584436 0.998399 0.943388 -0.135250
C30   C     C_R   0.308030 0.026377 0.034390 -0.138899
C31   C     C_R   0.433709 0.001463 0.442886 -0.142528
C32   C     C_R   0.609035 0.988460 0.545983 -0.146450
C33   C     C_R   0.902162 0.505730 0.521578 -0.059290
C34   C     C_R   0.906336 0.477988 0.489438 -0.063089
C35   C     C_R   0.031244 0.496081 0.025868 -0.056752
C36   C     C_R   0.018810 0.524463 0.994565 -0.050815
C37   C     C_R   0.445055 0.997392 0.973451 -0.073346
C38   C     C_R   0.441697 0.027911 0.003259 -0.016725
C39   C     C_R   0.539145 0.007862 0.477825 -0.057801
C40   C     C_R   0.528805 0.979322 0.509015 -0.052688
C41   C     C_R   0.823625 0.544963 0.516652 -0.103551
C42   C     C_R   0.953913 0.436528 0.495973 -0.124674
C43   C     C_R   0.148062 0.461286 0.021969 -0.104842
C44   C     C_R   0.935400 0.563035 0.000809 -0.094727
C45   C     C_R   0.302611 0.967157 0.972505 -0.120742
C46   C     C_R   0.560145 0.062312 0.999791 -0.048981
C47   C     C_R   0.657296 0.042486 0.481533 -0.105538
C48   C     C_R   0.443345 0.940979 0.502848 -0.094572
C49   C     C_R   0.024236 0.452132 0.564872 0.366346
C50   C     C_R   0.797964 0.533213 0.445984 0.362489
C51   C     C_R   0.839629 0.541946 0.066800 0.376540
C52   C     C_R   0.215153 0.479619 0.953811 0.382828
C53   C     C_R   0.702738 0.033998 0.940198 0.402980
C54   C     C_R   0.165397 0.994672 0.033246 0.384054
C55   C     C_R   0.339357 0.962750 0.437586 0.378688
C56   C     C_R   0.729657 0.023633 0.549436 0.384287
C57   C     C_R   0.006001 0.423786 0.533806 -0.210727
C58   C     C_R   0.769297 0.558108 0.479241 -0.245608
C59   C     C_R   0.853023 0.571986 0.037279 -0.216304
C60   C     C_R   0.242814 0.453933 0.986432 -0.220485
C61   C     C_R   0.685214 0.065638 0.968036 -0.210787
C62   C     C_R   0.163069 0.966582 0.001795 -0.202618
C63   C     C_R   0.354415 0.932543 0.466904 -0.206341
C64   C     C_R   0.754988 0.049517 0.516874 -0.221052
O21   O     O_2   0.674592 0.601633 0.548258 -0.494445
O22   O     O_2   0.972794 0.367950 0.471029 -0.458177
O23   O     O_2   0.315257 0.407426 0.054124 -0.494980
O24   O     O_2   0.927814 0.632764 0.980920 -0.489371
O25   O     O_2   0.143850 0.914536 0.936377 -0.474986
O26   O     O_2   0.563344 0.133300 0.012826 -0.485265
O27   O     O_2   0.822797 0.096475 0.449281 -0.493843
O28   O     O_2   0.439827 0.871083 0.521988 -0.481218
O29   O     O_2   0.123159 0.520967 0.616973 -0.455672
O30   O     O_2   0.903385 0.477434 0.382136 -0.441410
O31   O     O_2   0.789798 0.469372 0.116815 -0.451052
O32   O     O_2   0.054214 0.526663 0.888845 -0.431677
O33   O     O_2   0.753670 0.957566 0.896161 -0.439627
O34   O     O_2   0.192399 0.058520 0.092951 -0.490330
O35   O     O_2   0.291470 0.035324 0.387639 -0.451689
O36   O     O_2   0.572404 0.976390 0.614604 -0.431924
H1    H     H_    0.042059 0.391726 0.538751 0.219850
H2    H     H_    0.712864 0.588958 0.475757 0.201823
H3    H     H_    0.792925 0.602266 0.042332 0.204621
H4    H     H_    0.335247 0.427328 0.983729 0.193169
H5    H     H_    0.771604 0.093097 0.965212 0.189144
H6    H     H_    0.053101 0.943191 0.000564 0.207243
H7    H     H_    0.289780 0.902616 0.462271 0.204843
H8    H     H_    0.848135 0.076000 0.519474 0.192335
C65   C     C_R   0.864115 0.391249 0.361857 -0.059925
C66   C     C_R   0.934685 0.589526 0.652307 -0.079179
C67   C     C_R   0.092521 0.609890 0.868385 -0.166031
C68   C     C_R   0.032171 0.410256 0.154153 -0.068781
C69   C     C_R   0.451938 0.102618 0.136194 -0.102894
C70   C     C_R   0.502553 0.907338 0.849029 -0.053709
C71   C     C_R   0.597576 0.892931 0.635476 -0.162616
C72   C     C_R   0.539006 0.091495 0.348908 -0.067663
H9    H     H_    0.735730 0.409575 0.360149 0.166187
H10   H     H_    0.925771 0.558357 0.663401 0.216718
H11   H     H_    0.212921 0.589052 0.868574 0.191660
H12   H     H_    0.022895 0.441432 0.165466 0.212549
H13   H     H_    0.393556 0.072651 0.142619 0.222933
H14   H     H_    0.537855 0.937927 0.838622 0.207016
H15   H     H_    0.718283 0.913645 0.636289 0.194629
H16   H     H_    0.529897 0.059946 0.338551 0.207697
C73   C     C_R   0.902503 0.363324 0.331649 -0.155922
C74   C     C_R   0.945432 0.622149 0.679503 -0.269890
C75   C     C_R   0.076286 0.637145 0.836791 -0.218084
C76   C     C_R   0.034479 0.377303 0.180772 -0.271550
C77   C     C_R   0.473590 0.129133 0.168454 -0.280626
C78   C     C_R   0.498859 0.874604 0.822211 -0.258252
C79   C     C_R   0.577160 0.865143 0.666601 -0.230289
C80   C     C_R   0.538065 0.123453 0.321340 -0.275926
H17   H     H_    0.803625 0.361607 0.307291 0.176805
H18   H     H_    0.955464 0.615084 0.710458 0.156776
H19   H     H_    0.178919 0.635126 0.813173 0.166631
H20   H     H_    0.018190 0.383746 0.211768 0.156548
H21   H     H_    0.420757 0.119552 0.196832 0.159428
H22   H     H_    0.538946 0.880355 0.792057 0.155616
H23   H     H_    0.676096 0.866848 0.690967 0.167985
H24   H     H_    0.520640 0.115922 0.290575 0.148421
C81   C     C_R   0.061961 0.337110 0.332884 -0.223409
C82   C     C_R   0.925587 0.663328 0.667319 -0.254674
C83   C     C_R   0.933201 0.667292 0.835911 -0.196891
C84   C     C_R   0.070749 0.336788 0.167983 -0.262356
C85   C     C_R   0.563742 0.167292 0.164514 -0.234371
C86   C     C_R   0.430300 0.835646 0.833211 -0.266738
C87   C     C_R   0.436151 0.834497 0.665782 -0.249152
C88   C     C_R   0.572152 0.164403 0.332870 -0.214327
C89   C     C_R   0.193363 0.341958 0.364400 0.290043
C90   C     C_R   0.898709 0.670757 0.626757 0.341710
C91   C     C_R   0.809893 0.670600 0.868481 0.325151
C92   C     C_R   0.100342 0.329979 0.127350 0.353415
C93   C     C_R   0.639297 0.177901 0.127829 0.306060
C94   C     C_R   0.373576 0.829529 0.872811 0.349783
C95   C     C_R   0.320537 0.831375 0.632148 0.296405
C96   C     C_R   0.604253 0.172909 0.373144 0.297335
C97   C     C_R   0.160670 0.372359 0.393729 0.377555
C98   C     C_R   0.941079 0.639286 0.599613 0.376508
C99   C     C_R   0.812646 0.640077 0.898314 0.368507
C100  C     C_R   0.055198 0.361480 0.100587 0.368276
C101  C     C_R   0.633068 0.149437 0.096309 0.373563
C102  C     C_R   0.416154 0.860088 0.901088 0.399021
C103  C     C_R   0.321574 0.863160 0.603625 0.396101
C104  C     C_R   0.564870 0.142073 0.401072 0.374162
C105  C     C_R   0.988150 0.395322 0.393910 0.187193
C106  C     C_R   0.932814 0.597321 0.611594 0.162245
C107  C     C_R   0.959927 0.609989 0.899561 0.177014
C108  C     C_R   0.041527 0.402909 0.113478 0.171488
C109  C     C_R   0.512557 0.113661 0.097846 0.136401
C110  C     C_R   0.459862 0.900779 0.888773 0.168528
C111  C     C_R   0.468558 0.893332 0.603548 0.173598
C112  C     C_R   0.550379 0.100180 0.389317 0.187576
S1    S     S_3+6 0.093841 0.432096 0.611144 0.149478
O37   O     O_2   0.963645 0.448456 0.642502 -0.232398
O38   O     O_2   0.083946 0.385722 0.611278 -0.278081
O39   O     O_3   0.318941 0.446608 0.621157 -0.412363
H25   H     H_    0.393812 0.437910 0.597961 0.338678
S2    S     S_3+6 0.726355 0.554481 0.400241 0.112046
O40   O     O_2   0.588799 0.525716 0.380228 -0.263104
O41   O     O_2   0.630278 0.595589 0.405778 -0.313370
O42   O     O_3   0.918485 0.561060 0.371518 -0.394248
H26   H     H_    0.008358 0.577596 0.387567 0.355408
S3    S     S_3+6 0.721230 0.556620 0.110710 0.145076
O43   O     O_2   0.846155 0.547197 0.145386 -0.224272
O44   O     O_2   0.676581 0.602031 0.110878 -0.287083
O45   O     O_3   0.515859 0.530162 0.114715 -0.424427
H27   H     H_    0.446779 0.535452 0.089876 0.326127
S4    S     S_3+6 0.353104 0.468973 0.911363 0.100653
O46   O     O_2   0.439933 0.508269 0.896314 -0.291105
O47   O     O_2   0.510778 0.439033 0.920518 -0.318091
O48   O     O_3   0.212817 0.448444 0.876380 -0.397977
H28   H     H_    0.153247 0.424059 0.888818 0.355474
S5    S     S_3+6 0.854441 0.043774 0.899578 0.124127
O49   O     O_2   0.752293 0.033563 0.862020 -0.233733
O50   O     O_2   0.912291 0.088471 0.898420 -0.302519
O51   O     O_3   0.051685 0.014539 0.903019 -0.445292
H29   H     H_    0.132371 0.028806 0.922674 0.330799
S6    S     S_3+6 0.984795 0.987778 0.069294 0.071821
O52   O     O_2   0.856022 0.024843 0.069803 -0.311026
O53   O     O_2   0.865771 0.950237 0.060576 -0.325694
O54   O     O_3   0.084594 0.981993 0.113802 -0.419952
H30   H     H_    0.177136 0.959133 0.110586 0.355447
S7    S     S_3+6 0.212419 0.948758 0.394397 0.137954
O55   O     O_2   0.333322 0.957279 0.359005 -0.231211
O56   O     O_2   0.161613 0.903659 0.394600 -0.288110
O57   O     O_3   0.010167 0.976526 0.391471 -0.429297
H31   H     H_    0.944036 0.971712 0.416685 0.324581
S8    S     S_3+6 0.871236 0.033865 0.591557 0.099818
O58   O     O_2   0.958168 0.994372 0.606201 -0.290841
O59   O     O_2   0.028977 0.063632 0.582117 -0.319152
O60   O     O_3   0.734281 0.054409 0.626998 -0.398750
H32   H     H_    0.674577 0.078968 0.614842 0.356014
S9    S     S_3+6 0.393062 0.308842 0.368574 0.084609
O61   O     O_2   0.528105 0.318265 0.335766 -0.316933
O62   O     O_2   0.497178 0.314097 0.406782 -0.246926
O63   O     O_3   0.319061 0.259657 0.364358 -0.500772
H33   H     H_    0.220954 0.256458 0.384945 0.352266
S10   S     S_3+6 0.757532 0.711824 0.608453 0.111963
O64   O     O_2   0.862180 0.733501 0.576177 -0.255999
O65   O     O_2   0.579571 0.693294 0.591305 -0.312276
O66   O     O_3   0.692978 0.745846 0.642957 -0.469465
H34   H     H_    0.640347 0.769474 0.628098 0.383974
S11   S     S_3+6 0.666438 0.715188 0.874710 0.041669
O67   O     O_2   0.480835 0.707959 0.853913 -0.331451
O68   O     O_2   0.631002 0.723103 0.917461 -0.307125
O69   O     O_3   0.773878 0.756859 0.855689 -0.468591
H35   H     H_    0.705282 0.780746 0.866982 0.354322
S12   S     S_3+6 0.233818 0.288109 0.108319 0.106259
O70   O     O_2   0.125940 0.268309 0.075190 -0.281833
O71   O     O_2   0.416194 0.305269 0.092125 -0.308644
O72   O     O_3   0.287572 0.252643 0.142204 -0.466638
H36   H     H_    0.321255 0.227672 0.126933 0.371424
S13   S     S_3+6 0.759765 0.225281 0.121256 0.049773
O73   O     O_2   0.961204 0.217374 0.133367 -0.341337
O74   O     O_2   0.752644 0.238124 0.078963 -0.272225
O75   O     O_3   0.670258 0.263548 0.149028 -0.482293
H37   H     H_    0.729385 0.289085 0.138810 0.353154
S14   S     S_3+6 0.217017 0.789549 0.887823 0.090855
O76   O     O_2   0.030436 0.809640 0.897897 -0.328671
O77   O     O_2   0.183204 0.757741 0.856651 -0.293023
O78   O     O_3   0.300616 0.766324 0.928291 -0.460221
H38   H     H_    0.199477 0.746602 0.935964 0.373534
S15   S     S_3+6 0.191264 0.785643 0.622367 0.046933
O79   O     O_2   0.993815 0.792041 0.637766 -0.341365
O80   O     O_2   0.185549 0.778084 0.578893 -0.265198
O81   O     O_3   0.288136 0.744046 0.644029 -0.495227
H39   H     H_    0.237761 0.720026 0.629301 0.363026
S16   S     S_3+6 0.733944 0.216783 0.389639 0.118674
O82   O     O_2   0.933034 0.202563 0.398636 -0.331223
O83   O     O_2   0.744688 0.250170 0.359394 -0.276479
O84   O     O_3   0.640393 0.235973 0.431243 -0.406591
H40   H     H_    0.500642 0.234537 0.427635 0.361077
O85   O     O_3   0.287505 0.375885 0.424741 -0.512567
C113  C     C_3   0.377283 0.414997 0.424873 0.154954
H41   H     H_    0.289075 0.440056 0.411831 0.124892
H42   H     H_    0.509010 0.413131 0.407154 0.129418
C114  C     C_3   0.431695 0.426234 0.467166 -0.272911
H43   H     H_    0.337663 0.410266 0.488349 0.230983
H44   H     H_    0.577965 0.415214 0.473200 0.197968
C115  C     C_3   0.420079 0.472616 0.474715 -0.823039
H45   H     H_    0.485628 0.489730 0.450303 0.260555
H46   H     H_    0.491969 0.480467 0.502761 0.244162
H47   H     H_    0.270580 0.482828 0.476491 0.238612
O86   O     O_3   0.957643 0.649849 0.560479 -0.515052
C116  C     C_3   0.146165 0.642585 0.547897 0.114381
H48   H     H_    0.189384 0.609892 0.552771 0.120161
H49   H     H_    0.246345 0.663384 0.563814 0.183242
C117  C     C_3   0.157724 0.651660 0.504050 -0.274163
H50   H     H_    0.047879 0.633253 0.488260 0.204631
H51   H     H_    0.128279 0.684949 0.498980 0.249318
C118  C     C_3   0.353320 0.640873 0.487523 -0.668404
H52   H     H_    0.466274 0.658723 0.502893 0.284640
H53   H     H_    0.357766 0.648541 0.455844 0.260576
H54   H     H_    0.380827 0.607298 0.490895 0.232412
O87   O     O_3   0.691478 0.644083 0.929762 -0.504263
C119  C     C_3   0.509630 0.628735 0.920805 0.129385
H55   H     H_    0.511666 0.594379 0.919776 0.132485
H56   H     H_    0.456644 0.640317 0.892164 0.126033
C120  C     C_3   0.374845 0.644034 0.952807 -0.221375
H57   H     H_    0.402315 0.677153 0.959203 0.258887
H58   H     H_    0.227416 0.642246 0.942174 0.175451
C121  C     C_3   0.396993 0.619344 0.990573 -0.655916
H59   H     H_    0.371127 0.585987 0.985094 0.191856
H60   H     H_    0.293322 0.630532 0.012729 0.246980
H61   H     H_    0.542467 0.623572 0.002521 0.261846
O88   O     O_3   0.043524 0.352034 0.061093 -0.521105
C122  C     C_3   0.849171 0.350089 0.050510 0.120418
H62   H     H_    0.777186 0.380300 0.055765 0.131242
H63   H     H_    0.775463 0.325552 0.067574 0.192804
C123  C     C_3   0.833905 0.339656 0.006957 -0.278510
H64   H     H_    0.907670 0.363872 0.989626 0.203434
H65   H     H_    0.904927 0.309553 0.001228 0.246561
C124  C     C_3   0.626198 0.337019 0.993822 -0.644483
H66   H     H_    0.550304 0.312567 0.010390 0.280395
H67   H     H_    0.619881 0.329373 0.962105 0.240741
H68   H     H_    0.553590 0.367065 0.998610 0.247560
O89   O     O_3   0.754467 0.156836 0.065406 -0.500702
C125  C     C_3   0.932177 0.137837 0.072461 0.171167
H69   H     H_    0.922773 0.104466 0.065262 0.172011
H70   H     H_    0.979152 0.141014 0.103591 0.119351
C126  C     C_3   0.083057 0.158534 0.046849 -0.248944
H71   H     H_    0.067905 0.192583 0.048790 0.283560
H72   H     H_    0.226516 0.150742 0.057989 0.171846
C127  C     C_3   0.068213 0.145183 0.004042 -0.604490
H73   H     H_    0.083874 0.111144 0.001410 0.186451
H74   H     H_    0.183539 0.160055 0.986895 0.252385
H75   H     H_    0.929059 0.154886 0.991597 0.275496
O90   O     O_3   0.389227 0.851091 0.940482 -0.521466
C128  C     C_3   0.562036 0.855642 0.961757 0.046122
H76   H     H_    0.525687 0.867141 0.991530 0.166026
H77   H     H_    0.662936 0.878538 0.949041 0.136970
C129  C     C_3   0.662459 0.813958 0.965681 -0.243011
H78   H     H_    0.567437 0.791840 0.981009 0.246881
H79   H     H_    0.693915 0.801658 0.936034 0.253622
C130  C     C_3   0.848796 0.817947 0.988551 -0.655117
H80   H     H_    0.946839 0.839783 0.973677 0.281487
H81   H     H_    0.919374 0.787309 0.990286 0.254603
H82   H     H_    0.820380 0.829195 0.018767 0.228239
O91   O     O_3   0.199723 0.860291 0.572068 -0.504683
C131  C     C_3   0.015735 0.873880 0.581761 0.111280
H83   H     H_    0.009108 0.908178 0.580547 0.135053
H84   H     H_    0.970734 0.864036 0.611536 0.115745
C132  C     C_3   0.879117 0.854950 0.551820 -0.205815
H85   H     H_    0.906212 0.821288 0.549090 0.283133
H86   H     H_    0.732026 0.858161 0.562311 0.172755
C133  C     C_3   0.900021 0.874943 0.511559 -0.610238
H87   H     H_    0.873945 0.908727 0.513445 0.182747
H88   H     H_    0.795578 0.861172 0.490846 0.253268
H89   H     H_    0.045218 0.869379 0.499898 0.266184
O92   O     O_3   0.555774 0.152782 0.440303 -0.529263
C134  C     C_3   0.362977 0.151893 0.452190 0.064714
H90   H     H_    0.301237 0.120407 0.448680 0.150427
H91   H     H_    0.277018 0.174210 0.434704 0.156100
C135  C     C_3   0.351115 0.163978 0.495396 -0.291032
H92   H     H_    0.438736 0.142259 0.513051 0.215448
H93   H     H_    0.408981 0.195657 0.499412 0.237227
C136  C     C_3   0.145760 0.162793 0.510035 -0.648793
H94   H     H_    0.055441 0.184396 0.492887 0.271035
H95   H     H_    0.141450 0.172091 0.541364 0.247534
H96   H     H_    0.087435 0.131060 0.507301 0.245128

loop_
_geom_bond_atom_site_label_1
_geom_bond_atom_site_label_2
_ccdc_geom_bond_type
S15   O80   D    
O60   H32   S    
C10   N2    A    
O15   V4    S    
O75   H37   S    
O16   V3    S    
C98   C106  A    
N6    C109  S    
C103  C111  A    
C26   C50   A    
S14   O77   D    
S9    O63   S    
C30   C38   A    
C104  C112  A    
C1    C88   S    
C2    C87   S    
C125  H69   S    
C120  H57   S    
C129  H78   S    
C117  C118  S    
C80   C88   A    
O5    V1    S    
S3    O45   S    
C65   H9    S    
C74   C82   A    
S14   O78   S    
C79   H23   S    
S13   O73   D    
C78   C86   A    
N4    C107  S    
N1    C17   A    
O63   H33   S    
C68   C76   A    
N5    C110  S    
O17   V1    S    
C57   H1    S    
N3    C108  S    
C94   C102  A    
C95   S15   S    
O19   V3    S    
C119  C120  S    
O20   V4    S    
C25   C33   A    
C132  H86   S    
O92   C134  S    
C14   C46   A    
C63   H7    S    
C81   C89   A    
C127  H73   S    
S7    O55   D    
C132  C133  S    
O10   V2    S    
O12   C4    A    
C73   C81   A    
C71   C79   A    
C117  H50   S    
C15   O27   S    
C60   H4    S    
C29   C53   A    
C76   C84   A    
C9    C41   A    
O6    V2    S    
C31   C39   A    
C114  H44   S    
C12   N4    A    
O88   C122  S    
C13   N5    A    
C15   N7    A    
C21   O33   S    
C16   N8    A    
O1    C4    A    
C23   O35   S    
O2    C3    A    
C27   C51   A    
S1    O39   S    
O7    C6    A    
C51   C59   A    
C47   C64   A    
O10   C2    A    
C129  C130  S    
C87   C95   A    
C9    O21   S    
C58   H2    S    
C51   S3    S    
C37   C38   A    
S3    O43   D    
C70   H14   S    
C19   O31   S    
O42   H26   S    
S13   O75   S    
O17   V3    S    
O18   V4    S    
C136  H94   S    
O12   V1    S    
O19   V1    S    
C37   C45   A    
C102  C110  A    
C39   C47   A    
S1    O37   D    
C53   S5    S    
C30   C54   A    
C94   S14   S    
C127  H75   S    
O8    V1    S    
C120  H58   S    
C41   C58   A    
C115  H47   S    
O78   H38   S    
S1    O38   D    
C34   C42   A    
C67   C75   A    
C45   C62   A    
O1    V3    S    
C17   C25   A    
C22   O34   S    
O2    V4    S    
C65   C73   A    
C20   C28   A    
C27   C35   A    
C21   C29   A    
C69   C77   A    
C124  H67   S    
C23   C31   A    
C24   C32   A    
C11   N3    A    
O66   H34   S    
C89   C97   A    
N4    C20   A    
C88   C96   A    
N5    C21   A    
C116  H48   S    
C118  H54   S    
C99   C107  A    
O3    V4    S    
C61   H5    S    
C97   C105  A    
S8    O58   D    
O8    C5    A    
C6    C83   S    
S5    O50   D    
C123  H65   S    
C131  H83   S    
C67   C107  A    
S7    O57   S    
C85   C93   A    
C130  H81   S    
C115  H45   S    
C65   C105  A    
C83   C91   A    
C132  H85   S    
C119  H56   S    
C135  H93   S    
C75   C83   A    
C128  C129  S    
C48   C63   A    
C113  H42   S    
N2    C18   A    
S4    O47   D    
C128  H76   S    
C136  H96   S    
S6    O53   D    
C134  H91   S    
S11   O69   S    
C114  C115  S    
C35   C43   A    
C135  C136  S    
C95   C103  A    
O9    C1    A    
C96   C104  A    
C92   C100  A    
C3    C86   S    
C82   C90   A    
S16   O82   D    
C113  C114  S    
O18   V2    S    
C36   C44   A    
C133  H89   S    
C97   O85   S    
O14   C6    A    
O81   H39   S    
C39   C40   A    
C40   C48   A    
C13   O25   S    
C62   H6    S    
C74   H18   S    
S12   O70   D    
S9    O62   D    
C122  C123  S    
C104  O92   S    
C14   N6    A    
C91   S11   S    
C102  O90   S    
C44   C59   A    
O86   C116  S    
C129  H79   S    
C116  C117  S    
C118  H52   S    
C52   C60   A    
S8    O60   S    
S3    O44   D    
C56   C64   A    
C131  C132  S    
O48   H28   S    
C103  O91   S    
O84   H40   S    
O54   H30   S    
O11   C3    A    
S2    O40   D    
C73   H17   S    
C71   H15   S    
C99   O87   S    
C72   H16   S    
C121  H59   S    
C118  H53   S    
C69   H13   S    
O72   H36   S    
C127  H74   S    
S2    O42   S    
O11   V2    S    
O51   H29   S    
S11   O67   D    
C91   C99   A    
C49   C57   A    
C100  C108  A    
S15   O81   S    
C101  C109  A    
O7    V2    S    
C114  H43   S    
S16   O84   S    
C125  H70   S    
C100  O88   S    
C69   C109  A    
C35   C36   A    
C18   C26   A    
C66   C74   A    
C121  H61   S    
C17   O29   S    
C22   C30   A    
S14   O76   D    
O89   C125  S    
C13   C45   A    
C70   C78   A    
S12   O72   S    
C56   S8    S    
C15   C47   A    
C122  H62   S    
O87   C119  S    
C90   C98   A    
C11   C43   A    
N6    C22   A    
C12   O24   S    
C90   S10   S    
C10   C42   A    
O4    C1    A    
C4    C85   S    
S13   O74   D    
S6    O54   S    
C8    C81   S    
C86   C94   A    
C66   C106  A    
O69   H35   S    
S2    O41   D    
C67   H11   S    
O13   V3    S    
C54   S6    S    
O14   V4    S    
N7    C112  S    
N8    C111  S    
C79   C87   A    
C50   C58   A    
C9    N1    A    
C78   H22   S    
C96   S16   S    
C130  H80   S    
C119  H55   S    
N3    C19   A    
C126  H71   S    
C10   O22   S    
C59   H3    S    
S10   O64   D    
O4    V3    S    
C126  H72   S    
C28   C36   A    
C80   H24   S    
C124  H66   S    
C7    C82   S    
C18   O30   S    
C55   S7    S    
C46   C61   A    
C32   C56   A    
C125  C126  S    
C134  H90   S    
C38   C46   A    
C71   C111  A    
C72   C112  A    
O91   C131  S    
C98   O86   S    
C76   H20   S    
S8    O59   D    
O57   H31   S    
C77   H21   S    
S5    O49   D    
C52   S4    S    
C123  C124  S    
C75   H19   S    
S10   O66   S    
C42   C57   A    
C117  H51   S    
S7    O56   D    
S6    O52   D    
N2    C105  S    
C93   C101  A    
C33   C41   A    
O3    C2    A    
C12   C44   A    
C26   C34   A    
S4    O46   D    
C128  H77   S    
C92   S12   S    
C16   C48   A    
O45   H27   S    
C54   C62   A    
O85   C113  S    
O9    V1    S    
O15   C7    A    
O16   C8    A    
C50   S2    S    
S11   O68   D    
C53   C61   A    
C11   O23   S    
C49   S1    S    
C68   H12   S    
C89   S9    S    
C133  H88   S    
O13   C5    A    
N1    C106  S    
C120  C121  S    
C93   S13   S    
S16   O83   D    
C126  C127  S    
C55   C63   A    
O39   H25   S    
S10   O65   D    
C16   O28   S    
C72   C80   A    
C124  H68   S    
S12   O71   D    
S9    O61   D    
C122  H63   S    
C84   C92   A    
C43   C60   A    
C77   C85   A    
C115  H46   S    
C133  H87   S    
C116  H49   S    
C25   C49   A    
C70   C110  A    
C19   C27   A    
S15   O79   D    
N7    C23   A    
S5    O51   S    
C29   C37   A    
N8    C24   A    
C123  H64   S    
C101  O89   S    
C31   C55   A    
C64   H8    S    
C130  H82   S    
O90   C128  S    
O20   V2    S    
C14   O26   S    
C121  H60   S    
C28   C52   A    
C135  H92   S    
O5    C8    A    
S4    O48   S    
O6    C7    A    
C5    C84   S    
C24   O36   S    
C32   C40   A    
C68   C108  A    
C113  H41   S    
C131  H84   S    
C20   O32   S    
C136  H95   S    
C33   C34   A    
C134  C135  S    
C66   H10   S    
