data_mof_unit_24360.cif
_audit_creation_date              2012-12-11T14:50:43-0500
_audit_creation_method            fapswitch 2.2
_symmetry_space_group_name_H-M    P1
_symmetry_Int_Tables_number       1
_space_group_crystal_system       triclinic
_cell_length_a                    10.888586
_cell_length_b                    11.023052
_cell_length_c                    18.668486
_cell_angle_alpha                 89.873026
_cell_angle_beta                  89.481439
_cell_angle_gamma                 60.989453
_cell_volume                      1959.46832176

loop_
_atom_site_label
_atom_site_type_symbol
_atom_type_description
_atom_site_fract_x
_atom_site_fract_y
_atom_site_fract_z
_atom_type_partial_charge
C1    C     C_R   0.291651 0.623780 0.615760 0.574025
C2    C     C_R   0.547843 0.197707 0.795216 -0.071691
C3    C     C_R   0.540309 0.195045 0.721844 0.306990
C4    C     C_R   0.656912 0.621074 0.600022 0.576112
C5    C     C_R   0.644392 0.208382 0.682289 0.021806
C6    C     C_R   0.272303 0.528217 0.734971 -0.189708
C7    C     C_R   0.251448 0.540543 0.809583 0.190854
C8    C     C_R   0.204448 0.671104 0.840860 -0.038152
C9    C     C_R   0.210996 0.778203 0.801468 0.213116
C10   C     C_R   0.231178 0.765512 0.728064 0.234648
C11   C     C_R   0.260391 0.639823 0.693464 -0.076438
C12   C     C_3   0.635700 0.629460 0.802804 -0.309967
C13   C     C_R   0.699740 0.500208 0.263140 -0.113551
C14   C     C_R   0.709306 0.519649 0.190106 -0.104019
C15   C     C_R   0.633488 0.652282 0.160227 0.019390
C16   C     C_R   0.620765 0.240564 0.606371 0.531201
C17   C     C_R   0.522016 0.753970 0.200493 -0.095495
C18   C     C_R   0.512029 0.734853 0.274416 -0.115048
C19   C     C_R   0.609967 0.610082 0.307386 0.014237
C20   C     C_R   0.581335 0.094267 0.303037 -0.122721
C21   C     C_R   0.588180 0.066626 0.230277 0.251985
C22   C     C_R   0.690711 0.074397 0.188201 0.016096
C23   C     C_3   0.739716 0.687798 0.806078 -0.022663
C24   C     C_R   0.791333 0.101406 0.220703 -0.173797
C25   C     C_R   0.785760 0.127702 0.293511 0.043207
C26   C     C_R   0.670571 0.138205 0.333166 -0.001146
C27   C     C_R   0.128440 0.796161 0.299298 -0.123691
C28   C     C_R   0.219809 0.650153 0.402613 0.554283
C29   C     C_R   0.085415 0.816219 0.230530 -0.150785
C30   C     C_R   0.061459 0.718209 0.195169 0.035919
C31   C     C_R   0.072332 0.601980 0.233352 0.076732
C32   C     C_R   0.111700 0.585501 0.304808 -0.106408
C33   C     C_R   0.144025 0.680513 0.336744 0.012375
C34   C     C_3   0.690707 0.650414 0.672474 0.059762
C35   C     C_R   0.697345 0.111106 0.899135 0.586820
C36   C     C_R   0.758621 0.710241 0.883154 0.579680
C37   C     C_R   0.122235 0.707256 0.907477 0.535189
C38   C     C_R   0.700783 0.043894 0.111664 0.577051
C39   C     C_R   0.690894 0.686630 0.095364 0.550457
C40   C     C_R   0.613694 0.588697 0.386154 0.561221
C41   C     C_R   0.030652 0.743167 0.119423 0.546708
C42   C     C_R   0.622362 0.220946 0.398068 0.556133
C43   C     C_3   0.678055 0.825580 0.761058 0.179305
C44   C     C_3   0.672085 0.798346 0.679657 0.172966
C45   C     C_3   0.846663 0.544836 0.693090 0.115989
C46   C     C_3   0.878012 0.574836 0.769519 -0.220085
C47   C     C_3   0.878842 0.856692 0.768046 -0.117087
C48   C     C_3   0.336560 0.162926 0.728389 -0.086766
C49   C     C_3   0.351770 0.403471 0.909175 -0.099271
C50   C     C_3   0.286604 0.906628 0.863643 -0.050325
C51   C     C_3   0.099994 0.975105 0.673314 -0.064901
C52   C     C_3   0.362109 0.140727 0.198798 -0.099101
C53   C     C_3   0.562562 0.947792 0.583732 -0.022739
C54   C     C_3   0.048605 0.423452 0.623052 -0.086912
C55   C     C_3   0.591614 0.629735 0.725328 -0.312576
C56   C     C_R   0.751478 0.221695 0.717776 -0.204266
C57   C     C_R   0.764699 0.208164 0.792154 0.028070
C58   C     C_R   0.667810 0.184407 0.830352 0.018863
Cr1   Cr    Cr6+3 0.392930 0.397900 0.502230 0.999900
Cr2   Cr    Cr6+3 0.398240 0.708600 0.501260 1.034240
Cr3   Cr    Cr6+3 0.708800 0.393470 0.496460 1.025367
Cr4   Cr    Cr6+3 0.937620 0.938540 0.007640 1.046631
Cr5   Cr    Cr6+3 0.625150 0.937450 0.994520 1.006045
Cr6   Cr    Cr6+3 0.937990 0.625080 0.001190 1.061942
H1    H     H_    0.589258 0.531621 0.714295 0.110816
H2    H     H_    0.446956 0.849022 0.175360 0.177768
H3    H     H_    0.431378 0.818762 0.305654 0.143513
H4    H     H_    0.499446 0.090652 0.334839 0.142575
H5    H     H_    0.874265 0.103986 0.189613 0.159847
H6    H     H_    0.161882 0.866203 0.320621 0.177336
H7    H     H_    0.081592 0.905328 0.204059 0.154594
H8    H     H_    0.126605 0.493975 0.333635 0.159110
H9    H     H_    0.762434 0.799588 0.652082 0.148161
H10   H     H_    0.964795 0.599132 0.768895 0.149891
H11   H     H_    0.685290 0.521858 0.823923 0.180168
H12   H     H_    0.922520 0.477119 0.800266 0.169289
H13   H     H_    0.542051 0.688983 0.836839 0.119618
H14   H     H_    0.484849 0.716836 0.718527 0.207954
H15   H     H_    0.922661 0.798291 0.717632 0.111260
H16   H     H_    0.926910 0.794257 0.815851 0.127733
H17   H     H_    0.907522 0.939685 0.768496 0.171440
H18   H     H_    0.269384 0.140739 0.692413 0.160812
H19   H     H_    0.267671 0.257646 0.759378 0.142501
H20   H     H_    0.386493 0.074070 0.764710 0.134904
H21   H     H_    0.448873 0.407913 0.894769 0.093382
H22   H     H_    0.380673 0.299635 0.930792 0.155132
H23   H     H_    0.856136 0.439207 0.694503 0.133874
H24   H     H_    0.300627 0.473753 0.954931 0.146864
H25   H     H_    0.362284 0.901395 0.822317 0.107388
H26   H     H_    0.337075 0.821282 0.903366 0.108709
H27   H     H_    0.249982 0.005740 0.893022 0.158423
H28   H     H_    0.045850 0.040315 0.720238 0.169410
H29   H     H_    0.036323 0.930548 0.650385 0.115628
H30   H     H_    0.107889 0.043646 0.632064 0.125208
H31   H     H_    0.361403 0.233292 0.174230 0.166484
H32   H     H_    0.314442 0.165265 0.253353 0.142470
H33   H     H_    0.295776 0.113138 0.165160 0.158428
H34   H     H_    0.824954 0.241896 0.687716 0.124733
H35   H     H_    0.631943 0.994523 0.589224 0.133215
H36   H     H_    0.610142 0.864051 0.543044 0.111311
H37   H     H_    0.459379 0.027847 0.563360 0.170421
H38   H     H_    0.008549 0.354550 0.602709 0.119594
H39   H     H_    0.117845 0.375671 0.669123 0.113779
H40   H     H_    0.110706 0.435069 0.579005 0.181860
H41   H     H_    0.468016 0.189525 0.825122 0.156809
H42   H     H_    0.297603 0.432376 0.708844 0.183596
H43   H     H_    0.568541 0.883332 0.779865 0.167172
H44   H     H_    0.766239 0.400509 0.285447 0.180304
H45   H     H_    0.785417 0.433271 0.158416 0.171038
I1    I     I_    0.926752 0.226808 0.844300 -0.424619
I2    I     I_    0.956526 0.146833 0.338108 -0.437222
I3    I     I_    0.051535 0.436135 0.190487 -0.432725
O1    O     O_R   0.507430 0.255570 0.581420 -0.487942
O2    O     O_R   0.837200 0.593290 0.915250 -0.495572
O3    O     O_R   0.065330 0.635370 0.931590 -0.485521
O4    O     O_R   0.280190 0.527390 0.578910 -0.513667
O5    O     O_R   0.068300 0.828790 0.091860 -0.543423
O6    O     O_R   0.798730 0.057480 0.079370 -0.534378
O7    O     O_R   0.584680 0.080480 0.076790 -0.481689
O8    O     O_R   0.626790 0.809640 0.067050 -0.498805
O9    O     O_R   0.816010 0.596460 0.076500 -0.486490
O10   O     O_R   0.045680 0.638310 0.081070 -0.468058
O11   O     O_3   0.833590 0.833690 0.001120 -0.317433
O12   O     O_R   0.524460 0.695920 0.424060 -0.516577
O13   O     O_R   0.260310 0.739740 0.584580 -0.456076
O14   O     O_R   0.532250 0.695150 0.573830 -0.479165
O15   O     O_R   0.744930 0.503430 0.576380 -0.518023
O16   O     O_R   0.699250 0.276390 0.571950 -0.524181
O17   O     O_R   0.499020 0.256400 0.419850 -0.539226
O18   O     O_R   0.272400 0.528160 0.429140 -0.506075
O19   O     O_R   0.251910 0.740570 0.423020 -0.524095
O20   O     O_3   0.732386 0.916858 0.774253 -0.595743
O21   O     O_3   0.435262 0.180143 0.685890 -0.549616
O22   O     O_3   0.262265 0.429097 0.849363 -0.577294
O23   O     O_R   0.736530 0.504260 0.414810 -0.480379
O24   O     O_3   0.170512 0.907490 0.830860 -0.514601
O25   O     O_3   0.236892 0.872847 0.691804 -0.523372
O26   O     O_3   0.498423 0.026711 0.200244 -0.585260
O27   O     O_3   0.541955 0.899042 0.650640 -0.548349
O28   O     O_3   0.939711 0.555590 0.642710 -0.585876
O29   O     O_R   0.691460 0.277160 0.422180 -0.475344
O30   O     O_3   0.499990 0.499990 0.499980 -0.304557
O31   O     O_R   0.089490 0.825610 0.930610 -0.461769
O32   O     O_R   0.818370 0.054540 0.929880 -0.441296
O33   O     O_R   0.605870 0.077310 0.915530 -0.549887
O34   O     O_R   0.646440 0.806700 0.917570 -0.516215

loop_
_geom_bond_atom_site_label_1
_geom_bond_atom_site_label_2
_ccdc_geom_bond_type
C14   H45   S    
C49   O22   S    
Cr1   O18   S    
C27   C29   A    
C5    C56   A    
C1    C11   S    
C56   H34   S    
Cr4   O31   S    
C36   O2    A    
C16   O1    A    
C46   H12   S    
C7    C8    A    
C32   H8    S    
C45   C46   S    
C27   C33   A    
C12   C23   S    
C26   C42   S    
C17   H2    S    
C35   C58   S    
C21   O26   S    
C54   H40   S    
C43   O20   S    
C45   H23   S    
C1    O13   A    
C30   C31   A    
C39   O8    A    
C22   C38   S    
C52   H33   S    
C23   C43   S    
C56   C57   A    
C52   H31   S    
C18   C19   A    
C35   O33   A    
Cr2   O12   S    
Cr4   O5    S    
Cr2   O30   S    
C50   H26   S    
C54   O28   S    
C57   I1    S    
Cr1   O30   S    
C53   H37   S    
Cr1   O4    S    
C5    C16   S    
C52   O26   S    
C31   I3    S    
C30   C41   S    
C10   O25   S    
C47   H15   S    
Cr3   O16   S    
C9    C10   A    
Cr5   O34   S    
C35   O32   A    
C34   C55   S    
Cr6   O3    S    
C13   C14   A    
C49   H24   S    
C47   H16   S    
C13   H44   S    
Cr2   O19   S    
Cr4   O11   S    
C55   H1    S    
C20   H4    S    
C24   H5    S    
C53   H36   S    
C40   O12   A    
C40   O23   A    
C4    C34   S    
Cr6   O2    S    
C13   C19   A    
C49   H21   S    
C54   H39   S    
C34   C44   S    
C24   C25   A    
C7    O22   S    
C10   C11   A    
C6    C11   A    
C55   H14   S    
C8    C9    A    
C25   C26   A    
C45   O28   S    
C53   H35   S    
C48   H20   S    
C3    O21   S    
C41   O10   A    
C43   C44   S    
C29   C30   A    
C51   H28   S    
Cr5   O7    S    
C48   O21   S    
C50   H25   S    
C31   C32   A    
Cr1   O1    S    
C12   H13   S    
C42   O29   A    
C17   C18   A    
C6    H42   S    
Cr3   O15   S    
C34   C45   S    
C43   H43   S    
C16   O16   A    
C15   C39   S    
C27   H6    S    
C51   H29   S    
C38   O7    A    
C51   O25   S    
Cr3   O29   S    
C1    O4    A    
C28   C33   S    
C44   O27   S    
C22   C24   A    
C8    C37   S    
C46   H10   S    
Cr3   O23   S    
C36   O34   A    
C15   C17   A    
Cr2   O13   S    
C37   O31   A    
C4    O15   A    
C53   O27   S    
C49   H22   S    
C54   H38   S    
Cr4   O32   S    
C3    C5    A    
Cr5   O11   S    
C2    C58   A    
C6    C7    A    
C37   O3    A    
Cr6   O11   S    
C2    H41   S    
C39   O9    A    
C48   H19   S    
C4    O14   A    
C47   O20   S    
C28   O19   A    
C32   C33   A    
Cr1   O17   S    
C2    C3    A    
C18   H3    S    
C50   O24   S    
Cr5   O8    S    
C57   C58   A    
C20   C26   A    
Cr6   O10   S    
Cr2   O14   S    
C48   H18   S    
C52   H32   S    
C42   O17   A    
C28   O18   A    
C47   H17   S    
C44   H9    S    
Cr4   O6    S    
C12   C55   S    
C19   C40   S    
C25   I2    S    
C51   H30   S    
C38   O6    A    
C9    O24   S    
Cr3   O30   S    
C20   C21   A    
C23   C36   S    
C12   H11   S    
C23   C46   S    
C14   C15   A    
C41   O5    A    
C21   C22   A    
C50   H27   S    
Cr5   O33   S    
Cr6   O9    S    
C29   H7    S    
