data_mof_unit_50892.cif
_audit_creation_date              2012-12-11T16:04:52-0500
_audit_creation_method            fapswitch 2.2
_symmetry_space_group_name_H-M    P1
_symmetry_Int_Tables_number       1
_space_group_crystal_system       triclinic
_cell_length_a                    10.652837
_cell_length_b                    10.657255
_cell_length_c                    16.926964
_cell_angle_alpha                 98.713148
_cell_angle_beta                  98.692565
_cell_angle_gamma                 61.593167
_cell_volume                      1663.89686773

loop_
_atom_site_label
_atom_site_type_symbol
_atom_type_description
_atom_site_fract_x
_atom_site_fract_y
_atom_site_fract_z
_atom_type_partial_charge
C1    C     C_R   0.355276 0.774262 0.398681 0.542155
C2    C     C_3   0.684100 0.424825 0.253785 -0.129325
C3    C     C_3   0.807103 0.355168 0.318836 0.036110
C4    C     C_3   0.868239 0.213599 0.266838 -0.086705
C5    C     C_3   0.961195 0.265276 0.233391 -0.097088
C6    C     C_3   0.898550 0.407441 0.286529 -0.118993
C7    C     C_3   0.777376 0.476099 0.220233 -0.114654
C8    C     C_3   0.839618 0.333644 0.167729 0.057271
C9    C     C_3   0.416564 0.770877 0.205645 -0.147904
C10   C     C_3   0.311290 0.746975 0.246904 -0.082828
C11   C     C_3   0.339439 0.830281 0.323633 0.023390
C12   C     C_R   0.405435 0.373402 0.357083 0.550486
C13   C     C_3   0.447338 0.851973 0.283961 -0.118573
C14   C     C_3   0.322328 0.994937 0.257159 -0.173542
C15   C     C_3   0.215728 0.970954 0.298782 -0.130049
C16   C     C_3   0.187556 0.888173 0.221406 0.255095
C17   C     C_3   0.291987 0.912408 0.180323 0.047443
C18   C     C_3   0.429785 0.346209 0.786046 -0.145895
C19   C     C_3   0.314135 0.456149 0.730060 -0.104459
C20   C     C_3   0.339702 0.333451 0.663471 0.050206
C21   C     C_3   0.455700 0.224284 0.718466 -0.105657
C22   C     C_3   0.337927 0.198951 0.744310 -0.119109
C23   C     C_R   0.775505 0.377660 0.401188 0.534277
C24   C     C_3   0.222493 0.308161 0.688176 -0.140839
C25   C     C_3   0.197534 0.429122 0.756302 0.002682
C26   C     C_3   0.312962 0.321040 0.811610 0.061873
C27   C     C_1   0.817090 0.342022 0.709661 -0.054016
C28   C     C_1   0.843473 0.314915 0.778120 -0.054763
C29   C     C_1   0.338173 0.812440 0.709732 -0.061825
C30   C     C_1   0.313304 0.839332 0.778518 -0.067142
C31   C     C_R   0.886871 0.313079 0.088783 0.537901
C32   C     C_R   0.321795 0.302199 0.119405 0.536916
C33   C     C_R   0.258490 0.956124 0.099388 0.565453
C34   C     C_R   0.356474 0.771846 0.627160 0.546226
C35   C     C_R   0.884632 0.299474 0.860950 0.540579
C36   C     C_R   0.305831 0.292107 0.890469 0.542162
C37   C     C_R   0.280220 0.884479 0.859059 0.546297
C38   C     C_R   0.368331 0.346161 0.585725 0.552912
C39   C     C_R   0.773930 0.379720 0.629656 0.543571
C40   C     C_1   0.373854 0.360456 0.272520 -0.062737
C41   C     C_1   0.348807 0.342345 0.201537 -0.053748
C42   C     C_3   0.747179 0.281901 0.199924 -0.100978
Cr1   Cr    Cr6+3 0.608340 0.611040 0.520430 1.016779
Cr2   Cr    Cr6+3 0.287650 0.601120 0.489350 1.028574
Cr3   Cr    Cr6+3 0.604040 0.287870 0.490280 1.023929
Cr4   Cr    Cr6+3 0.054020 0.052700 0.970850 1.035819
Cr5   Cr    Cr6+3 0.059230 0.375120 0.993390 1.030125
Cr6   Cr    Cr6+3 0.374950 0.061200 0.992340 1.030584
H1    H     H_    0.570178 0.489729 0.265845 0.099147
H2    H     H_    0.328227 0.096641 0.259613 0.131587
H3    H     H_    0.139429 0.049718 0.341326 0.111764
H4    H     H_    0.303915 0.562045 0.722021 0.125189
H5    H     H_    0.513403 0.362354 0.827328 0.113364
H6    H     H_    0.561933 0.138067 0.701777 0.137912
H7    H     H_    0.348419 0.092582 0.751717 0.128910
H8    H     H_    0.138949 0.292284 0.646659 0.110779
H9    H     H_    0.684594 0.232158 0.162609 0.150795
H10   H     H_    0.900147 0.111586 0.292099 0.174264
H11   H     H_    0.073892 0.206389 0.219626 0.109193
H12   H     H_    0.961920 0.456503 0.323696 0.139446
H13   H     H_    0.741671 0.582900 0.199624 0.134727
H14   H     H_    0.305628 0.645110 0.243986 0.130488
H15   H     H_    0.494363 0.690757 0.164259 0.123499
H16   H     H_    0.554492 0.835861 0.312007 0.147390
O1    O     O_R   0.751220 0.499230 0.435170 -0.514957
O2    O     O_R   0.297880 0.469080 0.560050 -0.501910
O3    O     O_R   0.489720 0.254590 0.564810 -0.517682
O4    O     O_R   0.725220 0.304230 0.585080 -0.494126
O5    O     O_3   0.500010 0.500010 0.500020 -0.278198
O6    O     O_R   0.171830 0.913880 0.057510 -0.457425
O7    O     O_R   0.940690 0.186050 0.054730 -0.492244
O8    O     O_R   0.920470 0.405720 0.075010 -0.509412
O9    O     O_R   0.196690 0.370460 0.084120 -0.480235
O10   O     O_R   0.412990 0.180750 0.091610 -0.515530
O11   O     O_R   0.366620 0.943130 0.065760 -0.501674
O12   O     O_R   0.477220 0.727600 0.436870 -0.506401
O13   O     O_R   0.160510 0.906330 0.879210 -0.526719
O14   O     O_R   0.930190 0.179050 0.889450 -0.498920
O15   O     O_R   0.909140 0.398170 0.896710 -0.528058
O16   O     O_R   0.186190 0.363460 0.918830 -0.511170
O17   O     O_R   0.401670 0.173200 0.913310 -0.517264
O18   O     O_R   0.356120 0.936130 0.900470 -0.492542
O19   O     O_3   0.162740 0.163010 0.985530 -0.283693
O20   O     O_R   0.258650 0.745120 0.411470 -0.509596
O21   O     O_R   0.297070 0.467240 0.395960 -0.494204
O22   O     O_R   0.488830 0.252610 0.387790 -0.502860
O23   O     O_R   0.724400 0.302390 0.420980 -0.515408
O24   O     O_R   0.752100 0.501210 0.612190 -0.516551
O25   O     O_R   0.478040 0.729440 0.600970 -0.493721
O26   O     O_R   0.259530 0.747110 0.588490 -0.513482
Cl1   Cl    Cl    0.021316 0.892187 0.179893 -0.615677
C43   C     C_3   0.047063 0.545178 0.773945 -0.254710
C44   C     C_3   0.050854 0.668552 0.831736 -0.281023
C45   C     C_3   0.901472 0.775913 0.855678 -0.408542
H17   H     H_    0.828176 0.820729 0.801701 0.147110
H18   H     H_    0.857669 0.723318 0.887314 0.164637
H19   H     H_    0.907394 0.865173 0.896627 0.171232
H20   H     H_    0.122743 0.627185 0.886726 0.189455
H21   H     H_    0.092917 0.724150 0.801410 0.182690
H22   H     H_    0.985749 0.587390 0.716502 0.152343
H23   H     H_    0.992229 0.496290 0.799001 0.190020

loop_
_geom_bond_atom_site_label_1
_geom_bond_atom_site_label_2
_ccdc_geom_bond_type
C44   C45   S    
C18   C21   S    
C39   O4    A    
Cr2   O2    S    
C19   C20   S    
C1    C11   S    
Cr5   O15   S    
C3    C6    S    
C7    C8    S    
C14   H2    S    
C1    O20   A    
Cr1   O25   S    
C12   O21   A    
Cr1   O24   S    
Cr5   O16   S    
Cr3   O23   S    
C8    C42   S    
C32   O10   A    
C5    C6    S    
C15   C16   S    
Cr6   O17   S    
C18   C19   S    
C9    C13   S    
C7    H13   S    
C18   H5    S    
C3    C23   S    
C19   H4    S    
C33   O11   A    
C2    C7    S    
C28   C35   S    
C27   C39   S    
C16   C17   S    
C18   C26   S    
Cr3   O3    S    
C32   C41   S    
C15   H3    S    
C9    C10   S    
C44   H21   S    
C11   C15   S    
C31   O7    A    
Cr1   O5    S    
C23   O23   A    
C21   C22   S    
C8    C31   S    
Cr6   O11   S    
C10   H14   S    
C17   C33   S    
C39   O24   A    
C42   H9    S    
C5    H11   S    
Cr3   O5    S    
Cr6   O10   S    
C24   C25   S    
Cr5   O9    S    
C36   O16   A    
C32   O9    A    
Cr4   O14   S    
C45   H19   S    
C25   C26   S    
C37   O13   A    
C29   C34   S    
C30   C37   S    
C12   C40   S    
C34   O26   A    
C29   C30   T    
C2    H1    S    
C6    H12   S    
C5    C8    S    
C20   C38   S    
C36   O17   A    
Cr1   O1    S    
Cr3   O4    S    
Cr2   O5    S    
C20   C21   S    
C45   H18   S    
Cr4   O7    S    
C6    C7    S    
C33   O6    A    
C43   H23   S    
C9    C17   S    
C31   O8    A    
Cr5   O19   S    
C22   C24   S    
C37   O18   A    
Cr2   O21   S    
Cr2   O26   S    
C43   H22   S    
C26   C36   S    
Cr1   O12   S    
C38   O2    A    
C40   C41   T    
C25   C43   S    
C9    H15   S    
C1    O12   A    
C4    C5    S    
Cr2   O20   S    
Cr4   O13   S    
C22   H7    S    
C24   H8    S    
C35   O14   A    
Cr6   O19   S    
C12   O22   A    
C23   O1    A    
C2    C3    S    
C34   O25   A    
C10   C16   S    
C11   C13   S    
C21   H6    S    
C13   H16   S    
C4    C42   S    
C2    C42   S    
C35   O15   A    
C43   C44   S    
Cr6   O18   S    
Cr3   O22   S    
C45   H17   S    
C19   C25   S    
Cr5   O8    S    
Cr4   O6    S    
C10   C11   S    
Cr4   O19   S    
C38   O3    A    
C16   Cl1   S    
C22   C26   S    
C4    H10   S    
C27   C28   T    
C14   C15   S    
C13   C14   S    
C44   H20   S    
C20   C24   S    
C3    C4    S    
C14   C17   S    
