data_mof_unit_66401.cif
_audit_creation_date              2012-12-11T17:15:34-0500
_audit_creation_method            fapswitch 2.2
_symmetry_space_group_name_H-M    P1
_symmetry_Int_Tables_number       1
_space_group_crystal_system       triclinic
_cell_length_a                    19.002105
_cell_length_b                    19.712992
_cell_length_c                    19.973383
_cell_angle_alpha                 111.570517
_cell_angle_beta                  107.277746
_cell_angle_gamma                 108.643626
_cell_volume                      5817.62341263

loop_
_atom_site_label
_atom_site_type_symbol
_atom_type_description
_atom_site_fract_x
_atom_site_fract_y
_atom_site_fract_z
_atom_type_partial_charge
C1    C     C_R   0.959936 0.703347 0.037787 -0.121313
C2    C     C_R   0.165626 0.696862 0.235259 -0.128133
C3    C     C_R   0.931145 0.429508 0.157660 -0.130673
C4    C     C_R   0.843085 0.273031 0.772197 -0.137662
C5    C     C_R   0.239027 0.569663 0.013577 -0.158302
C6    C     C_R   0.954355 0.498142 0.229318 0.035016
C7    C     C_R   0.250197 0.500850 0.982482 0.039065
C8    C     C_R   0.245415 0.723150 0.242667 0.085970
C9    C     C_R   0.961561 0.226118 0.956823 0.084820
C10   C     C_1   0.671436 0.498551 0.006627 -0.039719
C11   C     C_1   0.606749 0.498997 0.001824 0.010489
C12   C     C_R   0.768287 0.228096 0.768562 0.102189
C13   C     C_1   0.531028 0.499940 0.995883 0.003456
C14   C     C_1   0.466500 0.500798 0.991081 0.002961
C15   C     C_1   0.390991 0.501565 0.986314 0.012555
C16   C     C_R   0.039044 0.568208 0.833014 -0.128758
C17   C     C_1   0.326701 0.501697 0.983551 -0.021905
C18   C     C_R   0.539608 0.884058 0.455018 0.043262
C19   C     C_R   0.461409 0.851785 0.453994 0.102965
C20   C     C_R   0.455402 0.882485 0.526157 -0.178392
C21   C     C_R   0.525214 0.950730 0.597825 -0.166594
C22   C     C_R   0.600863 0.987863 0.597106 0.153741
C23   C     C_R   0.988795 0.497988 0.756035 0.094469
C24   C     C_R   0.609450 0.952488 0.527201 -0.212060
C25   C     C_1   0.385200 0.800898 0.378647 -0.041414
C26   C     C_1   0.662619 0.070576 0.661070 -0.041705
C27   C     C_1   0.711441 0.142224 0.711205 -0.036539
C28   C     C_R   0.759570 0.429626 0.980520 -0.120845
C29   C     C_1   0.321313 0.763990 0.316150 -0.025888
C30   C     C_R   0.930443 0.569850 0.544591 -0.155234
C31   C     C_R   0.902300 0.494798 0.543907 0.128248
C32   C     C_R   0.859185 0.418626 0.470639 -0.215331
C33   C     C_R   0.850791 0.417309 0.398390 0.214741
C34   C     C_R   0.748647 0.498795 0.011478 0.091379
C35   C     C_R   0.885934 0.492981 0.400537 0.075408
C36   C     C_R   0.922154 0.568918 0.472665 -0.193893
C37   C     C_1   0.930138 0.496137 0.618975 -0.034279
C38   C     C_1   0.902952 0.494270 0.336225 0.008278
C39   C     C_1   0.924356 0.495841 0.286078 0.007847
C40   C     C_R   0.967478 0.429001 0.764428 -0.123335
C41   C     C_1   0.957040 0.497146 0.681728 -0.034064
C42   C     C_R   0.837664 0.952893 0.918974 -0.199445
C43   C     C_R   0.877416 0.982501 0.879218 0.077453
C44   C     C_R   0.912751 0.940279 0.839187 0.214983
C45   C     C_R   0.994415 0.567917 0.225811 0.045835
C46   C     C_R   0.916754 0.874373 0.847690 -0.218880
C47   C     C_R   0.885779 0.851490 0.895718 0.130417
C48   C     C_R   0.842046 0.887251 0.927458 -0.155624
C49   C     C_1   0.901542 0.066299 0.899443 0.008974
C50   C     C_1   0.914967 0.806155 0.926936 -0.035480
C51   C     C_1   0.944734 0.772781 0.956475 -0.033409
C52   C     C_R   0.827273 0.568557 0.052747 -0.131000
C53   C     C_1   0.928040 0.139022 0.923862 -0.011214
C54   C     C_R   0.770675 0.273440 0.841468 -0.131970
C55   C     C_R   0.034663 0.706066 0.970572 -0.125026
C56   C     C_R   0.172208 0.431429 0.945017 0.063207
C57   C     C_R   0.981290 0.733072 0.990254 0.091592
C58   C     C_1   0.149907 0.349086 0.885621 0.025121
C59   C     C_1   0.547679 0.852884 0.381514 0.060422
C60   C     C_1   0.000944 0.647630 0.271764 0.008876
C61   C     C_R   0.238078 0.698996 0.165701 -0.116241
C62   C     C_R   0.934491 0.273290 0.001066 -0.127654
C63   C     C_R   0.003748 0.270842 0.929105 -0.110601
H1    H     H_    0.921127 0.715554 0.065277 0.101576
H2    H     H_    0.867656 0.249584 0.731801 0.104929
H3    H     H_    0.518303 0.978597 0.651761 0.127855
H4    H     H_    0.950268 0.627407 0.474711 0.142836
H5    H     H_    0.964327 0.628932 0.601456 0.132947
H6    H     H_    0.837615 0.360604 0.470542 0.154286
H7    H     H_    0.818523 0.869918 0.965146 0.130415
H8    H     H_    0.811144 0.985939 0.950660 0.139347
H9    H     H_    0.950698 0.846396 0.823272 0.151447
H10   H     H_    0.070887 0.631145 0.846375 0.098599
H11   H     H_    0.712865 0.365109 0.950973 0.103836
H12   H     H_    0.289120 0.711739 0.150918 0.104307
H13   H     H_    0.929774 0.364398 0.716291 0.106999
H14   H     H_    0.842656 0.631698 0.092222 0.103410
H15   H     H_    0.728827 0.250638 0.864010 0.098932
H16   H     H_    0.067040 0.723656 0.938856 0.099615
H17   H     H_    0.887377 0.251524 0.018966 0.103848
H18   H     H_    0.016664 0.244454 0.879498 0.128388
H19   H     H_    0.149696 0.705537 0.284125 0.117199
H20   H     H_    0.887435 0.365569 0.134926 0.125218
H21   H     H_    0.283923 0.633057 0.036390 0.111285
H22   H     H_    0.668441 0.982084 0.527266 0.136191
H23   H     H_    0.395182 0.858263 0.525508 0.133619
I1    I     I_    0.794753 0.300313 0.290656 -0.420728
I2    I     I_    0.972626 0.981755 0.776925 -0.414721
N1    N     N_R   0.996070 0.655850 0.042990 -0.042847
N2    N     N_R   0.043260 0.542980 0.887390 -0.042443
N3    N     N_R   0.841360 0.457030 0.000110 -0.044103
N4    N     N_R   0.001470 0.457070 0.844510 -0.045525
N5    N     N_R   0.883150 0.542930 0.042990 -0.043657
N6    N     N_R   0.844430 0.344140 0.887390 -0.041629
N7    N     N_R   0.040190 0.655860 0.000110 -0.043071
N8    N     N_R   0.998530 0.542930 0.155490 -0.061095
N9    N     N_1   0.132991 0.283346 0.837577 -0.067810
N10   N     N_1   0.554088 0.827888 0.322603 -0.077067
N11   N     N_1   0.006043 0.711622 0.308592 -0.082180
N12   N     N_R   0.116850 0.457070 0.957010 -0.063285
N13   N     N_R   0.155570 0.655860 0.112610 -0.043840
N14   N     N_R   0.959810 0.344140 0.999890 -0.042496
N15   N     N_R   0.003930 0.344150 0.957010 -0.048995
N16   N     N_R   0.111450 0.655840 0.155490 -0.044617
N17   N     N_R   0.956740 0.457020 0.112610 -0.052707
N18   N     N_R   0.158640 0.542970 0.999890 -0.049209
N19   N     N_R   0.888550 0.344160 0.844510 -0.042898
Ni1   Ni    Ni4+2 0.997320 0.598490 0.098350 0.227876
Ni2   Ni    Ni4+2 0.002680 0.401510 0.901650 0.219959
Ni3   Ni    Ni4+2 0.098520 0.598520 0.000000 0.217510
Ni4   Ni    Ni4+2 0.901480 0.401480 0.000000 0.211336

loop_
_geom_bond_atom_site_label_1
_geom_bond_atom_site_label_2
_ccdc_geom_bond_type
N8    N17   A    
C45   C60   S    
C16   N2    A    
C6    C45   A    
C21   H3    S    
C19   C20   A    
C60   N11   T    
C28   H11   S    
C36   H4    S    
C61   H12   S    
C26   C27   T    
C63   H18   S    
C18   C24   A    
C8    C29   S    
C62   H17   S    
N5    Ni1   S    
C38   C39   T    
N4    Ni2   S    
C23   C40   A    
N6    Ni4   S    
C18   C19   A    
N3    Ni4   S    
C21   C22   A    
C35   C36   A    
C7    C17   S    
C20   H23   S    
C51   C57   S    
C4    C12   A    
C24   H22   S    
C46   H9    S    
C8    C61   A    
C3    C6    A    
N8    Ni1   S    
C28   C34   A    
N12   Ni2   S    
C13   C14   T    
N19   Ni2   S    
N14   Ni4   S    
C58   N9    T    
C7    C56   A    
C44   C46   A    
C47   C50   S    
C5    N18   A    
C25   C29   T    
N17   Ni4   S    
C4    N19   A    
N6    N19   A    
C12   C27   S    
C16   H10   S    
C35   C38   S    
C63   N15   A    
C5    C7    A    
C5    H21   S    
C43   C49   S    
N13   Ni3   S    
C3    N17   A    
C31   C37   S    
N1    N7    A    
C61   N13   A    
C43   C44   A    
C1    C57   A    
N3    N5    A    
C55   H16   S    
N2    N4    A    
C47   C48   A    
C2    N16   A    
C30   C31   A    
C6    C39   S    
C50   C51   T    
C52   N5    A    
C10   C34   S    
C42   C48   A    
C40   N4    A    
C55   N7    A    
C16   C23   A    
C55   C57   A    
C3    H20   S    
C22   C24   A    
C2    H19   S    
C9    C53   S    
C42   C43   A    
N2    Ni3   S    
C52   H14   S    
C1    H1    S    
N16   Ni1   S    
N18   Ni3   S    
C15   C17   T    
C46   C47   A    
C1    N1    A    
C9    C63   A    
N12   N18   A    
C31   C32   A    
C2    C8    A    
C48   H7    S    
N7    Ni3   S    
C32   H6    S    
N13   N16   A    
C34   C52   A    
C9    C62   A    
C23   C41   S    
C30   C36   A    
N15   Ni2   S    
C32   C33   A    
C33   I1    S    
C11   C13   S    
C4    H2    S    
C49   C53   T    
N1    Ni1   S    
C42   H8    S    
C33   C35   A    
C56   C58   S    
C28   N3    A    
C37   C41   T    
N14   N15   A    
C19   C25   S    
C12   C54   A    
C54   N6    A    
C10   C11   T    
C40   H13   S    
C18   C59   S    
C20   C21   A    
C22   C26   S    
C59   N10   T    
C56   N12   A    
C14   C15   S    
C62   N14   A    
C44   I2    S    
C45   N8    A    
C30   H5    S    
C54   H15   S    
