data_mof_unit_32164.cif
_audit_creation_date              2013-03-05T16:36:13-0500
_audit_creation_method            fapswitch 2.2
_symmetry_space_group_name_H-M    P1
_symmetry_Int_Tables_number       1
_space_group_crystal_system       triclinic
_cell_length_a                    27.798977
_cell_length_b                    9.110362
_cell_length_c                    7.776827
_cell_angle_alpha                 89.999846
_cell_angle_beta                  89.999663
_cell_angle_gamma                 90.006256
_cell_volume                      1969.54942421

loop_
_atom_site_label
_atom_site_type_symbol
_atom_site_description
_atom_site_fract_x
_atom_site_fract_y
_atom_site_fract_z
_atom_type_partial_charge
O1    O     O_R   0.500000 0.288390 0.642760 -0.575006
O2    O     O_R   0.500000 0.711610 0.357240 -0.575006
O3    O     O_R   0.500000 0.711610 0.642760 -0.575006
O4    O     O_R   0.500000 0.288390 0.357240 -0.575006
C1    C     C_R   0.500000 0.219960 0.500000 0.851864
C2    C     C_R   0.500000 0.780040 0.500000 0.851864
O5    O     O_R   0.430260 0.500000 0.642770 -0.585614
O6    O     O_R   0.569740 0.500000 0.357230 -0.585623
O7    O     O_R   0.569740 0.500000 0.642770 -0.585614
O8    O     O_R   0.430260 0.500000 0.357230 -0.585622
C3    C     C_R   0.407140 0.499989 0.499999 0.796086
C4    C     C_R   0.592859 0.500012 0.499998 0.796082
Cu1   Cu    Cu3+1 0.500000 0.500000 0.669080 1.008190
Cu2   Cu    Cu3+1 0.500000 0.500000 0.330920 1.008186
C5    C     C_R   0.177739 0.372120 0.533679 0.560532
C6    C     C_R   0.822258 0.627915 0.533660 0.560542
C7    C     C_R   0.177769 0.627708 0.466044 0.560188
C8    C     C_R   0.822233 0.372324 0.466043 0.560041
O9    O     O_2   0.203216 0.248847 0.564511 -0.457449
O10   O     O_2   0.796779 0.751185 0.564484 -0.457466
O11   O     O_2   0.203272 0.750975 0.435358 -0.457609
O12   O     O_2   0.796734 0.249046 0.435384 -0.457701
N1    N     N_R   0.201654 0.499905 0.499904 -0.486777
N2    N     N_R   0.798345 0.500124 0.499895 -0.486748
C9    C     C_R   0.278443 0.508543 0.344426 -0.100853
C10   C     C_R   0.721557 0.491467 0.344420 -0.100882
C11   C     C_R   0.278431 0.491253 0.655478 -0.100829
C12   C     C_R   0.721569 0.508767 0.655472 -0.100843
C13   C     C_R   0.328609 0.508332 0.344237 -0.203058
C14   C     C_R   0.671391 0.491671 0.344234 -0.203058
C15   C     C_R   0.328598 0.491532 0.655714 -0.203096
C16   C     C_R   0.671402 0.508480 0.655710 -0.203101
C17   C     C_R   0.253238 0.499884 0.499938 0.344545
C18   C     C_R   0.746762 0.500135 0.499932 0.344578
C19   C     C_R   0.101650 0.499948 0.499721 -0.189420
C20   C     C_R   0.898350 0.500100 0.499708 -0.189376
C21   C     C_R   0.127047 0.368713 0.533853 -0.115680
C22   C     C_R   0.872951 0.631330 0.533836 -0.115694
C23   C     C_R   0.127081 0.631146 0.465646 -0.116004
C24   C     C_R   0.872921 0.368899 0.465631 -0.116091
C25   C     C_R   0.101073 0.238898 0.568851 0.535157
C26   C     C_R   0.898923 0.761149 0.568834 0.535174
C27   C     C_R   0.101139 0.760958 0.430436 0.535062
C28   C     C_R   0.898866 0.239095 0.430418 0.535020
C29   C     C_R   0.354154 0.499954 0.499987 -0.038147
C30   C     C_R   0.645845 0.500050 0.499985 -0.038145
H1    H     H_    0.347316 0.484886 0.777601 0.159559
H2    H     H_    0.652683 0.515128 0.777598 0.159557
H3    H     H_    0.347335 0.515006 0.222365 0.159569
H4    H     H_    0.652666 0.484991 0.222362 0.159566
H5    H     H_    0.259072 0.484756 0.776087 0.131760
H6    H     H_    0.740928 0.515270 0.776080 0.131741
H7    H     H_    0.259094 0.515029 0.223797 0.131730
H8    H     H_    0.740906 0.484980 0.223791 0.131699
C31   C     C_R   0.974692 0.365879 0.488412 0.014728
C32   C     C_R   0.025309 0.634175 0.488425 0.014787
C33   C     C_R   0.974722 0.634220 0.510758 0.014932
C34   C     C_R   0.025277 0.365833 0.510752 0.014951
C35   C     C_R   0.949324 0.500067 0.499640 0.064226
C36   C     C_R   0.050675 0.499985 0.499646 0.064240
C37   C     C_R   0.948823 0.236862 0.451451 -0.319006
C38   C     C_R   0.051180 0.763194 0.451483 -0.319094
C39   C     C_R   0.948883 0.763302 0.547593 -0.319018
C40   C     C_R   0.051114 0.236748 0.547592 -0.319145
H9    H     H_    0.966921 0.133682 0.429348 0.149247
H10   H     H_    0.033082 0.866378 0.429436 0.149184
H11   H     H_    0.967012 0.866492 0.569308 0.148845
H12   H     H_    0.032982 0.133560 0.569304 0.148844
C41   C     C_1   0.500000 0.065329 0.500000 -0.166191
C42   C     C_1   0.500000 0.934671 0.500000 -0.166191
N3    N     N_1   0.500000 0.500000 0.076820 -0.050071
N4    N     N_1   0.500000 0.500000 0.923180 -0.050070
O13   O     O_3   0.124650 0.110776 0.613038 -0.476122
C43   C     C_3   0.116804 0.081635 0.788864 -0.235951
H13   H     H_    0.078621 0.052412 0.814270 0.117894
H14   H     H_    0.128017 0.175885 0.870872 0.137825
H15   H     H_    0.139090 0.985767 0.826019 0.195421
O14   O     O_3   0.875343 0.889271 0.613002 -0.476100
C44   C     C_3   0.883188 0.918437 0.788821 -0.235929
H16   H     H_    0.921369 0.947682 0.814219 0.117903
H17   H     H_    0.871980 0.824192 0.870849 0.137817
H18   H     H_    0.860898 0.014299 0.825962 0.195386
O15   O     O_3   0.124724 0.888989 0.385949 -0.476249
C45   C     C_3   0.117275 0.916896 0.209623 -0.235780
H19   H     H_    0.128878 0.822326 0.128804 0.138305
H20   H     H_    0.139478 0.012925 0.172349 0.195516
H21   H     H_    0.079098 0.945239 0.182724 0.117624
O16   O     O_3   0.875296 0.111052 0.385904 -0.476327
C46   C     C_3   0.882591 0.083544 0.209412 -0.235767
H22   H     H_    0.870691 0.178025 0.128997 0.138767
H23   H     H_    0.860544 0.987142 0.172296 0.195461
H24   H     H_    0.920795 0.055997 0.181823 0.117340

loop_
_geom_bond_atom_site_label_1
_geom_bond_atom_site_label_2
_geom_bond_distance
_ccdc_geom_bond_type
C31   C35   1.414082 A    
C27   O15   1.381982 S    
Cu2   N3    1.976091 S    
C45   H21   1.112130 S    
C20   C35   1.417047 A    
C13   H3    1.083031 S    
C11   C17   1.399941 A    
C5    O9    1.349262 S    
C7    N1    1.366030 A    
C43   H14   1.114057 S    
C21   C25   1.412069 A    
O1    C1    1.273281 A    
C40   H12   1.079911 S    
C19   C21   1.413696 A    
C45   H20   1.109165 S    
C22   C26   1.412071 A    
C33   C35   1.414036 A    
C34   C36   1.414031 A    
C32   C33   1.416931 A    
C7    C23   1.409449 A    
C8    C24   1.409427 A    
C5    C21   1.409530 A    
O7    Cu1   1.949464 S    
C10   C18   1.399930 A    
N1    C17   1.433960 S    
C43   H15   1.109162 S    
C1    C41   1.408740 S    
C8    N2    1.366030 A    
C46   H23   1.109120 S    
C24   C28   1.412029 A    
O3    Cu1   1.938679 S    
C6    O10   1.349261 S    
O3    C2    1.273282 A    
C5    N1    1.366046 A    
C14   H4    1.083032 S    
C12   C18   1.399942 A    
C6    N2    1.366050 A    
C15   H1    1.083028 S    
Cu1   Cu2   2.629813 S    
C34   C40   1.407523 A    
C16   H2    1.083032 S    
O2    C2    1.273281 A    
C10   H8    1.083000 S    
C11   H5    1.082996 S    
C33   C39   1.407532 A    
O13   C43   1.409862 S    
C9    C13   1.394546 A    
C39   H11   1.079907 S    
C43   H13   1.111993 S    
C38   H10   1.079962 S    
C11   C15   1.394583 A    
C12   C16   1.394584 A    
C45   H19   1.114192 S    
C4    C30   1.472954 S    
O8    Cu2   1.949467 S    
C44   H17   1.114064 S    
O14   C44   1.409864 S    
C23   C27   1.412033 A    
N2    C18   1.433960 S    
C32   C36   1.414081 A    
C13   C29   1.406149 A    
C19   C36   1.417042 A    
C19   C23   1.413666 A    
O5    C3    1.282905 A    
O15   C45   1.409925 S    
C20   C24   1.413668 A    
O6    C4    1.282890 A    
C46   H24   1.112207 S    
C10   C14   1.394546 A    
C32   C38   1.407540 A    
C3    C29   1.472957 S    
O1    Cu1   1.938681 S    
C2    C42   1.408740 S    
O6    Cu2   1.949466 S    
C8    O12   1.349266 S    
C16   C30   1.406157 A    
C14   C30   1.406153 A    
C9    H7    1.082997 S    
O4    C1    1.273282 A    
C44   H18   1.109159 S    
C26   O14   1.382115 S    
Cu1   N4    1.976091 S    
C28   C37   1.398518 A    
C20   C22   1.413688 A    
N3    N4    1.194832 T    
C12   H6    1.082996 S    
C31   C37   1.407527 A    
O4    Cu2   1.938680 S    
C41   C42   1.190344 T    
O2    Cu2   1.938680 S    
O7    C4    1.282906 A    
C7    O11   1.349266 S    
O8    C3    1.282890 A    
C25   O13   1.382112 S    
C44   H16   1.111993 S    
C37   H9    1.079984 S    
O5    Cu1   1.949469 S    
O16   C46   1.409903 S    
C15   C29   1.406155 A    
C31   C34   1.416904 A    
C9    C17   1.399931 A    
C25   C40   1.398761 A    
C46   H22   1.114218 S    
C28   O16   1.381937 S    
C26   C39   1.398772 A    
C27   C38   1.398590 A    
C6    C22   1.409540 A    
