data_mof_unit_16653.cif
_audit_creation_date              2012-12-10T16:59:16-0500
_audit_creation_method            fapswitch 2.2
_symmetry_space_group_name_H-M    P1
_symmetry_Int_Tables_number       1
_space_group_crystal_system       triclinic
_cell_length_a                    7.7107
_cell_length_b                    8.657605
_cell_length_c                    27.689648
_cell_angle_alpha                 91.521819
_cell_angle_beta                  86.349875
_cell_angle_gamma                 93.27526
_cell_volume                      1841.20522413

loop_
_atom_site_label
_atom_site_type_symbol
_atom_type_description
_atom_site_fract_x
_atom_site_fract_y
_atom_site_fract_z
_atom_type_partial_charge
C1    C     C_R   0.545043 0.794592 0.498809 0.918045
C2    C     C_R   0.454734 0.205617 0.500734 0.919136
C3    C     C_R   0.553179 0.470402 0.897276 -0.051981
C4    C     C_R   0.519615 0.470066 0.100666 -0.047985
C5    C     C_R   0.585195 0.610698 0.872866 -0.024568
C6    C     C_R   0.540837 0.332542 0.125115 -0.020121
C7    C     C_R   0.610918 0.749114 0.899310 -0.137423
C8    C     C_R   0.570428 0.195860 0.098566 -0.133795
C9    C     C_R   0.525941 0.331024 0.870786 -0.018618
C10   C     C_R   0.490578 0.608214 0.127171 -0.023036
C11   C     C_R   0.512756 0.496227 0.646788 -0.140534
C12   C     C_R   0.492986 0.496101 0.353004 -0.134884
C13   C     C_R   0.523242 0.610874 0.025396 0.048791
C14   C     C_R   0.531025 0.327478 0.972510 0.048579
C15   C     C_R   0.542192 0.328389 0.023224 0.046988
C16   C     C_R   0.553479 0.611887 0.974671 0.047810
C17   C     C_R   0.528141 0.469694 0.049646 0.076401
C18   C     C_R   0.546393 0.469837 0.948265 0.076431
C19   C     C_R   0.484447 0.745703 0.052597 -0.221960
C20   C     C_R   0.501035 0.189606 0.945325 -0.222842
C21   C     C_R   0.467179 0.744058 0.102798 -0.133230
C22   C     C_R   0.496641 0.191682 0.895224 -0.133887
C23   C     C_R   0.503319 0.500817 0.594081 0.866820
C24   C     C_R   0.496687 0.498847 0.405916 0.877862
C25   C     C_R   0.593544 0.749976 0.949533 -0.221459
C26   C     C_R   0.570072 0.193545 0.048348 -0.220075
C27   C     C_2   0.563343 0.955034 0.490378 -0.027323
C28   C     C_2   0.434964 0.045116 0.508375 -0.033380
C29   C     C_R   0.589874 0.608871 0.822386 0.556546
C30   C     C_R   0.535927 0.336596 0.175695 0.582829
C31   C     C_R   0.524472 0.335572 0.820375 0.566309
C32   C     C_R   0.485379 0.606643 0.177633 0.554511
C33   C     C_R   0.674371 0.416417 0.714093 0.007753
C34   C     C_R   0.661872 0.524539 0.275696 0.010091
C35   C     C_R   0.654145 0.424519 0.664534 -0.299739
C36   C     C_R   0.649893 0.534298 0.326219 -0.294230
C37   C     C_R   0.385746 0.560994 0.679263 0.216556
C38   C     C_R   0.342737 0.448300 0.328448 0.204766
C39   C     C_R   0.403022 0.546781 0.728997 -0.132910
C40   C     C_R   0.354327 0.438757 0.278174 -0.093798
C41   C     C_R   0.545747 0.477650 0.746285 0.193870
C42   C     C_R   0.510997 0.476074 0.251926 0.186809
H1    H     H_    0.014459 0.381782 0.463941 0.194468
H2    H     H_    0.985535 0.617705 0.536286 0.198125
H3    H     H_    0.308977 0.592908 0.755381 0.157663
H4    H     H_    0.239745 0.403233 0.259057 0.168862
H5    H     H_    0.642428 0.857518 0.881306 0.188878
H6    H     H_    0.595220 0.090562 0.116495 0.188235
H7    H     H_    0.764864 0.571030 0.344996 0.206880
H8    H     H_    0.751189 0.375974 0.639402 0.211413
H9    H     H_    0.436111 0.849606 0.122458 0.190741
H10   H     H_    0.469999 0.083761 0.875722 0.190830
H11   H     H_    0.459459 0.851731 0.035445 0.137205
H12   H     H_    0.471753 0.080059 0.962458 0.137463
H13   H     H_    0.618864 0.858791 0.968316 0.135733
H14   H     H_    0.600366 0.087127 0.029485 0.134411
N1    N     N_R   0.557214 0.473050 0.797429 -0.332155
N2    N     N_R   0.511028 0.472815 0.200525 -0.336972
N3    N     N_2   0.950320 0.457960 0.486880 -0.175406
N4    N     N_2   0.049680 0.542040 0.513120 -0.168831
O1    O     O_R   0.389250 0.738570 0.503220 -0.593271
O2    O     O_R   0.610750 0.261430 0.496780 -0.584556
O3    O     O_R   0.678390 0.711630 0.494810 -0.643054
O4    O     O_R   0.321610 0.288370 0.505190 -0.639397
O5    O     O_R   0.355440 0.513440 0.575450 -0.600546
O6    O     O_R   0.644560 0.486560 0.424550 -0.613918
O7    O     O_R   0.644590 0.486500 0.567040 -0.625331
O8    O     O_R   0.355410 0.513500 0.432960 -0.633868
O9    O     O_2   0.624723 0.741711 0.798272 -0.538521
O10   O     O_2   0.557360 0.206550 0.199958 -0.528889
O11   O     O_2   0.456953 0.737677 0.203760 -0.523362
O12   O     O_2   0.490047 0.204448 0.794425 -0.541785
Zn1   Zn    Zn3+2 0.306940 0.517990 0.505620 0.955933
Zn2   Zn    Zn3+2 0.693060 0.482010 0.494380 0.954820
N5    N     N_2   0.248000 0.643738 0.661381 -0.295639
H15   H     H_    0.287493 0.716944 0.633629 0.237734
C43   C     C_3   0.115987 0.706915 0.694555 -0.711383
H16   H     H_    0.015020 0.756456 0.673660 0.243241
H17   H     H_    0.174720 0.800485 0.717556 0.256862
H18   H     H_    0.051173 0.614620 0.717368 0.257448
N6    N     N_2   0.179325 0.407175 0.352757 -0.292997
H19   H     H_    0.132826 0.487578 0.377661 0.254510
C44   C     C_3   0.158772 0.248740 0.368311 -0.757645
H20   H     H_    0.024081 0.225168 0.383904 0.233453
H21   H     H_    0.250980 0.228098 0.396374 0.223322
H22   H     H_    0.181774 0.167879 0.337017 0.266748
C45   C     C_2   0.832447 0.564826 0.249096 0.948723
O13   O     O_2   0.950168 0.631623 0.270434 -0.624360
O14   O     O_R   0.861024 0.525383 0.200060 -0.807605
H23   H     H_    0.982510 0.558532 0.186650 0.348218
C46   C     C_2   0.831564 0.346759 0.730997 0.946451
O15   O     O_2   0.914141 0.259542 0.704040 -0.616997
O16   O     O_R   0.888875 0.383332 0.777051 -0.816379
H24   H     H_    0.998343 0.330080 0.783733 0.352864
N7    N     N_2   0.699638 0.009424 0.456399 -0.303550
H25   H     H_    0.816158 0.958501 0.459272 0.237587
C47   C     C_3   0.649552 0.009564 0.406889 -0.728037
H26   H     H_    0.759461 0.058252 0.383169 0.245155
H27   H     H_    0.536677 0.082193 0.403924 0.229041
H28   H     H_    0.615351 0.889507 0.394087 0.233449
N8    N     N_2   0.295651 0.990525 0.541288 -0.301678
H29   H     H_    0.176036 0.026775 0.533079 0.241520
C48   C     C_3   0.328009 0.018773 0.591753 -0.736423
H30   H     H_    0.215065 0.972018 0.614784 0.247614
H31   H     H_    0.345589 0.145056 0.599695 0.247416
H32   H     H_    0.446205 0.960841 0.600912 0.230417

loop_
_geom_bond_atom_site_label_1
_geom_bond_atom_site_label_2
_ccdc_geom_bond_type
C45   O13   D    
O16   H24   S    
C8    C26   A    
C14   C18   A    
C27   N7    S    
N7    H25   S    
C34   C42   A    
C32   N2    A    
C42   N2    S    
N6    H19   S    
C39   C41   A    
C43   H16   S    
C40   H4    S    
N8    H29   S    
C19   C21   A    
C33   C46   S    
C9    C22   A    
O6    Zn2   S    
N4    Zn1   S    
O5    Zn1   S    
C3    C18   A    
C23   O7    A    
C11   C37   A    
C47   H27   S    
C28   N8    S    
O4    Zn1   S    
C12   C36   A    
C29   O9    S    
H1    N3    S    
C39   H3    S    
C19   H11   S    
C40   C42   A    
C37   N5    S    
N3    N4    D    
N8    C48   S    
C1    O3    A    
C30   O10   S    
C2    O4    A    
C47   H26   S    
C32   O11   S    
C5    C29   A    
C43   H17   S    
C10   C21   A    
C13   C19   A    
C14   C20   A    
C20   H12   S    
C46   O15   D    
C5    C7    A    
C9    C31   A    
C15   C26   A    
C6    C8    A    
O1    Zn1   S    
O8    Zn1   S    
C26   H14   S    
C7    H5    S    
N5    H15   S    
C8    H6    S    
C3    C9    A    
C46   O16   S    
C44   H20   S    
C35   H8    S    
C48   H31   S    
O7    Zn2   S    
N5    C43   S    
N3    Zn2   S    
C4    C17   A    
C4    C6    A    
C31   O12   S    
C44   H21   S    
C29   N1    A    
C45   O14   S    
C38   N6    S    
C4    C10   A    
C21   H9    S    
C47   H28   S    
C22   H10   S    
C43   H18   S    
C16   C25   A    
C15   C17   A    
C6    C30   A    
C25   H13   S    
C20   C22   A    
C3    C5    A    
C1    O1    A    
N6    C44   S    
N7    C47   S    
O3    Zn2   S    
C24   O6    A    
C12   C24   S    
C7    C25   A    
C13   C17   A    
C33   C41   A    
C23   O5    A    
C11   C35   A    
C41   N1    S    
C37   C39   A    
C38   C40   A    
C31   N1    A    
H2    N4    S    
C30   N2    A    
C11   C23   S    
C33   C35   A    
C48   H32   S    
C34   C36   A    
C34   C45   S    
C12   C38   A    
C24   O8    A    
C10   C32   A    
C44   H22   S    
C16   C18   A    
C13   C16   A    
C48   H30   S    
C1    C27   S    
C14   C15   A    
O2    Zn2   S    
C2    C28   S    
O14   H23   S    
C36   H7    S    
C2    O2    A    
C27   C28   D    
