data_mof_unit_54581.cif
_audit_creation_date              2012-12-11T14:41:03-0500
_audit_creation_method            fapswitch 2.2
_symmetry_space_group_name_H-M    P1
_symmetry_Int_Tables_number       1
_space_group_crystal_system       triclinic
_cell_length_a                    6.963422
_cell_length_b                    17.403654
_cell_length_c                    19.422794
_cell_angle_alpha                 90.035132
_cell_angle_beta                  90.008376
_cell_angle_gamma                 90.01504
_cell_volume                      2353.82818357

loop_
_atom_site_label
_atom_site_type_symbol
_atom_type_description
_atom_site_fract_x
_atom_site_fract_y
_atom_site_fract_z
_atom_type_partial_charge
O1    O     O_R   0.377350 0.828520 0.186660 -0.497657
O2    O     O_R   0.622650 0.171480 0.813340 -0.494798
O3    O     O_R   0.122650 0.171480 0.686660 -0.504809
O4    O     O_R   0.877350 0.828520 0.313340 -0.499175
O5    O     O_R   0.877350 0.671480 0.313340 -0.498916
O6    O     O_R   0.122650 0.328520 0.686660 -0.494758
O7    O     O_R   0.622650 0.328520 0.813340 -0.504768
O8    O     O_R   0.377350 0.671480 0.186660 -0.499013
O9    O     O_R   0.707090 0.671930 0.178410 -0.538578
O10   O     O_R   0.292910 0.328070 0.821590 -0.537511
O11   O     O_R   0.792910 0.328070 0.678410 -0.536505
O12   O     O_R   0.207090 0.671930 0.321590 -0.534098
O13   O     O_R   0.207090 0.828070 0.321590 -0.535183
O14   O     O_R   0.792910 0.171930 0.678410 -0.536893
O15   O     O_R   0.292910 0.171930 0.821590 -0.536339
O16   O     O_R   0.707090 0.828070 0.178410 -0.535234
C1    C     C_R   0.540419 0.643684 0.162944 0.888146
C2    C     C_R   0.459574 0.355924 0.837433 0.885669
C3    C     C_R   0.959595 0.356104 0.662652 0.894686
C4    C     C_R   0.040556 0.643727 0.337102 0.878275
C5    C     C_R   0.040457 0.856305 0.337077 0.887443
C6    C     C_R   0.959529 0.144086 0.662560 0.886151
C7    C     C_R   0.459569 0.143883 0.837341 0.894317
C8    C     C_R   0.540535 0.856243 0.162876 0.886306
O17   O     O_3   0.543850 0.750000 0.294270 -0.357438
O18   O     O_3   0.456150 0.250000 0.705730 -0.356669
O19   O     O_3   0.956150 0.250000 0.794270 -0.356876
O20   O     O_3   0.043850 0.750000 0.205730 -0.358226
V1    V     V_3+5 0.818700 0.750000 0.241790 1.916137
V2    V     V_3+5 0.181300 0.250000 0.758210 1.895424
V3    V     V_3+5 0.681300 0.250000 0.741790 1.896353
V4    V     V_3+5 0.318700 0.750000 0.258210 1.920082
C9    C     C_R   0.956767 0.419877 0.610083 -0.376032
C10   C     C_R   0.043857 0.579772 0.389384 -0.357339
C11   C     C_R   0.542533 0.579446 0.110911 -0.374776
C12   C     C_R   0.456978 0.419432 0.890095 -0.344170
C13   C     C_R   0.456700 0.080084 0.889899 -0.374143
C14   C     C_R   0.543671 0.920218 0.110627 -0.377153
C15   C     C_R   0.042616 0.920540 0.389124 -0.376470
C16   C     C_R   0.956820 0.080616 0.609875 -0.345851
C17   C     C_R   0.210900 0.472798 0.446876 0.711194
C18   C     C_R   0.790025 0.526761 0.552371 0.737820
C19   C     C_R   0.300520 0.531015 0.944210 0.705525
C20   C     C_R   0.698823 0.467814 0.056723 0.707611
C21   C     C_R   0.710424 0.027346 0.053248 0.737732
C22   C     C_R   0.290062 0.973092 0.947547 0.739009
C23   C     C_R   0.800239 0.969046 0.555717 0.705097
C24   C     C_R   0.198775 0.032233 0.443342 0.707787
C25   C     C_R   0.194260 0.523847 0.390939 0.195202
C26   C     C_R   0.806755 0.475944 0.608409 0.257843
C27   C     C_R   0.316537 0.479241 0.888669 0.171352
C28   C     C_R   0.687280 0.521137 0.111185 0.263471
C29   C     C_R   0.693599 0.976362 0.109227 0.241066
C30   C     C_R   0.306682 0.023981 0.891552 0.258073
C31   C     C_R   0.816423 0.020772 0.611291 0.176318
C32   C     C_R   0.187514 0.978821 0.388949 0.245794
C33   C     C_R   0.909281 0.579566 0.443363 0.729980
C34   C     C_R   0.091520 0.419957 0.556069 0.719997
C35   C     C_R   0.580227 0.415278 0.947333 0.631321
C36   C     C_R   0.412106 0.581010 0.055579 0.706512
C37   C     C_R   0.409237 0.920326 0.056588 0.724634
C38   C     C_R   0.591431 0.080021 0.943933 0.722982
C39   C     C_R   0.080040 0.084802 0.552651 0.626593
C40   C     C_R   0.912024 0.919002 0.444404 0.711255
C41   C     C_R   0.924112 0.526437 0.498590 -0.334088
C42   C     C_R   0.076767 0.473020 0.500719 -0.314342
C43   C     C_R   0.569255 0.469978 0.001482 -0.318785
C44   C     C_R   0.426198 0.527478 0.000567 -0.302776
C45   C     C_R   0.424088 0.973456 0.001357 -0.334405
C46   C     C_R   0.576625 0.026960 0.999287 -0.333610
C47   C     C_R   0.069003 0.030120 0.498492 -0.318532
C48   C     C_R   0.925933 0.972598 0.499378 -0.302489
F1    F     F_    0.230098 0.364972 0.555543 -0.553621
F2    F     F_    0.771082 0.634708 0.444093 -0.553006
F3    F     F_    0.278582 0.637946 0.053629 -0.556560
F4    F     F_    0.703025 0.354747 0.951961 -0.587074
F5    F     F_    0.729975 0.135049 0.944493 -0.552298
F6    F     F_    0.270924 0.865195 0.055891 -0.552687
F7    F     F_    0.778743 0.861951 0.446414 -0.555615
F8    F     F_    0.203554 0.145146 0.548214 -0.586959
S1    S     S_3+6 0.630061 0.482956 0.673677 0.147377
O21   O     O_2   0.481369 0.422428 0.659976 -0.277644
O22   O     O_2   0.719122 0.469537 0.742886 -0.316604
O23   O     O_3   0.523624 0.569844 0.674028 -0.394724
H1    H     H_    0.486852 0.579374 0.722545 0.408960
S2    S     S_3+6 0.371844 0.517514 0.325771 0.117219
O24   O     O_2   0.286312 0.532517 0.256276 -0.336912
O25   O     O_2   0.521387 0.577342 0.340657 -0.257048
O26   O     O_3   0.478252 0.430758 0.324075 -0.401539
H2    H     H_    0.377887 0.395102 0.307117 0.370609
S3    S     S_3+6 0.864366 0.514526 0.176608 0.128475
O27   O     O_2   0.018460 0.572310 0.161066 -0.289223
O28   O     O_2   0.777474 0.531879 0.245421 -0.308376
O29   O     O_3   0.963191 0.426330 0.179821 -0.407655
H3    H     H_    0.021936 0.422505 0.226135 0.385438
S4    S     S_3+6 0.143454 0.487150 0.822061 0.126380
O30   O     O_2   0.060543 0.566741 0.817565 -0.217888
O31   O     O_2   0.228706 0.467160 0.753693 -0.298625
O32   O     O_3   0.967486 0.424805 0.840335 -0.461088
H4    H     H_    0.927107 0.439336 0.887347 0.367700
S5    S     S_3+6 0.129727 0.017059 0.826352 0.146061
O33   O     O_2   0.981298 0.077627 0.840152 -0.277977
O34   O     O_2   0.218581 0.030506 0.757123 -0.318161
O35   O     O_3   0.022977 0.930209 0.825978 -0.394863
H5    H     H_    0.986120 0.920712 0.777459 0.409019
S6    S     S_3+6 0.869824 0.983427 0.174789 0.105252
O36   O     O_2   0.782006 0.967533 0.243762 -0.342573
O37   O     O_2   0.022365 0.924794 0.160085 -0.273057
O38   O     O_3   0.970469 0.071379 0.176719 -0.416078
H6    H     H_    0.021180 0.077447 0.224056 0.393956
S7    S     S_3+6 0.366109 0.985035 0.324076 0.101673
O39   O     O_2   0.520563 0.927880 0.340868 -0.279372
O40   O     O_2   0.281710 0.966473 0.255117 -0.339780
O41   O     O_3   0.463541 0.073478 0.320337 -0.415960
H7    H     H_    0.519206 0.077683 0.273571 0.394087
S8    S     S_3+6 0.643871 0.012610 0.678002 0.125349
O42   O     O_2   0.562650 0.932742 0.682821 -0.219966
O43   O     O_2   0.728753 0.033214 0.746292 -0.299000
O44   O     O_3   0.466674 0.074248 0.659459 -0.460841
H8    H     H_    0.420037 0.056811 0.614006 0.368775
F9    F     F_    0.363081 0.424097 0.449814 -0.545826
F10   F     F_    0.637787 0.575418 0.549270 -0.520166
F11   F     F_    0.157542 0.584123 0.944000 -0.537065
F12   F     F_    0.843462 0.415484 0.056006 -0.534372
F13   F     F_    0.862303 0.076244 0.050461 -0.525807
F14   F     F_    0.137932 0.924348 0.950598 -0.521795
F15   F     F_    0.657181 0.915939 0.555917 -0.537246
F16   F     F_    0.343555 0.084536 0.444135 -0.536035

loop_
_geom_bond_atom_site_label_1
_geom_bond_atom_site_label_2
_ccdc_geom_bond_type
C9    C34   A    
O7    C2    A    
O13   V4    S    
S7    O39   D    
O14   V3    S    
C12   C35   A    
O41   H7    S    
O5    C4    A    
O6    C3    A    
O11   C3    A    
S5    O33   D    
C16   C39   A    
O20   V1    S    
S2    O25   D    
C24   F16   S    
C31   S8    S    
S4    O32   S    
S8    O42   D    
C38   C46   A    
C17   F9    S    
C22   C45   A    
C38   F5    S    
C35   C43   A    
C30   S5    S    
C29   S6    S    
C34   C42   A    
C15   C32   A    
C21   F13   S    
C19   C44   A    
S4    O31   D    
C18   C41   A    
C8    C14   S    
C32   S7    S    
O4    V1    S    
O9    V1    S    
C27   S4    S    
C14   C37   A    
C4    C10   S    
C20   C28   A    
O17   V4    S    
O15   C7    A    
O11   V3    S    
O18   V3    S    
S5    O34   D    
O12   V4    S    
O19   V2    S    
C22   C30   A    
C45   C46   A    
C17   C25   A    
O35   H5    S    
S1    O22   D    
S1    O21   D    
O5    V1    S    
C39   F8    S    
O17   V1    S    
O7    V3    S    
C20   C43   A    
O19   V3    S    
C43   C44   A    
O8    V4    S    
O20   V4    S    
O23   H1    S    
C3    C9    S    
S3    O27   D    
S2    O24   D    
O16   V1    S    
C7    C13   S    
C34   F1    S    
C20   F12   S    
O1    V4    S    
O2    V3    S    
C33   F2    S    
O3    V2    S    
C15   C40   A    
S3    O28   D    
O10   V2    S    
O32   H4    S    
C5    C15   S    
C37   F6    S    
C16   C31   A    
C6    C16   S    
S4    O30   D    
O12   C4    A    
O13   C5    A    
S7    O40   D    
C12   C27   A    
C18   C26   A    
C13   C30   A    
O9    C1    A    
O6    V2    S    
C39   C47   A    
O18   V2    S    
S5    O35   S    
C40   F7    S    
C24   C47   A    
C19   F11   S    
O2    C7    A    
S1    O23   S    
C18   F10   S    
O15   V2    S    
C23   C31   A    
C37   C45   A    
C24   C32   A    
C10   C25   A    
C21   C46   A    
C25   S2    S    
C22   F14   S    
C33   C41   A    
C28   S3    S    
S2    O26   S    
O44   H8    S    
C23   F15   S    
C17   C42   A    
C36   F3    S    
O8    C1    A    
S8    O44   S    
O14   C6    A    
C9    C26   A    
C47   C48   A    
O38   H6    S    
S3    O29   S    
O4    C5    A    
C19   C27   A    
C14   C29   A    
S6    O37   D    
O10   C2    A    
C10   C33   A    
S8    O43   D    
S7    O41   S    
C40   C48   A    
O29   H3    S    
C23   C48   A    
C21   C29   A    
C36   C44   A    
O1    C8    A    
O16   C8    A    
C41   C42   A    
S6    O36   D    
C11   C28   A    
C13   C38   A    
C11   C36   A    
O3    C6    A    
C1    C11   S    
O26   H2    S    
C2    C12   S    
C35   F4    S    
C26   S1    S    
S6    O38   S    
