data_mof_unit_61265.cif
_audit_creation_date              2012-12-10T19:48:45-0500
_audit_creation_method            fapswitch 2.2
_symmetry_space_group_name_H-M    P1
_symmetry_Int_Tables_number       1
_space_group_crystal_system       triclinic
_cell_length_a                    26.056096
_cell_length_b                    26.052392
_cell_length_c                    22.222672
_cell_angle_alpha                 90.0
_cell_angle_beta                  54.105121
_cell_angle_gamma                 89.999985
_cell_volume                      12220.4913072

loop_
_atom_site_label
_atom_site_type_symbol
_atom_type_description
_atom_site_fract_x
_atom_site_fract_y
_atom_site_fract_z
_atom_type_partial_charge
C1    C     C_R   0.849488 0.750046 0.301058 0.820944
C2    C     C_R   0.445840 0.251054 0.499479 -0.094783
C3    C     C_R   0.304308 0.974098 0.456416 0.133670
C4    C     C_R   0.749193 0.554456 0.500539 -0.084418
C5    C     C_R   0.749193 0.445544 0.500539 -0.084418
C6    C     C_R   0.249193 0.054456 0.500539 -0.084418
C7    C     C_R   0.249193 0.945544 0.500539 -0.084418
C8    C     C_R   0.691853 0.526994 0.546339 -0.228142
C9    C     C_R   0.691853 0.473006 0.546339 -0.228143
C10   C     C_R   0.191853 0.026994 0.546339 -0.228142
C11   C     C_R   0.191852 0.973006 0.546339 -0.228143
C12   C     C_3   0.874307 0.470427 0.401023 -0.481054
C13   C     C_R   0.945840 0.248946 0.499480 -0.094782
C14   C     C_3   0.874307 0.529573 0.401023 -0.481054
C15   C     C_3   0.374307 0.970427 0.401023 -0.481054
C16   C     C_3   0.374307 0.029573 0.401023 -0.481054
C17   C     C_R   0.750021 0.890012 0.500065 0.805580
C18   C     C_R   0.750021 0.109988 0.500065 0.805580
C19   C     C_R   0.250021 0.390012 0.500065 0.805580
C20   C     C_R   0.250021 0.609988 0.500065 0.805580
C21   C     C_R   0.890134 0.750181 0.499777 0.808441
C22   C     C_R   0.890134 0.249819 0.499777 0.808441
C23   C     C_R   0.390134 0.250181 0.499777 0.808441
C24   C     C_R   0.945840 0.751054 0.499479 -0.094783
C25   C     C_R   0.390134 0.749819 0.499777 0.808441
C26   C     C_R   0.609980 0.750012 0.500101 0.807602
C27   C     C_R   0.609980 0.249988 0.500101 0.807602
C28   C     C_R   0.109980 0.250012 0.500101 0.807602
C29   C     C_R   0.109980 0.749988 0.500101 0.807602
C30   C     C_R   0.548983 0.781046 0.454086 0.077476
C31   C     C_R   0.548982 0.218953 0.454087 0.077477
C32   C     C_R   0.048983 0.281046 0.454086 0.077476
C33   C     C_R   0.048982 0.718953 0.454087 0.077477
C34   C     C_R   0.554349 0.749307 0.500267 -0.072465
C35   C     C_R   0.497636 0.780552 0.453050 0.122879
C36   C     C_R   0.554349 0.250694 0.500266 -0.072465
C37   C     C_R   0.054349 0.249307 0.500267 -0.072465
C38   C     C_R   0.054349 0.750694 0.500266 -0.072465
C39   C     C_R   0.503254 0.715841 0.547456 -0.226048
C40   C     C_R   0.503255 0.284160 0.547454 -0.226049
C41   C     C_R   0.003254 0.215841 0.547456 -0.226048
C42   C     C_R   0.003255 0.784160 0.547454 -0.226049
C43   C     C_3   0.537573 0.803686 0.321886 -0.855169
C44   C     C_3   0.537571 0.196308 0.321889 -0.855167
C45   C     C_3   0.037573 0.303686 0.321886 -0.855169
C46   C     C_R   0.497636 0.219448 0.453051 0.122879
C47   C     C_3   0.037571 0.696308 0.321889 -0.855167
C48   C     C_R   0.997636 0.280552 0.453050 0.122879
C49   C     C_R   0.997636 0.719448 0.453051 0.122879
C50   C     C_3   0.523129 0.822016 0.395803 -0.028221
C51   C     C_3   0.523127 0.177981 0.395807 -0.028222
C52   C     C_3   0.023129 0.322016 0.395803 -0.028221
C53   C     C_R   0.849488 0.249954 0.301058 0.820945
C54   C     C_3   0.023127 0.677981 0.395807 -0.028222
C55   C     C_3   0.581697 0.822371 0.397249 -0.477035
C56   C     C_3   0.581695 0.177626 0.397254 -0.477036
C57   C     C_3   0.081697 0.322371 0.397249 -0.477035
C58   C     C_3   0.081695 0.677626 0.397254 -0.477036
C59   C     C_3   0.467718 0.735739 0.956936 -0.391015
C60   C     C_3   0.467720 0.264265 0.956936 -0.391016
C61   C     C_3   0.967719 0.235739 0.956936 -0.391015
C62   C     C_3   0.967720 0.764265 0.956936 -0.391016
C63   C     C_3   0.536244 0.803758 0.956943 -0.390889
C64   C     C_R   0.349488 0.250046 0.301058 0.820944
C65   C     C_3   0.536239 0.196241 0.956943 -0.390889
C66   C     C_3   0.036244 0.303758 0.956943 -0.390889
C67   C     C_3   0.036239 0.696241 0.956943 -0.390889
C68   C     C_3   0.493161 0.803751 0.043109 -0.391685
C69   C     C_3   0.493157 0.196248 0.043109 -0.391684
C70   C     C_3   0.993161 0.303751 0.043109 -0.391685
C71   C     C_3   0.993157 0.696248 0.043109 -0.391684
C72   C     C_1   0.389236 0.749946 0.221620 -0.146419
C73   C     C_1   0.389236 0.250053 0.221620 -0.146419
C74   C     C_1   0.889236 0.249946 0.221620 -0.146419
C75   C     C_R   0.349488 0.749954 0.301058 0.820945
C76   C     C_1   0.889236 0.750054 0.221620 -0.146419
C77   C     C_3   0.536662 0.749966 0.926840 0.354622
C78   C     C_3   0.536662 0.250034 0.926840 0.354622
C79   C     C_3   0.036662 0.249966 0.926840 0.354622
C80   C     C_3   0.036662 0.750034 0.926840 0.354622
C81   C     C_R   0.650571 0.749993 0.698950 0.820254
C82   C     C_R   0.650571 0.250007 0.698950 0.820254
C83   C     C_R   0.150571 0.249993 0.698950 0.820254
C84   C     C_R   0.150571 0.750007 0.698950 0.820254
C85   C     C_3   0.424636 0.735733 0.043099 -0.391644
C86   C     C_R   0.449431 0.715737 0.547173 -0.224505
C87   C     C_3   0.424637 0.264272 0.043099 -0.391643
C88   C     C_3   0.924636 0.235733 0.043099 -0.391644
C89   C     C_3   0.924637 0.764272 0.043099 -0.391643
C90   C     C_3   0.463486 0.749954 0.073191 0.355666
C91   C     C_3   0.463486 0.250045 0.073191 0.355666
C92   C     C_3   0.963485 0.249955 0.073191 0.355666
C93   C     C_3   0.963485 0.750045 0.073191 0.355666
C94   C     C_3   0.517801 0.710387 0.043093 -0.392526
C95   C     C_3   0.517804 0.289609 0.043093 -0.392525
C96   C     C_3   0.017801 0.210388 0.043093 -0.392527
C97   C     C_R   0.449432 0.284264 0.547171 -0.224504
C98   C     C_3   0.017804 0.789609 0.043093 -0.392525
C99   C     C_3   0.560885 0.710393 0.956926 -0.392351
C100  C     C_3   0.560888 0.289603 0.956926 -0.392352
C101  C     C_3   0.060885 0.210394 0.956926 -0.392351
C102  C     C_3   0.060888 0.789603 0.956926 -0.392352
C103  C     C_1   0.422677 0.749948 0.154785 -0.133265
C104  C     C_1   0.422677 0.250052 0.154785 -0.133265
C105  C     C_1   0.922677 0.249948 0.154785 -0.133265
C106  C     C_1   0.922677 0.750052 0.154785 -0.133265
C107  C     C_1   0.577456 0.749972 0.845239 -0.132300
C108  C     C_R   0.949431 0.215737 0.547173 -0.224505
C109  C     C_1   0.577456 0.250028 0.845239 -0.132300
C110  C     C_1   0.077456 0.249972 0.845239 -0.132300
C111  C     C_1   0.077456 0.750028 0.845239 -0.132300
C112  C     C_1   0.610863 0.749979 0.778399 -0.143449
C113  C     C_1   0.610863 0.250021 0.778399 -0.143450
C114  C     C_1   0.110863 0.249979 0.778399 -0.143449
C115  C     C_1   0.110863 0.750021 0.778399 -0.143450
C116  C     C_R   0.739332 0.974103 0.456418 0.133795
C117  C     C_R   0.739332 0.025897 0.456418 0.133795
C118  C     C_R   0.239332 0.474103 0.456418 0.133795
C119  C     C_R   0.949432 0.784264 0.547171 -0.224504
C120  C     C_R   0.239332 0.525897 0.456418 0.133795
C121  C     C_R   0.750311 0.945559 0.500550 -0.084081
C122  C     C_R   0.750311 0.054441 0.500550 -0.084081
C123  C     C_R   0.250311 0.445559 0.500550 -0.084081
C124  C     C_R   0.250310 0.554441 0.500550 -0.084081
C125  C     C_R   0.761840 0.973009 0.546361 -0.228166
C126  C     C_R   0.761840 0.026991 0.546361 -0.228166
C127  C     C_R   0.261840 0.473009 0.546361 -0.228166
C128  C     C_R   0.261840 0.526991 0.546361 -0.228166
C129  C     C_R   0.749954 0.610021 0.500062 0.806094
C130  C     C_R   0.445840 0.748946 0.499480 -0.094782
C131  C     C_R   0.749954 0.389978 0.500062 0.806094
C132  C     C_R   0.249954 0.110021 0.500062 0.806094
C133  C     C_R   0.249954 0.889978 0.500062 0.806094
C134  C     C_3   0.724748 0.029572 0.401013 -0.481223
C135  C     C_3   0.724748 0.970428 0.401013 -0.481224
C136  C     C_3   0.224748 0.529572 0.401013 -0.481223
C137  C     C_3   0.224748 0.470428 0.401013 -0.481224
C138  C     C_R   0.804308 0.525902 0.456416 0.133671
C139  C     C_R   0.804308 0.474098 0.456416 0.133670
C140  C     C_R   0.304308 0.025902 0.456416 0.133671
H1    H     H_    0.504516 0.689993 0.584735 0.175209
H2    H     H_    0.455104 0.167046 0.063754 0.164435
H3    H     H_    0.992906 0.299373 0.326791 0.267011
H4    H     H_    0.067621 0.332570 0.278120 0.235457
H5    H     H_    0.062883 0.733730 0.304846 0.240033
H6    H     H_    0.067618 0.667422 0.278125 0.235456
H7    H     H_    0.992904 0.700621 0.326793 0.267013
H8    H     H_    0.955112 0.332955 0.063754 0.164436
H9    H     H_    0.955104 0.667046 0.063754 0.164435
H10   H     H_    0.521545 0.814877 0.063746 0.166508
H11   H     H_    0.521539 0.185118 0.063746 0.166508
H12   H     H_    0.021545 0.314877 0.063746 0.166508
H13   H     H_    0.021539 0.685118 0.063746 0.166508
H14   H     H_    0.561493 0.671309 0.936286 0.165157
H15   H     H_    0.561500 0.328688 0.936286 0.165157
H16   H     H_    0.061493 0.171309 0.936286 0.165157
H17   H     H_    0.504518 0.310009 0.584731 0.175209
H18   H     H_    0.061500 0.828688 0.936286 0.165157
H19   H     H_    0.497773 0.671300 0.063725 0.164803
H20   H     H_    0.497780 0.328697 0.063725 0.164802
H21   H     H_    0.997773 0.171300 0.063725 0.164803
H22   H     H_    0.997780 0.828697 0.063725 0.164802
H23   H     H_    0.466616 0.697120 0.936295 0.166910
H24   H     H_    0.466620 0.302885 0.936295 0.166911
H25   H     H_    0.966616 0.197121 0.936295 0.166910
H26   H     H_    0.966620 0.802885 0.936295 0.166911
H27   H     H_    0.402896 0.697111 0.063731 0.166406
H28   H     H_    0.004516 0.189993 0.584735 0.175209
H29   H     H_    0.402901 0.302895 0.063731 0.166406
H30   H     H_    0.902896 0.197111 0.063731 0.166406
H31   H     H_    0.902900 0.802895 0.063731 0.166405
H32   H     H_    0.546635 0.719804 0.063729 0.165033
H33   H     H_    0.546638 0.280189 0.063729 0.165033
H34   H     H_    0.046635 0.219804 0.063729 0.165033
H35   H     H_    0.046638 0.780189 0.063729 0.165033
H36   H     H_    0.770818 0.953063 0.582085 0.176789
H37   H     H_    0.770817 0.046937 0.582086 0.176789
H38   H     H_    0.270818 0.453063 0.582085 0.176789
H39   H     H_    0.004518 0.810009 0.584731 0.175209
H40   H     H_    0.270817 0.546937 0.582086 0.176789
H41   H     H_    0.410843 0.689918 0.584434 0.176383
H42   H     H_    0.410844 0.310084 0.584430 0.176383
H43   H     H_    0.910843 0.189918 0.584434 0.176383
H44   H     H_    0.910844 0.810084 0.584430 0.176383
H45   H     H_    0.677320 0.046629 0.425067 0.202553
H46   H     H_    0.677319 0.953371 0.425067 0.202553
H47   H     H_    0.177320 0.546629 0.425067 0.202553
H48   H     H_    0.177319 0.453371 0.425067 0.202553
H49   H     H_    0.764450 0.046642 0.347658 0.207745
H50   H     H_    0.518828 0.832965 0.936315 0.164746
H51   H     H_    0.764450 0.953358 0.347658 0.207745
H52   H     H_    0.264450 0.546642 0.347658 0.207745
H53   H     H_    0.264450 0.453358 0.347658 0.207745
H54   H     H_    0.647146 0.546939 0.582057 0.176693
H55   H     H_    0.647146 0.453061 0.582058 0.176694
H56   H     H_    0.147146 0.046939 0.582057 0.176693
H57   H     H_    0.147146 0.953061 0.582058 0.176694
H58   H     H_    0.897672 0.453367 0.425086 0.201901
H59   H     H_    0.897672 0.546632 0.425086 0.201901
H60   H     H_    0.397672 0.953367 0.425086 0.201901
H61   H     H_    0.518821 0.167036 0.936315 0.164746
H62   H     H_    0.397672 0.046632 0.425086 0.201901
H63   H     H_    0.887978 0.453356 0.347662 0.207934
H64   H     H_    0.887978 0.546644 0.347662 0.207934
H65   H     H_    0.387978 0.953356 0.347662 0.207934
H66   H     H_    0.387978 0.046644 0.347662 0.207934
H67   H     H_    0.494637 0.857883 0.417504 0.163438
H68   H     H_    0.494634 0.142115 0.417512 0.163437
H69   H     H_    0.994637 0.357883 0.417504 0.163438
H70   H     H_    0.994633 0.642115 0.417512 0.163437
H71   H     H_    0.626327 0.808560 0.345456 0.214788
H72   H     H_    0.018828 0.332965 0.936315 0.164746
H73   H     H_    0.626325 0.191436 0.345459 0.214789
H74   H     H_    0.126327 0.308560 0.345456 0.214788
H75   H     H_    0.126325 0.691436 0.345459 0.214789
H76   H     H_    0.586343 0.858232 0.420793 0.179481
H77   H     H_    0.586340 0.141766 0.420799 0.179481
H78   H     H_    0.086343 0.358232 0.420793 0.179481
H79   H     H_    0.086340 0.641766 0.420799 0.179481
H80   H     H_    0.385325 0.763686 0.063742 0.164422
H81   H     H_    0.385324 0.236321 0.063742 0.164421
H82   H     H_    0.885325 0.263686 0.063742 0.164422
H83   H     H_    0.018821 0.667036 0.936315 0.164746
H84   H     H_    0.885324 0.736321 0.063742 0.164421
H85   H     H_    0.449044 0.763696 0.936307 0.164667
H86   H     H_    0.449043 0.236311 0.936307 0.164667
H87   H     H_    0.949044 0.263696 0.936307 0.164667
H88   H     H_    0.949043 0.736311 0.936307 0.164667
H89   H     H_    0.585264 0.814890 0.936305 0.166943
H90   H     H_    0.585258 0.185106 0.936305 0.166943
H91   H     H_    0.085264 0.314889 0.936305 0.166943
H92   H     H_    0.085258 0.685106 0.936305 0.166943
H93   H     H_    0.610356 0.719811 0.936289 0.165125
H94   H     H_    0.455112 0.832955 0.063754 0.164436
H95   H     H_    0.610359 0.280182 0.936289 0.165125
H96   H     H_    0.110356 0.219811 0.936289 0.165125
H97   H     H_    0.110359 0.780182 0.936289 0.165125
H98   H     H_    0.562883 0.766263 0.304846 0.240033
H99   H     H_    0.492906 0.799373 0.326791 0.267011
H100  H     H_    0.567621 0.832570 0.278120 0.235457
H101  H     H_    0.562883 0.233730 0.304846 0.240033
H102  H     H_    0.567618 0.167422 0.278125 0.235456
H103  H     H_    0.492904 0.200621 0.326793 0.267013
H104  H     H_    0.062883 0.266263 0.304846 0.240033
O1    O     O_3   0.750020 0.750020 0.500000 -0.475951
O2    O     O_R   0.741140 0.134170 0.457020 -0.643815
O3    O     O_R   0.241140 0.365830 0.457020 -0.643815
O4    O     O_R   0.241140 0.634170 0.457020 -0.643815
O5    O     O_R   0.862350 0.719680 0.336040 -0.645090
O6    O     O_R   0.862350 0.280320 0.336040 -0.645090
O7    O     O_R   0.362350 0.219680 0.336040 -0.645090
O8    O     O_R   0.362350 0.780320 0.336040 -0.645090
O9    O     O_R   0.698420 0.780360 0.663960 -0.639540
O10   O     O_R   0.698420 0.219640 0.663960 -0.639540
O11   O     O_R   0.198420 0.280360 0.663960 -0.639540
O12   O     O_3   0.750020 0.249980 0.500000 -0.475951
O13   O     O_R   0.198420 0.719640 0.663960 -0.639540
O14   O     O_R   0.801620 0.780400 0.336040 -0.640050
O15   O     O_R   0.801620 0.219600 0.336040 -0.640050
O16   O     O_R   0.301620 0.280400 0.336040 -0.640050
O17   O     O_R   0.301620 0.719600 0.336040 -0.640050
O18   O     O_R   0.637700 0.719640 0.663960 -0.639533
O19   O     O_R   0.637700 0.280360 0.663960 -0.639533
O20   O     O_R   0.137700 0.219640 0.663960 -0.639533
O21   O     O_R   0.137700 0.780360 0.663960 -0.639533
O22   O     O_R   0.801870 0.634220 0.457010 -0.644121
O23   O     O_3   0.250020 0.250020 0.500000 -0.475951
O24   O     O_R   0.801870 0.365780 0.457010 -0.644121
O25   O     O_R   0.301870 0.134220 0.457010 -0.644121
O26   O     O_R   0.301870 0.865780 0.457010 -0.644121
O27   O     O_R   0.758890 0.865820 0.542980 -0.648937
O28   O     O_R   0.758890 0.134180 0.542980 -0.648937
O29   O     O_R   0.258890 0.365820 0.542980 -0.648937
O30   O     O_R   0.258890 0.634180 0.542980 -0.648937
O31   O     O_R   0.887320 0.719660 0.457000 -0.650487
O32   O     O_R   0.887320 0.280340 0.457000 -0.650487
O33   O     O_R   0.387320 0.219660 0.457000 -0.650487
O34   O     O_3   0.250020 0.749980 0.500000 -0.475951
O35   O     O_R   0.387320 0.780340 0.457000 -0.650487
O36   O     O_R   0.655700 0.780400 0.457020 -0.643459
O37   O     O_R   0.655700 0.219600 0.457020 -0.643459
O38   O     O_R   0.155700 0.280400 0.457020 -0.643459
O39   O     O_R   0.155700 0.719600 0.457020 -0.643459
O40   O     O_R   0.844340 0.780370 0.542980 -0.647883
O41   O     O_R   0.844340 0.219630 0.542980 -0.647883
O42   O     O_R   0.344340 0.280370 0.542980 -0.647883
O43   O     O_R   0.344340 0.719630 0.542980 -0.647883
O44   O     O_R   0.612730 0.719670 0.543000 -0.650098
O45   O     O_R   0.698170 0.634220 0.542990 -0.648634
O46   O     O_R   0.612730 0.280330 0.543000 -0.650098
O47   O     O_R   0.112730 0.219670 0.543000 -0.650098
O48   O     O_R   0.112730 0.780330 0.543000 -0.650098
O49   O     O_R   0.698170 0.365780 0.542990 -0.648634
O50   O     O_R   0.198170 0.134220 0.542990 -0.648634
O51   O     O_R   0.198170 0.865780 0.542990 -0.648634
O52   O     O_R   0.741140 0.865830 0.457020 -0.643815
Zn1   Zn    Zn3+2 0.675940 0.706640 0.561420 0.960504
Zn2   Zn    Zn3+2 0.762700 0.206610 0.561410 0.960647
Zn3   Zn    Zn3+2 0.262700 0.293390 0.561410 0.960647
Zn4   Zn    Zn3+2 0.262700 0.706610 0.561410 0.960647
Zn5   Zn    Zn3+2 0.737340 0.793410 0.438590 0.958334
Zn6   Zn    Zn3+2 0.737340 0.206590 0.438590 0.958334
Zn7   Zn    Zn3+2 0.237340 0.293410 0.438590 0.958334
Zn8   Zn    Zn3+2 0.237340 0.706590 0.438590 0.958334
Zn9   Zn    Zn3+2 0.675940 0.293360 0.561420 0.960504
Zn10  Zn    Zn3+2 0.175940 0.206640 0.561420 0.960504
Zn11  Zn    Zn3+2 0.175940 0.793360 0.561420 0.960504
Zn12  Zn    Zn3+2 0.824100 0.706650 0.438580 0.951368
Zn13  Zn    Zn3+2 0.824100 0.293350 0.438580 0.951368
Zn14  Zn    Zn3+2 0.324100 0.206650 0.438580 0.951368
Zn15  Zn    Zn3+2 0.324100 0.793350 0.438580 0.951368
Zn16  Zn    Zn3+2 0.762700 0.793390 0.561410 0.960647

loop_
_geom_bond_atom_site_label_1
_geom_bond_atom_site_label_2
_ccdc_geom_bond_type
C94   H19   S    
C87   C91   S    
C107  C112  T    
O23   Zn7   S    
O21   Zn11  S    
C25   O35   A    
O22   Zn12  S    
C89   H84   S    
C26   O36   A    
C28   O38   A    
C66   C79   S    
C61   H87   S    
C65   H90   S    
C136  H52   S    
C7    C133  S    
C72   C75   S    
C99   H93   S    
C42   C119  A    
C131  O49   A    
C12   H63   S    
C94   H32   S    
O31   Zn12  S    
O34   Zn4   S    
C39   H1    S    
O18   Zn1   S    
C68   C90   S    
C128  H40   S    
C135  H46   S    
O12   Zn6   S    
C79   C110  S    
O1    Zn12  S    
C47   H6    S    
C83   C114  S    
C32   C57   S    
C16   H62   S    
C98   H22   S    
O5    Zn12  S    
O43   Zn4   S    
C40   H17   S    
O19   Zn9   S    
C6    C132  S    
O12   Zn9   S    
C69   H2    S    
C98   C102  S    
C77   C107  S    
C41   H28   S    
C12   C139  S    
C67   H83   S    
C43   H99   S    
C18   C122  S    
O50   Zn10  S    
C100  H15   S    
C88   H82   S    
C70   H8    S    
C66   H72   S    
C75   O8    A    
C1    O14   A    
O3    Zn7   S    
C127  H38   S    
O4    Zn8   S    
C85   C90   S    
C9    H55   S    
C71   C93   S    
C72   C103  T    
C14   H59   S    
C33   C38   A    
O45   Zn1   S    
O27   Zn16  S    
C95   H33   S    
O23   Zn10  S    
C98   H35   S    
C66   C70   S    
C46   C51   S    
C60   H86   S    
C27   O46   A    
C118  C120  A    
C43   H100  S    
C48   C52   S    
C21   C24   S    
C12   H58   S    
C31   C36   A    
C81   O9    A    
C129  O22   A    
O34   Zn11  S    
C75   O17   A    
O41   Zn2   S    
C17   O27   A    
C102  H18   S    
C18   O28   A    
C44   H102  S    
C116  C135  S    
C121  C125  A    
C19   C123  S    
O36   Zn5   S    
C87   H81   S    
C62   C80   S    
C43   H98   S    
C1    O5    A    
C57   H78   S    
C87   H29   S    
C99   H14   S    
C92   C96   S    
C31   C46   A    
C14   H64   S    
C29   C38   S    
C13   C22   S    
C86   H41   S    
C64   C73   S    
O23   Zn3   S    
C31   C56   S    
C110  C114  T    
C137  H48   S    
C16   C140  S    
C101  H96   S    
C13   C108  A    
C25   C130  S    
C5    C139  A    
C47   H7    S    
C30   C34   A    
C34   C39   A    
C85   H27   S    
C84   O13   A    
C89   H31   S    
C52   C57   S    
C86   C130  A    
C45   C52   S    
C66   H91   S    
C80   C102  S    
C117  C122  A    
C59   C85   S    
C5    C9    A    
C10   H56   S    
C93   C106  S    
O13   Zn4   S    
C123  C127  A    
C35   C130  A    
C81   C112  S    
O47   Zn10  S    
C32   C37   A    
C29   O48   A    
O48   Zn11  S    
C62   H26   S    
O42   Zn3   S    
O28   Zn2   S    
O25   Zn14  S    
O1    Zn5   S    
C63   C68   S    
C102  H97   S    
C76   C106  T    
C1    C76   S    
C82   C113  S    
C136  C137  S    
C43   C50   S    
O35   Zn15  S    
C134  C135  S    
C63   H50   S    
C63   H89   S    
C74   C105  T    
C15   H60   S    
C133  O26   A    
C28   C37   S    
C61   C79   S    
C62   H88   S    
C60   H24   S    
C77   C99   S    
C78   C109  S    
C61   H25   S    
C53   O6    A    
C37   C41   A    
C20   C124  S    
C59   H23   S    
C10   C11   A    
C91   C95   S    
C23   O42   A    
C54   H70   S    
C2    C23   S    
C79   C101  S    
C69   C91   S    
C125  H36   S    
O37   Zn6   S    
O39   Zn8   S    
O51   Zn11  S    
C47   H5    S    
C33   C58   S    
C53   C74   S    
C23   O33   A    
C97   H42   S    
C96   H34   S    
C134  H49   S    
C85   H80   S    
C3    C7    A    
C54   C58   S    
C33   C49   A    
C62   C89   S    
O6    Zn13  S    
C14   C138  S    
C2    C97   A    
O44   Zn1   S    
C8    H54   S    
O24   Zn13  S    
C124  C128  A    
C58   H75   S    
O26   Zn15  S    
C96   C101  S    
O9    Zn16  S    
C32   C48   A    
C117  C134  S    
C21   O31   A    
C56   H77   S    
C22   O32   A    
C90   C94   S    
O17   Zn8   S    
C88   H30   S    
C116  C121  A    
C132  O25   A    
C95   C100  S    
C131  O24   A    
C101  H16   S    
C83   O11   A    
C120  C136  S    
C25   O43   A    
O29   Zn3   S    
C26   O44   A    
O10   Zn2   S    
C22   O41   A    
O30   Zn4   S    
C42   H39   S    
C60   C78   S    
C45   H104  S    
C135  H51   S    
C15   H65   S    
C68   H94   S    
O38   Zn7   S    
C47   C54   S    
C17   C121  S    
C67   H92   S    
O7    Zn14  S    
C78   C100  S    
C125  C126  A    
C127  C128  A    
O20   Zn10  S    
C40   C97   A    
C24   C119  A    
C65   C78   S    
C108  H43   S    
C70   C92   S    
C67   C80   S    
C28   O47   A    
C6    C10   A    
C4    C129  S    
C27   C36   S    
C30   C55   S    
O15   Zn6   S    
C71   H9    S    
C65   C69   S    
C80   C111  S    
C116  C117  A    
C67   C71   S    
C118  C123  A    
C6    C140  A    
C59   H85   S    
C90   C103  S    
C138  C139  A    
C4    C138  A    
O1    Zn1   S    
C92   C105  S    
C5    C131  S    
O2    Zn6   S    
O8    Zn15  S    
C45   H3    S    
C82   O10   A    
C100  H95   S    
C39   C86   A    
C49   C54   S    
O16   Zn7   S    
O34   Zn8   S    
C53   O15   A    
C41   C108  A    
C91   C104  S    
C4    C8    A    
C59   C77   S    
O40   Zn16  S    
O1    Zn16  S    
C19   O3    A    
C19   O29   A    
C2    C46   A    
C7    C11   A    
C30   C35   A    
C21   O40   A    
C38   C42   A    
C16   H66   S    
O33   Zn14  S    
C15   C16   S    
C71   H13   S    
C96   H21   S    
C126  H37   S    
C51   C56   S    
C26   C34   S    
C73   C104  T    
O12   Zn13  S    
C88   C92   S    
C8    C9    A    
C118  C137  S    
C109  C113  T    
C50   H67   S    
C129  O45   A    
C81   O18   A    
C89   C93   S    
C134  H45   S    
C83   O20   A    
C60   C87   S    
C44   H101  S    
O14   Zn5   S    
O52   Zn5   S    
C137  H53   S    
C95   H20   S    
C69   H11   S    
C36   C40   A    
C70   H12   S    
C55   H76   S    
C51   H68   S    
C122  C126  A    
C11   H57   S    
C61   C88   S    
C45   H4    S    
C64   O7    A    
O49   Zn9   S    
C58   H79   S    
C18   O2    A    
C29   O39   A    
C35   C50   S    
C56   H73   S    
O23   Zn14  S    
C44   C51   S    
C12   C14   S    
C84   C115  S    
C136  H47   S    
O11   Zn3   S    
C3    C15   S    
C63   C77   S    
C24   C49   A    
C68   H10   S    
O46   Zn9   S    
O32   Zn13  S    
C27   O37   A    
C13   C48   A    
O34   Zn15  S    
C50   C55   S    
C52   H69   S    
C94   C99   S    
C132  O50   A    
C84   O21   A    
C119  H44   S    
C133  O51   A    
C20   O30   A    
C55   H71   S    
C64   O16   A    
C20   O4    A    
C65   H61   S    
C57   H74   S    
C82   O19   A    
C111  C115  T    
C3    C140  A    
O12   Zn2   S    
C93   C98   S    
C120  C124  A    
C44   H103  S    
C17   O52   A    
