data_mof_unit_38562.cif
_audit_creation_date              2012-10-26T21:05:42-0400
_audit_creation_method            fapswitch 2.2
_symmetry_space_group_name_H-M    P1
_symmetry_Int_Tables_number       1
_space_group_crystal_system       triclinic
_cell_length_a                    13.003787
_cell_length_b                    9.091002
_cell_length_c                    7.786471
_cell_angle_alpha                 89.942256
_cell_angle_beta                  96.194565
_cell_angle_gamma                 89.98253
_cell_volume                      915.121637651

loop_
_atom_site_label
_atom_site_type_symbol
_atom_type_description
_atom_site_fract_x
_atom_site_fract_y
_atom_site_fract_z
_atom_type_partial_charge
C1    C     C_R   0.500312 0.220036 0.500116 0.581332
C2    C     C_R   0.858669 0.645876 0.637202 0.040763
C3    C     C_R   0.132614 0.572098 0.561012 0.207820
C4    C     C_R   0.867487 0.430812 0.451294 0.211136
C5    C     C_R   0.023442 0.570183 0.542376 -0.044355
C6    C     C_R   0.971572 0.463717 0.431966 -0.046547
C7    C     C_1   0.500371 0.065377 0.500154 -0.000635
C8    C     C_1   0.500319 0.934621 0.500006 -0.006193
C9    C     C_2   0.798100 0.754919 0.726184 0.628633
C10   C     C_2   0.188440 0.313594 0.195655 0.650197
C11   C     C_R   0.500154 0.779965 0.499983 0.554546
C12   C     C_R   0.300012 0.496289 0.467888 0.604039
C13   C     C_R   0.699425 0.506153 0.531955 0.589970
C14   C     C_R   0.811163 0.524248 0.548732 -0.013759
C15   C     C_R   0.186849 0.489389 0.447708 -0.016948
C16   C     C_R   0.025178 0.393279 0.305667 0.216101
C17   C     C_R   0.964499 0.670530 0.631820 0.226254
C18   C     C_R   0.133122 0.402642 0.316655 0.038036
Cu1   Cu    Cu3+1 0.500010 0.500000 0.669080 1.136621
Cu2   Cu    Cu3+1 0.499990 0.500000 0.330920 1.116586
H1    H     H_    0.872067 0.225225 0.387328 0.375152
H2    H     H_    0.151732 0.639362 0.797875 0.373856
H3    H     H_    0.753858 0.966461 0.745047 0.346485
H4    H     H_    0.299510 0.163693 0.165621 0.346158
H5    H     H_    0.907292 0.367714 0.134167 0.368374
H6    H     H_    0.058343 0.835490 0.632584 0.368774
N1    N     N_1   0.499980 0.500000 0.076820 -0.061505
N2    N     N_1   0.500020 0.500000 0.923180 -0.054128
O1    O     O_R   0.500000 0.288400 0.642760 -0.508215
O2    O     O_3   0.188623 0.648143 0.693361 -0.661072
O3    O     O_2   0.751178 0.716871 0.846604 -0.484663
O4    O     O_R   0.797508 0.902349 0.674848 -0.638745
O5    O     O_2   0.163319 0.321545 0.039953 -0.445198
O6    O     O_R   0.267912 0.218562 0.260366 -0.693371
O7    O     O_3   0.974349 0.318032 0.167514 -0.634088
O8    O     O_3   0.006196 0.798284 0.705785 -0.630123
O9    O     O_R   0.500000 0.711600 0.357240 -0.506235
O10   O     O_R   0.500000 0.288400 0.357240 -0.483581
O11   O     O_R   0.500000 0.711600 0.642760 -0.485064
O12   O     O_R   0.349000 0.500000 0.619590 -0.446195
O13   O     O_R   0.651000 0.500000 0.380410 -0.466313
O14   O     O_R   0.348990 0.500000 0.334020 -0.506384
O15   O     O_R   0.651010 0.500000 0.665980 -0.483623
O16   O     O_3   0.819485 0.304394 0.384432 -0.663893

loop_
_geom_bond_atom_site_label_1
_geom_bond_atom_site_label_2
_ccdc_geom_bond_type
C12   O12   A    
C3    O2    S    
Cu2   O14   S    
Cu2   O9    S    
Cu2   N1    S    
C15   C18   A    
H1    O16   S    
Cu2   O10   S    
Cu1   Cu2   S    
C12   C15   S    
H3    O4    S    
C1    O1    A    
Cu2   O13   S    
C7    C8    T    
C10   O6    S    
C13   C14   S    
C2    C17   A    
C11   O11   A    
Cu1   N2    S    
Cu1   O11   S    
C1    O10   A    
H5    O7    S    
C8    C11   S    
C10   C18   S    
C13   O13   A    
C17   O8    S    
Cu1   O15   S    
C10   O5    D    
C16   O7    S    
C4    C14   A    
C5    C6    A    
C2    C14   A    
C4    C6    A    
C5    C17   A    
Cu1   O12   S    
C9    O3    D    
C6    C16   A    
Cu1   O1    S    
C13   O15   A    
C3    C15   A    
C16   C18   A    
H6    O8    S    
N1    N2    T    
C11   O9    A    
C12   O14   A    
H2    O2    S    
C9    O4    S    
C1    C7    S    
C2    C9    S    
H4    O6    S    
C4    O16   S    
C3    C5    A    
