data_mof_unit_64290.cif
_audit_creation_date              2012-10-26T18:35:52-0400
_audit_creation_method            fapswitch 2.2
_symmetry_space_group_name_H-M    P1
_symmetry_Int_Tables_number       1
_space_group_crystal_system       triclinic
_cell_length_a                    10.745108
_cell_length_b                    12.750749
_cell_length_c                    13.911768
_cell_angle_alpha                 97.969265
_cell_angle_beta                  90.220933
_cell_angle_gamma                 93.12674
_cell_volume                      1884.6829508

loop_
_atom_site_label
_atom_site_type_symbol
_atom_type_description
_atom_site_fract_x
_atom_site_fract_y
_atom_site_fract_z
_atom_type_partial_charge
C1    C     C_R   0.498683 0.483559 0.315884 0.541652
C2    C     C_1   0.497973 0.474289 0.212679 -0.012606
C3    C     C_2   0.464455 0.028189 0.473566 -0.163542
C4    C     C_R   0.259422 0.500475 0.499997 0.539574
C5    C     C_2   0.535545 0.971808 0.526426 -0.164426
C6    C     C_1   0.525542 0.854623 0.519117 0.135520
C7    C     C_1   0.474458 0.145375 0.480878 0.133998
C8    C     C_R   0.501317 0.516467 0.684118 0.544638
C9    C     C_R   0.740661 0.499842 0.500020 0.539453
C10   C     C_3   0.067375 0.436110 0.405263 -0.234570
C11   C     C_3   0.923697 0.435530 0.405309 -0.235469
C12   C     C_3   0.878489 0.500289 0.500031 0.044420
C13   C     C_3   0.069316 0.451434 0.588225 -0.234255
C14   C     C_3   0.078853 0.616170 0.506695 -0.232429
C15   C     C_3   0.121796 0.501169 0.500051 0.044679
C16   C     C_3   0.925637 0.450844 0.588148 -0.235716
C17   C     C_3   0.936314 0.615701 0.506685 -0.229898
C18   C     C_1   0.502056 0.526153 0.787346 -0.038272
C19   C     C_2   0.503600 0.546674 0.978481 0.101464
C20   C     C_2   0.496852 0.459370 0.021973 -0.067617
C21   C     C_1   0.497390 0.466592 0.125751 -0.009950
C22   C     C_1   0.502773 0.535652 0.874357 -0.059322
Cu1   Cu    Cu3+1 0.491980 0.395330 0.493960 0.968087
Cu2   Cu    Cu3+1 0.508020 0.604670 0.506040 0.973992
H1    H     H_    0.096589 0.353010 0.398434 0.132953
H2    H     H_    0.884377 0.352223 0.398662 0.132319
H3    H     H_    0.098571 0.368675 0.585471 0.133128
H4    H     H_    0.886355 0.367847 0.585203 0.131312
H5    H     H_    0.116357 0.664851 0.574300 0.130673
H6    H     H_    0.114977 0.653944 0.444072 0.131404
H7    H     H_    0.904272 0.653409 0.444074 0.133125
H8    H     H_    0.593148 0.690152 0.014214 0.231337
H9    H     H_    0.436269 0.691489 0.013896 0.231195
H10   H     H_    0.905654 0.664318 0.574286 0.130951
H11   H     H_    0.107148 0.497317 0.657013 0.111568
H12   H     H_    0.893895 0.496431 0.656903 0.111620
H13   H     H_    0.490822 0.381067 0.979335 0.094734
H14   H     H_    0.604014 0.014131 0.577217 0.123262
H15   H     H_    0.395986 0.985864 0.422775 0.125770
H16   H     H_    0.103794 0.470861 0.341122 0.112753
H17   H     H_    0.890543 0.469986 0.341183 0.113350
N1    N     N_1   0.479930 0.238040 0.484880 -0.190170
N2    N     N_1   0.520070 0.761960 0.515120 -0.189723
N3    N     N_3   0.511590 0.650435 0.034076 -0.608418
O1    O     O_R   0.492240 0.399110 0.356330 -0.494454
O2    O     O_R   0.505790 0.575900 0.366540 -0.482997
O3    O     O_R   0.310920 0.411610 0.494880 -0.503013
O4    O     O_R   0.324460 0.588390 0.505090 -0.503907
O5    O     O_R   0.494210 0.424100 0.633460 -0.491217
O6    O     O_R   0.507760 0.600890 0.643670 -0.490354
O7    O     O_R   0.675540 0.411610 0.494910 -0.502094
O8    O     O_R   0.689080 0.588390 0.505120 -0.504511

loop_
_geom_bond_atom_site_label_1
_geom_bond_atom_site_label_2
_ccdc_geom_bond_type
C12   C17   S    
Cu2   O8    S    
Cu1   Cu2   S    
C7    N1    T    
C16   H4    S    
Cu1   O1    S    
Cu1   O7    S    
C19   C20   D    
C9    O7    A    
C11   C12   S    
Cu2   O2    S    
C20   C21   S    
C2    C21   T    
H8    N3    S    
C3    H15   S    
C5    H14   S    
C16   H12   S    
C20   H13   S    
Cu1   N1    S    
C14   C17   S    
C1    O1    A    
C9    O8    A    
C14   H6    S    
C10   H1    S    
C11   H17   S    
C3    C7    S    
C6    N2    T    
C13   C15   S    
C4    C15   S    
Cu2   O6    S    
C5    C6    S    
C17   H7    S    
C9    C12   S    
C1    O2    A    
Cu1   O5    S    
Cu1   O3    S    
C10   C11   S    
C14   H5    S    
Cu2   O4    S    
C8    O6    A    
C19   C22   S    
C4    O4    A    
C19   N3    S    
C10   H16   S    
C1    C2    S    
C17   H10   S    
C13   C16   S    
Cu2   N2    S    
C14   C15   S    
C13   H3    S    
C11   H2    S    
C10   C15   S    
C18   C22   T    
H9    N3    S    
C8    O5    A    
C13   H11   S    
C8    C18   S    
C12   C16   S    
C3    C5    D    
C4    O3    A    
