data_mof_unit_21962.cif
_audit_creation_date              2012-12-10T17:01:10-0500
_audit_creation_method            fapswitch 2.2
_symmetry_space_group_name_H-M    P1
_symmetry_Int_Tables_number       1
_space_group_crystal_system       triclinic
_cell_length_a                    15.920747
_cell_length_b                    15.389302
_cell_length_c                    9.909178
_cell_angle_alpha                 89.994105
_cell_angle_beta                  58.998703
_cell_angle_gamma                 89.999674
_cell_volume                      2081.03640651

loop_
_atom_site_label
_atom_site_type_symbol
_atom_type_description
_atom_site_fract_x
_atom_site_fract_y
_atom_site_fract_z
_atom_type_partial_charge
C1    C     C_R   0.371926 0.118496 0.562767 0.798087
C2    C     C_R   0.628079 0.881500 0.437248 0.803914
C3    C     C_R   0.628069 0.118495 0.437235 0.807320
C4    C     C_R   0.371888 0.881551 0.562797 0.803806
C5    C     C_R   0.871930 0.618487 0.562751 0.805199
C6    C     C_R   0.128035 0.381534 0.437206 0.861196
C7    C     C_R   0.128045 0.618546 0.437268 0.800990
C8    C     C_R   0.871893 0.381517 0.562765 0.801611
C9    C     C_2   0.509927 0.008878 0.915926 0.031693
C10   C     C_2   0.489685 0.000406 0.083713 0.062043
C11   C     C_2   0.010264 0.497111 0.916027 0.058183
C12   C     C_2   0.989723 0.502707 0.083984 0.057380
C13   C     C_2   0.298639 0.814002 0.600430 -0.045642
C14   C     C_2   0.701220 0.186140 0.399700 -0.045119
C15   C     C_2   0.701256 0.813865 0.399814 -0.044960
C16   C     C_2   0.298893 0.186241 0.600048 -0.020592
C17   C     C_2   0.798719 0.313874 0.600148 -0.042632
C18   C     C_2   0.201065 0.686338 0.399984 -0.040682
C19   C     C_2   0.200927 0.314001 0.398970 -0.033103
C20   C     C_2   0.798771 0.686111 0.600251 -0.044773
C21   C     C_2   0.285778 0.783751 0.485713 -0.114912
C22   C     C_2   0.714088 0.216361 0.514422 -0.114866
C23   C     C_2   0.714466 0.784021 0.514432 -0.118366
C24   C     C_2   0.286059 0.216104 0.485074 -0.149305
C25   C     C_2   0.785655 0.283944 0.485433 -0.114963
C26   C     C_2   0.214265 0.716126 0.514652 -0.118070
C27   C     C_2   0.214884 0.283944 0.513175 -0.178293
C28   C     C_2   0.786057 0.716467 0.485437 -0.114194
Cu1   Cu    Cu3+1 0.522650 0.000000 0.349410 0.940428
Cu2   Cu    Cu3+1 0.477350 0.000000 0.650590 0.936848
Cu3   Cu    Cu3+1 0.022650 0.500000 0.349410 0.952143
Cu4   Cu    Cu3+1 0.977350 0.500000 0.650590 0.939404
H1    H     H_    0.670612 0.190498 0.633020 0.186491
H2    H     H_    0.329296 0.809573 0.367088 0.189100
H3    H     H_    0.329464 0.189594 0.367178 0.152771
H4    H     H_    0.671243 0.810102 0.632880 0.182643
H5    H     H_    0.171193 0.689883 0.633023 0.182774
H6    H     H_    0.828946 0.309988 0.366944 0.183177
H7    H     H_    0.829669 0.690738 0.366771 0.189013
H8    H     H_    0.172192 0.310412 0.631425 0.204024
H9    H     H_    0.413834 0.995963 0.178412 0.142371
H10   H     H_    0.583592 0.025658 0.823418 0.151301
H11   H     H_    0.914254 0.509174 0.178953 0.146749
H12   H     H_    0.085712 0.490381 0.821103 0.147424
N1    N     N_2   0.443290 0.000000 0.876860 -0.088969
N2    N     N_2   0.556710 0.000000 0.123140 -0.089494
N3    N     N_2   0.943290 0.500000 0.876860 -0.089781
N4    N     N_2   0.056710 0.500000 0.123140 -0.091076
O1    O     O_R   0.422430 0.089640 0.419570 -0.597768
O2    O     O_R   0.577570 0.910360 0.580430 -0.596354
O3    O     O_R   0.577570 0.089640 0.580430 -0.599264
O4    O     O_R   0.422430 0.910360 0.419570 -0.595567
O5    O     O_R   0.922430 0.589640 0.419570 -0.598387
O6    O     O_R   0.077570 0.410360 0.580430 -0.611319
O7    O     O_R   0.077570 0.589640 0.580430 -0.599713
O8    O     O_R   0.922430 0.410360 0.419570 -0.598972
O9    O     O_R   0.384170 0.089650 0.673910 -0.571556
O10   O     O_R   0.615830 0.910350 0.326090 -0.572128
O11   O     O_R   0.615830 0.089650 0.326090 -0.584619
O12   O     O_R   0.384170 0.910350 0.673910 -0.581182
O13   O     O_R   0.884170 0.589650 0.673910 -0.584686
O14   O     O_R   0.115830 0.410350 0.326090 -0.557876
O15   O     O_R   0.115830 0.589650 0.326090 -0.574136
O16   O     O_R   0.884170 0.410350 0.673910 -0.573289
N5    N     N_2   0.653226 0.007722 0.003885 -0.348369
H13   H     H_    0.694585 0.040556 0.040030 0.278081
C29   C     C_3   0.697887 0.925626 0.930964 -0.650925
H14   H     H_    0.773830 0.937041 0.832048 0.206329
H15   H     H_    0.656088 0.893493 0.883445 0.232202
H16   H     H_    0.700388 0.881812 0.017823 0.235059
N6    N     N_2   0.356966 0.961471 0.988465 -0.352001
H17   H     H_    0.349199 0.899454 0.957146 0.271307
C30   C     C_3   0.271858 0.014681 0.033769 -0.610257
H18   H     H_    0.207119 0.985094 0.137249 0.194006
H19   H     H_    0.257152 0.018939 0.936003 0.235489
H20   H     H_    0.283000 0.080855 0.066584 0.215146
N7    N     N_2   0.152976 0.490605 0.003746 -0.343961
H21   H     H_    0.192939 0.454343 0.038466 0.290275
C31   C     C_3   0.200900 0.572305 0.934285 -0.657290
H22   H     H_    0.275748 0.559585 0.833147 0.208308
H23   H     H_    0.206702 0.612566 0.021985 0.235896
H24   H     H_    0.159526 0.609033 0.890756 0.230334
N8    N     N_2   0.847125 0.510139 0.996193 -0.347784
H25   H     H_    0.807547 0.546894 0.961369 0.278431
C32   C     C_3   0.798336 0.428790 0.065977 -0.656131
H26   H     H_    0.723673 0.442063 0.167186 0.206535
H27   H     H_    0.839394 0.391518 0.109467 0.231309
H28   H     H_    0.791992 0.388819 0.978491 0.236292
N9    N     N_3   0.757883 0.219138 0.241807 -0.611795
H29   H     H_    0.709337 0.243990 0.210057 0.226250
H30   H     H_    0.795324 0.167044 0.166945 0.224728
N10   N     N_3   0.241853 0.781177 0.758432 -0.612853
H31   H     H_    0.290322 0.756299 0.790323 0.223038
H32   H     H_    0.204554 0.833380 0.833103 0.225746
N11   N     N_3   0.242459 0.219715 0.757644 -0.589401
H33   H     H_    0.291158 0.244668 0.788984 0.233794
H34   H     H_    0.204922 0.167819 0.833035 0.221750
N12   N     N_3   0.757549 0.780402 0.242187 -0.599066
H35   H     H_    0.708788 0.755338 0.211073 0.224431
H36   H     H_    0.795002 0.832297 0.166741 0.222446
N13   N     N_3   0.257221 0.720030 0.242491 -0.605302
H37   H     H_    0.208389 0.744875 0.211337 0.222579
H38   H     H_    0.295051 0.668311 0.166889 0.221897
N14   N     N_3   0.742208 0.280533 0.757841 -0.601315
H39   H     H_    0.790816 0.255775 0.789540 0.225766
H40   H     H_    0.704406 0.332432 0.832958 0.220384
N15   N     N_3   0.741907 0.718916 0.758235 -0.612443
H41   H     H_    0.790333 0.743638 0.790338 0.226357
H42   H     H_    0.704398 0.666741 0.832836 0.224174
N16   N     N_3   0.254903 0.281940 0.239969 -0.592003
H43   H     H_    0.329665 0.292583 0.194244 0.223172
H44   H     H_    0.242081 0.215263 0.240821 0.217910

loop_
_geom_bond_atom_site_label_1
_geom_bond_atom_site_label_2
_ccdc_geom_bond_type
Cu2   O3    S    
C9    N1    D    
N13   H37   S    
N1    N6    S    
C30   H19   S    
C30   H18   S    
Cu2   N1    S    
C11   N3    D    
N11   H33   S    
C18   C26   D    
C24   C27   S    
C7    O7    A    
C12   N4    D    
C8    O8    A    
N14   H40   S    
C5    C20   S    
Cu1   O1    S    
N7    H21   S    
C6    C19   S    
C9    H10   S    
C4    O4    A    
N8    H25   S    
C5    O5    A    
C17   N14   S    
Cu4   O13   S    
C12   H11   S    
C32   H28   S    
Cu2   O9    S    
C4    C13   S    
N16   H43   S    
C2    O2    A    
Cu1   O11   S    
N5    C29   S    
C22   C25   S    
Cu2   O12   S    
C10   N2    D    
N15   H41   S    
N3    N8    S    
Cu3   O8    S    
N9    H30   S    
C19   C27   D    
C9    C10   S    
Cu4   O7    S    
C20   N15   S    
C15   C23   D    
Cu2   O2    S    
C16   C24   D    
C10   H9    S    
N15   H42   S    
Cu3   O14   S    
C6    O6    A    
Cu4   O6    S    
N14   H39   S    
C21   C26   S    
N7    C31   S    
C24   H3    S    
C32   H27   S    
C5    O13   A    
C29   H14   S    
Cu3   O15   S    
Cu4   O16   S    
N2    N5    S    
C31   H23   S    
C3    O3    A    
C21   H2    S    
C20   C28   D    
C28   H7    S    
C32   H26   S    
C29   H15   S    
C18   N13   S    
N4    N7    S    
C14   N9    S    
Cu1   Cu2   S    
C1    O9    A    
C25   H6    S    
Cu3   Cu4   S    
C27   H8    S    
C7    C18   S    
C4    O12   A    
N10   H32   S    
C13   C21   D    
C11   H12   S    
C1    C16   S    
C23   C28   S    
Cu3   O5    S    
C2    C15   S    
C7    O15   A    
C3    C14   S    
C8    O16   A    
N8    C32   S    
C23   H4    S    
N12   H36   S    
Cu3   N4    S    
C13   N10   S    
Cu4   N3    S    
C15   N12   S    
N6    C30   S    
C19   N16   S    
C22   H1    S    
N11   H34   S    
C16   N11   S    
C31   H24   S    
C11   C12   S    
C2    O10   A    
C26   H5    S    
C8    C17   S    
Cu1   N2    S    
C29   H16   S    
C17   C25   D    
C6    O14   A    
N6    H17   S    
C14   C22   D    
N10   H31   S    
C30   H20   S    
N5    H13   S    
N16   H44   S    
C31   H22   S    
Cu1   O10   S    
N13   H38   S    
N12   H35   S    
N9    H29   S    
C1    O1    A    
Cu1   O4    S    
C3    O11   A    
