data_mof_unit_23347.cif
_audit_creation_date              2012-10-26T19:46:07-0400
_audit_creation_method            fapswitch 2.2
_symmetry_space_group_name_H-M    P1
_symmetry_Int_Tables_number       1
_space_group_crystal_system       triclinic
_cell_length_a                    10.76965
_cell_length_b                    9.675353
_cell_length_c                    15.83606
_cell_angle_alpha                 90.263227
_cell_angle_beta                  92.070366
_cell_angle_gamma                 89.930549
_cell_volume                      1649.02458801

loop_
_atom_site_label
_atom_site_type_symbol
_atom_type_description
_atom_site_fract_x
_atom_site_fract_y
_atom_site_fract_z
_atom_type_partial_charge
C1    C     C_R   0.262958 0.500201 0.497713 0.583628
C2    C     C_R   0.942758 0.513564 0.578125 0.080131
C3    C     C_R   0.871662 0.499106 0.502125 -0.042441
C4    C     C_R   0.129206 0.501924 0.498196 -0.016935
C5    C     C_R   0.433785 0.073222 0.439275 0.363591
C6    C     C_R   0.424644 0.925292 0.444604 0.395040
C7    C     C_R   0.497902 0.499776 0.340564 0.544570
C8    C     C_R   0.574369 0.926605 0.556389 0.158793
C9    C     C_R   0.572249 0.074248 0.557730 0.169556
C10   C     C_R   0.737429 0.499785 0.502817 0.601992
C11   C     C_R   0.498565 0.500274 0.659426 0.588904
C12   C     C_3   0.631256 0.466553 0.954636 0.526760
C13   C     C_3   0.444410 0.641105 0.048665 0.185673
C14   C     C_3   0.413330 0.378236 0.046233 0.193251
C15   C     C_3   0.406368 0.385602 0.947866 -0.196869
C16   C     C_3   0.440179 0.637765 0.950525 -0.239233
C17   C     C_1   0.496342 0.500749 0.749069 0.043480
C18   C     C_3   0.494238 0.500218 0.082857 0.048301
C19   C     C_3   0.495809 0.499861 0.916964 0.026596
C20   C     C_3   0.303141 0.809636 0.088528 -0.132642
C21   C     C_3   0.242217 0.251322 0.087070 -0.134044
C22   C     C_3   0.719981 0.690189 0.922619 -0.107763
C23   C     C_3   0.629542 0.481575 0.053379 -0.250862
C24   C     C_3   0.779641 0.285319 0.942284 -0.045443
C25   C     C_3   0.146716 0.570240 0.305024 -0.112404
C26   C     C_3   0.156698 0.677110 0.669056 -0.093276
C27   C     C_3   0.281283 0.179508 0.356140 -0.044850
C28   C     C_3   0.220121 0.876556 0.411202 -0.121566
C29   C     C_1   0.495128 0.500546 0.824667 0.008334
C30   C     C_1   0.494986 0.499624 0.175252 0.021514
C31   C     C_1   0.495893 0.499411 0.250868 0.023422
C32   C     C_R   0.058897 0.482774 0.422575 0.205788
C33   C     C_R   0.071955 0.522417 0.575350 0.222552
C34   C     C_R   0.929646 0.481336 0.424733 0.073358
Cu1   Cu    Cu3+1 0.500020 0.640660 0.500000 1.044467
Cu2   Cu    Cu3+1 0.500020 0.359340 0.500000 1.065807
H1    H     H_    0.484288 0.731201 0.925363 0.069997
H2    H     H_    0.363170 0.852342 0.140977 0.133248
H3    H     H_    0.205055 0.826074 0.105216 0.142286
H4    H     H_    0.293688 0.193586 0.137867 0.117472
H5    H     H_    0.242818 0.192636 0.026478 0.095253
H6    H     H_    0.144253 0.260980 0.105664 0.157907
H7    H     H_    0.681904 0.729225 0.982045 0.068800
H8    H     H_    0.667720 0.730510 0.866314 0.156955
H9    H     H_    0.815289 0.732809 0.919912 0.159944
H10   H     H_    0.830428 0.333990 0.997099 0.126639
H11   H     H_    0.825994 0.311542 0.882911 0.204231
H12   H     H_    0.309389 0.407867 0.925030 0.154868
H13   H     H_    0.785459 0.171653 0.950346 0.111861
H14   H     H_    0.235638 0.612258 0.331356 0.158500
H15   H     H_    0.072175 0.650240 0.305524 0.124802
H16   H     H_    0.161633 0.543105 0.237998 0.196344
H17   H     H_    0.201196 0.734943 0.617743 0.125169
H18   H     H_    0.217617 0.687346 0.726749 0.136795
H19   H     H_    0.065749 0.725292 0.682662 0.154629
H20   H     H_    0.232266 0.181868 0.416835 0.124177
H21   H     H_    0.228764 0.114917 0.309327 0.111344
H22   H     H_    0.281415 0.284973 0.329777 0.201155
H23   H     H_    0.462325 0.280446 0.065164 0.102877
H24   H     H_    0.179048 0.780280 0.434586 0.135494
H25   H     H_    0.164504 0.904385 0.353538 0.115272
H26   H     H_    0.205785 0.956638 0.460762 0.072615
H27   H     H_    0.511955 0.722269 0.070975 0.082299
H28   H     H_    0.429281 0.282759 0.920812 0.136435
H29   H     H_    0.341887 0.646690 0.926723 0.161347
H30   H     H_    0.689284 0.567704 0.077174 0.111280
H31   H     H_    0.669663 0.387654 0.084213 0.131563
H32   H     H_    0.318607 0.866459 0.028881 0.097054
I1    I     I_    0.698814 0.825567 0.644220 -0.294619
I2    I     I_    0.696804 0.176599 0.646055 -0.234849
I3    I     I_    0.825953 0.444818 0.309559 -0.360620
I4    I     I_    0.863225 0.505342 0.699405 -0.255111
N1    N     N_R   0.500030 0.852070 0.500020 -0.257424
N2    N     N_R   0.500030 0.147930 0.500020 -0.262210
O1    O     O_R   0.319660 0.618740 0.500000 -0.513097
O2    O     O_3   0.291992 0.385114 0.078358 -0.510427
O3    O     O_3   0.728409 0.545076 0.917394 -0.538361
O4    O     O_3   0.652707 0.323776 0.935948 -0.571694
O5    O     O_3   0.115126 0.448882 0.348130 -0.589002
O6    O     O_3   0.143660 0.535329 0.649304 -0.544576
O7    O     O_3   0.405413 0.134029 0.362162 -0.542751
O8    O     O_3   0.345357 0.854047 0.389333 -0.534462
O9    O     O_R   0.319660 0.381260 0.500000 -0.503640
O10   O     O_R   0.500020 0.618840 0.379440 -0.460525
O11   O     O_R   0.500020 0.381160 0.379440 -0.451342
O12   O     O_R   0.680370 0.618830 0.500010 -0.469027
O13   O     O_R   0.680370 0.381170 0.500010 -0.455390
O14   O     O_R   0.500010 0.618730 0.620560 -0.486399
O15   O     O_R   0.500010 0.381270 0.620560 -0.472911
O16   O     O_3   0.323781 0.666451 0.078866 -0.507357

loop_
_geom_bond_atom_site_label_1
_geom_bond_atom_site_label_2
_ccdc_geom_bond_type
Cu2   O15   S    
C6    O8    S    
C13   O16   S    
C17   C29   T    
C14   C18   S    
Cu1   Cu2   S    
C26   H19   S    
C7    O11   A    
C15   C19   S    
C14   H23   S    
C12   C23   S    
Cu1   O1    S    
C8    I1    S    
C13   C18   S    
C23   H30   S    
C30   C31   T    
Cu1   O12   S    
Cu2   O9    S    
C5    O7    S    
C23   H31   S    
C5    N2    A    
C25   H14   S    
C11   C17   S    
C8    C9    A    
C12   O4    S    
C15   H28   S    
C18   C30   S    
Cu1   N1    S    
C16   H1    S    
C28   H25   S    
C7    O10   A    
C15   H12   S    
C2    I4    S    
C26   H18   S    
C28   H24   S    
Cu2   O13   S    
C22   H8    S    
C10   O13   A    
C7    C31   S    
C28   O8    S    
C18   C23   S    
C1    O1    A    
C27   O7    S    
C9    I2    S    
C27   H21   S    
C20   H3    S    
C27   H20   S    
C3    C34   A    
C20   O16   S    
C26   O6    S    
C14   O2    S    
C25   H15   S    
C20   H2    S    
Cu1   O14   S    
C11   O15   A    
C22   H7    S    
C21   O2    S    
C11   O14   A    
C12   O3    S    
C4    C32   A    
Cu2   N2    S    
C21   H5    S    
C2    C33   A    
C24   O4    S    
C9    N2    A    
C19   C29   S    
C26   H17   S    
C6    N1    A    
C24   H13   S    
C4    C33   A    
C10   O12   A    
C25   O5    S    
C24   H11   S    
C20   H32   S    
C22   O3    S    
C27   H22   S    
Cu1   O10   S    
C33   O6    S    
Cu2   O11   S    
C1    O9    A    
C1    C4    S    
C24   H10   S    
C2    C3    A    
C25   H16   S    
C3    C10   S    
C32   O5    S    
C5    C6    A    
C21   H4    S    
C16   C19   S    
C12   C19   S    
C8    N1    A    
C13   H27   S    
C21   H6    S    
C22   H9    S    
C13   C16   S    
C14   C15   S    
C16   H29   S    
C34   I3    S    
C32   C34   A    
C28   H26   S    
