data_mof_unit_24464.cif
_audit_creation_date              2012-12-11T14:06:35-0500
_audit_creation_method            fapswitch 2.2
_symmetry_space_group_name_H-M    P1
_symmetry_Int_Tables_number       1
_space_group_crystal_system       triclinic
_cell_length_a                    6.924904
_cell_length_b                    17.274245
_cell_length_c                    24.099219
_cell_angle_alpha                 104.55323
_cell_angle_beta                  90.474414
_cell_angle_gamma                 89.989963
_cell_volume                      2790.2114481

loop_
_atom_site_label
_atom_site_type_symbol
_atom_type_description
_atom_site_fract_x
_atom_site_fract_y
_atom_site_fract_z
_atom_type_partial_charge
O1    O     O_R   0.494290 0.391990 0.999150 -0.537906
O2    O     O_R   0.827170 0.534410 0.082350 -0.510985
O3    O     O_R   0.994360 0.608010 0.000850 -0.534576
C1    C     C_R   0.658686 0.549178 0.106259 0.734362
O4    O     O_R   0.824210 0.388010 0.004470 -0.548443
O5    O     O_R   0.991370 0.460560 0.922410 -0.541627
C2    C     C_R   0.654527 0.354919 0.001595 0.762985
O6    O     O_R   0.497270 0.539440 0.077590 -0.544640
O7    O     O_3   0.659770 0.523970 0.973170 -0.374680
V1    V     V_3+5 0.935840 0.495550 0.004980 1.439620
O8    O     O_R   0.320910 0.465590 0.917650 -0.543710
C3    C     C_R   0.151323 0.450553 0.893814 0.701837
O9    O     O_R   0.323870 0.611990 0.995530 -0.546524
C4    C     C_R   0.154421 0.645131 0.998538 0.780049
V2    V     V_3+5 0.435470 0.504450 0.995020 1.408187
O10   O     O_3   0.161670 0.476030 0.026830 -0.369499
C5    C     C_2   0.142796 0.730301 0.998118 -0.341709
H1    H     H_    0.277185 0.761195 0.994751 0.150293
C6    C     C_2   0.972764 0.769746 0.002036 -0.338682
H2    H     H_    0.838377 0.738851 0.005404 0.150237
C7    C     C_R   0.068927 0.252166 0.625855 0.582517
N1    N     N_R   0.104596 0.332179 0.647937 -0.561816
C8    C     C_R   0.127078 0.382510 0.612540 0.530045
C9    C     C_R   0.112948 0.352971 0.552519 -0.032433
C10   C     C_R   0.075850 0.270965 0.529302 -0.010587
C11   C     C_R   0.054064 0.219940 0.566159 -0.030588
C12   C     C_R   0.133497 0.403371 0.515278 -0.170087
C13   C     C_R   0.117333 0.372778 0.455882 -0.134772
C14   C     C_R   0.080229 0.290997 0.432218 -0.023186
C15   C     C_R   0.059894 0.239916 0.469107 -0.021029
C16   C     C_R   0.023412 0.157836 0.445943 -0.027206
C17   C     C_R   0.002964 0.107433 0.483162 -0.138229
C18   C     C_R   0.017812 0.138121 0.542523 -0.141224
C19   C     C_R   0.062525 0.258794 0.372516 0.613636
N2    N     N_R   0.026255 0.178779 0.350608 -0.565659
C20   C     C_R   0.007781 0.128292 0.386012 0.597769
O11   O     O_2   0.048748 0.203784 0.661530 -0.509902
O12   O     O_2   0.159672 0.461123 0.635331 -0.512665
H3    H     H_    0.161528 0.466684 0.531892 0.194089
H4    H     H_    0.133786 0.413478 0.428598 0.177521
O13   O     O_2   0.081768 0.306999 0.336690 -0.510686
O14   O     O_2   0.973639 0.049776 0.363312 -0.499414
H5    H     H_    0.974907 0.044104 0.466579 0.169605
H6    H     H_    0.000641 0.097466 0.569809 0.177711
C21   C     C_R   0.163482 0.105951 0.258296 -0.070622
H7    H     H_    0.296307 0.098403 0.280320 0.143425
C22   C     C_R   0.149252 0.074854 0.198925 -0.200992
H8    H     H_    0.272814 0.044231 0.176237 0.137881
C23   C     C_R   0.977070 0.082329 0.169313 -0.059500
C24   C     C_R   0.819658 0.122278 0.200541 -0.235552
H9    H     H_    0.686168 0.129266 0.178484 0.128219
C25   C     C_R   0.835021 0.155135 0.260030 -0.013172
C26   C     C_R   0.007950 0.146865 0.289295 0.343821
C27   C     C_R   0.949449 0.369504 0.742825 -0.098732
H10   H     H_    0.810896 0.351505 0.722506 0.114223
C28   C     C_R   0.960661 0.398094 0.802537 -0.190630
H11   H     H_    0.829286 0.401396 0.827074 0.129833
C29   C     C_R   0.139331 0.421296 0.830145 -0.056506
C30   C     C_R   0.306023 0.415891 0.796195 -0.194197
H12   H     H_    0.445859 0.433354 0.815778 0.129444
C31   C     C_R   0.294241 0.387646 0.736402 -0.084840
H13   H     H_    0.424129 0.383462 0.711109 0.109638
C32   C     C_R   0.116090 0.363806 0.709353 0.386042
C33   C     C_R   0.514235 0.871852 0.614749 0.579721
N3    N     N_R   0.496936 0.820054 0.649049 -0.570329
C34   C     C_R   0.495792 0.738923 0.626265 0.603491
C35   C     C_R   0.515491 0.706509 0.566331 -0.121288
C36   C     C_R   0.535038 0.759710 0.530544 -0.070896
C37   C     C_R   0.533102 0.842804 0.554983 -0.008822
C38   C     C_R   0.517705 0.622990 0.541164 0.415861
C39   C     C_R   0.535325 0.594320 0.481564 -0.246923
C40   C     C_R   0.556828 0.646740 0.445973 -0.079628
C41   C     C_R   0.555666 0.729956 0.470271 -0.017823
C42   C     C_R   0.573415 0.783269 0.434379 -0.057409
C43   C     C_R   0.569253 0.867023 0.460045 -0.073368
C44   C     C_R   0.550126 0.895404 0.519457 -0.189410
C45   C     C_R   0.577243 0.617442 0.386286 0.601564
N4    N     N_R   0.595298 0.669049 0.351854 -0.548695
C46   C     C_R   0.593816 0.750263 0.374364 0.579847
O15   O     O_2   0.513972 0.951422 0.638480 -0.510961
O16   O     O_2   0.476631 0.690119 0.661640 -0.486708
H14   H     H_    0.530455 0.530268 0.463294 0.179905
O17   O     O_2   0.577757 0.537824 0.362758 -0.518494
O18   O     O_2   0.613245 0.798449 0.338579 -0.504381
H15   H     H_    0.547815 0.959503 0.537977 0.166504
C47   C     C_R   0.456739 0.642227 0.254247 -0.081057
H16   H     H_    0.321940 0.668680 0.272095 0.144904
C48   C     C_R   0.473752 0.613465 0.194857 -0.246279
H17   H     H_    0.350321 0.619008 0.168245 0.187395
C49   C     C_R   0.647138 0.578758 0.170038 -0.163549
C50   C     C_R   0.803726 0.572273 0.206941 0.370053
C51   C     C_R   0.785841 0.602858 0.266690 -0.176259
H18   H     H_    0.907513 0.599657 0.294561 0.135891
C52   C     C_R   0.612602 0.637491 0.290575 0.323960
C53   C     C_R   0.306528 0.872277 0.736895 -0.079088
H19   H     H_    0.175196 0.863549 0.711378 0.113372
C54   C     C_R   0.296503 0.904303 0.796386 -0.191007
H20   H     H_    0.156318 0.919392 0.815634 0.128910
C55   C     C_R   0.465650 0.916568 0.830458 -0.058818
C56   C     C_R   0.644626 0.895761 0.803310 -0.188393
H21   H     H_    0.777885 0.903987 0.827924 0.129224
C57   C     C_R   0.654128 0.863691 0.743954 -0.094777
H22   H     H_    0.793113 0.848275 0.723965 0.109778
C58   C     C_R   0.485401 0.851700 0.710375 0.384398
C59   C     C_2   0.642866 0.269777 0.002107 -0.343755
H23   H     H_    0.777444 0.238865 0.005480 0.149752
C60   C     C_2   0.472570 0.230350 0.998183 -0.343386
H24   H     H_    0.337984 0.261289 0.994866 0.149401
O19   O     O_R   0.618210 0.960470 0.922400 -0.540598
O20   O     O_R   0.291310 0.111960 0.995450 -0.545856
O21   O     O_R   0.124210 0.039530 0.077580 -0.541114
C61   C     C_R   0.460957 0.145130 0.998510 0.775822
O22   O     O_R   0.288310 0.965490 0.917650 -0.542782
O23   O     O_R   0.121180 0.892010 0.999220 -0.535485
C62   C     C_R   0.456539 0.949294 0.893892 0.706534
O24   O     O_R   0.621230 0.107990 0.000760 -0.535533
O25   O     O_3   0.455770 0.976060 0.026840 -0.370877
V3    V     V_3+5 0.179680 0.004440 0.995020 1.410966
O26   O     O_R   0.791670 0.888040 0.004570 -0.545693
C63   C     C_R   0.961127 0.854905 0.001581 0.775847
O27   O     O_R   0.794680 0.034510 0.082370 -0.541802
C64   C     C_R   0.964271 0.050432 0.106024 0.709181
V4    V     V_3+5 0.680070 0.995560 0.005010 1.413218
O28   O     O_3   0.953840 0.023940 0.973160 -0.371274
C65   C     C_1   0.673135 0.197673 0.290588 0.321353
N5    N     N_1   0.543897 0.232110 0.315260 -0.318041
O29   O     O_3   0.485282 0.568837 0.573735 -0.524012
C66   C     C_3   0.661801 0.532196 0.582062 0.159213
H25   H     H_    0.768645 0.577737 0.604738 0.145302
H26   H     H_    0.723491 0.498125 0.540550 0.097028
C67   C     C_3   0.625986 0.473836 0.618802 -0.596823
H27   H     H_    0.764399 0.448282 0.629033 0.171697
H28   H     H_    0.555937 0.505040 0.659589 0.256482
H29   H     H_    0.531733 0.424218 0.595282 0.209941
C68   C     C_1   0.581594 0.926655 0.427501 0.408141
N6    N     N_1   0.590954 0.974722 0.401714 -0.271840
O30   O     O_3   0.977634 0.539428 0.185005 -0.552969
C69   C     C_3   0.985769 0.459618 0.189688 0.110946
H30   H     H_    0.871020 0.422881 0.162666 0.102731
H31   H     H_    0.969043 0.456282 0.234998 0.148206
C70   C     C_3   0.181108 0.424012 0.168904 -0.666498
H32   H     H_    0.298276 0.457982 0.196213 0.226253
H33   H     H_    0.187210 0.360701 0.171326 0.178315
H34   H     H_    0.203798 0.426251 0.123808 0.225810

loop_
_geom_bond_atom_site_label_1
_geom_bond_atom_site_label_2
_ccdc_geom_bond_type
C38   O29   S    
C7    C11   A    
O24   V4    S    
N2    C26   S    
C41   C42   A    
C20   O14   S    
C53   H19   S    
C9    C12   A    
C1    O6    A    
C67   H29   S    
C66   H25   S    
O20   V3    S    
C54   H20   S    
C68   N6    T    
C22   C23   A    
C45   N4    A    
C53   C58   A    
C59   C60   D    
C40   C45   A    
O21   V3    S    
C7    N1    A    
C13   C14   A    
C70   H33   S    
C55   C62   S    
C46   O18   S    
C47   C48   A    
C27   C32   A    
C45   O17   S    
V2    O10   S    
C28   H11   S    
C37   C44   A    
C19   N2    A    
C60   C61   S    
C31   C32   A    
C56   H21   S    
C47   C52   A    
N1    C32   S    
C50   O30   S    
O8    V2    S    
C6    H2    S    
C12   H3    S    
C36   C37   A    
C24   C25   A    
C8    C9    A    
C2    C59   S    
C38   C39   A    
O1    V2    S    
O7    V1    S    
C39   H14   S    
C3    C29   S    
C34   C35   A    
O25   V4    S    
C21   C26   A    
C30   H12   S    
O9    C4    A    
O21   C64   A    
C33   O15   S    
C4    C5    S    
C57   H22   S    
C19   O13   S    
C56   C57   A    
C54   C55   A    
C24   H9    S    
C1    C49   S    
C21   C22   A    
C27   C28   A    
C30   C31   A    
C42   C43   A    
C35   C36   A    
C22   H8    S    
V4    O28   S    
C9    C10   A    
C70   H34   S    
C50   C51   A    
O4    C2    A    
N4    C46   A    
O19   V4    S    
C36   C41   A    
C21   H7    S    
C14   C19   A    
N2    C20   A    
O2    C1    A    
C43   C44   A    
C14   C15   A    
C11   C18   A    
C55   C56   A    
C60   H24   S    
C51   C52   A    
C5    H1    S    
V3    O28   S    
C33   C37   A    
O26   C63   A    
C57   C58   A    
O27   C64   A    
O23   V3    S    
O3    C4    A    
C69   H31   S    
C48   C49   A    
C6    C63   S    
C23   C24   A    
O6    V2    S    
C42   C46   A    
O9    V2    S    
C65   N5    T    
C29   C30   A    
O29   C66   S    
O2    V1    S    
C66   C67   S    
C61   O24   A    
C25   C26   A    
C47   H16   S    
C59   H23   S    
C10   C15   A    
C27   H10   S    
O1    C2    A    
C18   H6    S    
C16   C17   A    
N1    C8    A    
C40   C41   A    
C67   H28   S    
C69   C70   S    
C66   H26   S    
O5    V1    S    
C25   C65   S    
C53   C54   A    
O26   V4    S    
C8    O12   S    
O30   C69   S    
C35   C38   A    
C17   C18   A    
C10   C11   A    
O4    V1    S    
O3    V1    S    
V1    O10   S    
C70   H32   S    
C33   N3    A    
C34   O16   S    
O5    C3    A    
C49   C50   A    
C15   C16   A    
N4    C52   S    
C23   C64   S    
C51   H18   S    
C5    C6    D    
C17   H5    S    
C28   C29   A    
C43   C68   S    
O7    V2    S    
C31   H13   S    
O20   C61   A    
O27   V4    S    
C69   H30   S    
O19   C62   A    
O22   V3    S    
C39   C40   A    
C7    O11   S    
C48   H17   S    
N3    C34   A    
C12   C13   A    
C13   H4    S    
C16   C20   A    
N3    C58   S    
O25   V3    S    
C44   H15   S    
O23   C63   A    
C67   H27   S    
O8    C3    A    
O22   C62   A    
