data_mof_unit_40036.cif
_audit_creation_date              2013-03-05T16:31:28-0500
_audit_creation_method            fapswitch 2.2
_symmetry_space_group_name_H-M    P1
_symmetry_Int_Tables_number       1
_space_group_crystal_system       triclinic
_cell_length_a                    15.027946
_cell_length_b                    10.894645
_cell_length_c                    9.609477
_cell_angle_alpha                 90.067017
_cell_angle_beta                  90.056075
_cell_angle_gamma                 89.915826
_cell_volume                      1573.29980153

loop_
_atom_site_label
_atom_site_type_symbol
_atom_site_description
_atom_site_fract_x
_atom_site_fract_y
_atom_site_fract_z
_atom_type_partial_charge
O1    O     O_R   0.500000 0.319640 0.618810 -0.535768
O2    O     O_R   0.500010 0.319680 0.381230 -0.525547
C1    C     C_R   0.498975 0.262642 0.499089 0.837569
O3    O     O_R   0.370250 0.499950 0.618800 -0.591572
O4    O     O_R   0.370260 0.499990 0.381220 -0.567240
C2    C     C_R   0.329400 0.500379 0.499896 0.824244
Cu1   Cu    Cu3+1 0.500000 0.499980 0.640670 1.015599
Cu2   Cu    Cu3+1 0.500000 0.500020 0.359330 1.035138
O5    O     O_R   0.499990 0.680320 0.618770 -0.593411
O6    O     O_R   0.500000 0.680360 0.381190 -0.607418
O7    O     O_R   0.629740 0.500010 0.618780 -0.600330
O8    O     O_R   0.629750 0.500050 0.381200 -0.564406
C3    C     C_R   0.499018 0.736784 0.500074 0.856051
C4    C     C_R   0.670534 0.500590 0.499974 0.785882
C5    C     C_R   0.811531 0.618544 0.487160 -0.089335
C6    C     C_R   0.766583 0.505954 0.499675 -0.158495
C7    C     C_R   0.812303 0.395280 0.507144 -0.080512
C8    C     C_R   0.904928 0.392317 0.500467 -0.007300
C9    C     C_R   0.952310 0.504584 0.499240 0.020598
C10   C     C_R   0.905602 0.618219 0.494848 0.113565
C11   C     C_R   0.951210 0.279660 0.498218 0.319509
C12   C     C_R   0.043897 0.279729 0.500598 -0.183526
C13   C     C_R   0.092713 0.389766 0.505502 0.035279
C14   C     C_R   0.046453 0.503286 0.502863 0.047741
C15   C     C_R   0.093885 0.615662 0.502655 0.047999
C16   C     C_R   0.046280 0.726768 0.503637 -0.185922
C17   C     C_R   0.954239 0.727899 0.502206 -0.077748
C18   C     C_R   0.186708 0.389018 0.507492 -0.070793
C19   C     C_R   0.232749 0.501294 0.499266 -0.144467
C20   C     C_R   0.187541 0.614665 0.498566 -0.049596
H1    H     H_    0.774180 0.311529 0.517414 0.214258
H2    H     H_    0.076894 0.191822 0.493222 0.215371
H3    H     H_    0.079231 0.814881 0.505193 0.168765
H4    H     H_    0.922448 0.816463 0.509689 0.235302
C21   C     C_R   0.504651 0.061916 0.616608 -0.013949
C22   C     C_R   0.496471 0.129326 0.494944 -0.196326
C23   C     C_R   0.484768 0.061349 0.369220 0.322753
C24   C     C_R   0.484671 0.932477 0.372603 -0.185431
H5    H     H_    0.476450 0.882892 0.275604 0.187381
C25   C     C_R   0.496194 0.868832 0.498679 -0.088831
C26   C     C_R   0.505039 0.937907 0.618967 0.050805
C27   C     C_3   0.517425 0.930046 0.773611 -0.368384
C28   C     C_3   0.519325 0.072724 0.769888 0.501825
H6    H     H_    0.458190 0.889664 0.825395 0.163917
C29   C     C_R   0.575368 0.472321 0.073276 0.238291
N1    N     N_R   0.500570 0.500930 0.147930 -0.238449
C30   C     C_R   0.424326 0.523386 0.073885 -0.028383
H7    H     H_    0.363130 0.544183 0.127872 0.173852
C31   C     C_R   0.424419 0.524039 0.925955 -0.019377
H8    H     H_    0.363331 0.545511 0.871882 0.156592
N2    N     N_R   0.500570 0.500890 0.852020 -0.209392
C32   C     C_R   0.575178 0.469709 0.926134 0.298341
C33   C     C_3   0.664175 0.532331 0.918493 -0.440862
C34   C     C_3   0.664312 0.536465 0.077876 0.113575
H9    H     H_    0.658857 0.623600 0.867698 0.152520
C35   C     C_2   0.758303 0.732581 0.463579 0.481164
H10   H     H_    0.691063 0.739176 0.503165 0.067820
O9    O     O_2   0.786187 0.816745 0.392259 -0.434523
C36   C     C_2   0.603212 0.870660 0.819387 0.481765
H11   H     H_    0.613311 0.852075 0.929008 0.100346
O10   O     O_2   0.662191 0.846124 0.736606 -0.525609
N3    N     N_R   0.444011 0.131531 0.840737 0.139496
O11   O     O_R   0.455625 0.231700 0.912062 -0.267788
O12   O     O_R   0.363469 0.090586 0.822689 -0.306691
N4    N     N_R   0.605848 0.127476 0.805359 0.153471
O13   O     O_R   0.659488 0.165472 0.708217 -0.307458
O14   O     O_R   0.633805 0.125467 0.933418 -0.220604
C37   C     C_2   0.737815 0.456000 0.855552 0.618661
H12   H     H_    0.791648 0.501709 0.801383 0.047432
O15   O     O_2   0.740081 0.344772 0.869376 -0.410175
N5    N     N_R   0.734832 0.461952 0.143098 0.174818
O16   O     O_R   0.816138 0.502811 0.147552 -0.298220
O17   O     O_R   0.718735 0.351062 0.186830 -0.241787
C38   C     C_2   0.661348 0.666267 0.132782 0.336415
H13   H     H_    0.601344 0.703161 0.178752 0.073858
O18   O     O_2   0.726121 0.732886 0.121003 -0.432020
N6    N     N_R   0.905604 0.164015 0.488926 0.138825
O19   O     O_R   0.847869 0.145220 0.390168 -0.252119
O20   O     O_R   0.933053 0.071097 0.562389 -0.320281
C39   C     C_2   0.238897 0.272878 0.519207 0.403280
H14   H     H_    0.297610 0.259145 0.455360 0.061163
O21   O     O_2   0.219756 0.195117 0.605478 -0.480837
C40   C     C_2   0.238514 0.731859 0.495600 0.344689
H15   H     H_    0.223198 0.804724 0.568821 0.099737
O22   O     O_2   0.296638 0.748664 0.409128 -0.533057
N7    N     N_R   0.473272 0.119611 0.237293 0.134824
O23   O     O_R   0.541680 0.168823 0.176445 -0.234326
O24   O     O_R   0.401786 0.097730 0.165063 -0.302223

loop_
_geom_bond_atom_site_label_1
_geom_bond_atom_site_label_2
_geom_bond_distance
_ccdc_geom_bond_type
C8    C11   1.409993 A    
C26   C27   1.500007 S    
C9    C10   1.422909 A    
Cu1   Cu2   2.703531 S    
C30   C31   1.421557 A    
N6    O19   1.301463 A    
Cu1   O7    1.961244 S    
C16   C17   1.383267 A    
N3    O11   1.299910 A    
C12   H2    1.080117 S    
C40   H15   1.084768 S    
C22   C23   1.427194 A    
C24   H5    1.083843 S    
O7    C4    1.296403 A    
N7    O24   1.300609 A    
C5    C6    1.406517 A    
C35   H10   1.082323 S    
C8    C9    1.416243 A    
C20   C40   1.490228 S    
C33   C37   1.509797 S    
O5    C3    1.296606 A    
C3    C25   1.439262 S    
N3    O12   1.301941 A    
C34   C38   1.509403 S    
C34   N5    1.473875 S    
C21   C22   1.386642 A    
C6    C7    1.388783 A    
C31   N2    1.370529 A    
C13   C14   1.418097 A    
C19   C20   1.408803 A    
C21   C28   1.493684 S    
C28   N4    1.470924 S    
N6    O20   1.301216 A    
C36   H11   1.083411 S    
C11   C12   1.393065 A    
C27   H6    1.111820 S    
O3    Cu1   1.960966 S    
C21   C26   1.351259 A    
C33   H9    1.110940 S    
C17   H4    1.078402 S    
C5    C10   1.415544 A    
C36   O10   1.220661 D    
C38   H13   1.081265 S    
N2    C32   1.370257 A    
C23   N7    1.428659 S    
C14   C15   1.417591 A    
C39   O21   1.220879 D    
N5    O17   1.302646 A    
N7    O23   1.299895 A    
C37   H12   1.084467 S    
C29   C32   1.414208 A    
N4    O14   1.300135 A    
C15   C16   1.405183 A    
C29   N1    1.369425 A    
O1    C1    1.306797 A    
C23   C24   1.404426 A    
C16   H3    1.080890 S    
C30   H7    1.079939 S    
Cu2   O8    1.960965 S    
C7    C8    1.393841 A    
C13   C18   1.412676 A    
C38   O18   1.220477 D    
O3    C2    1.296557 A    
C25   C26   1.384938 A    
C40   O22   1.220342 D    
O8    C4    1.294990 A    
C29   C34   1.509792 S    
C31   H8    1.079911 S    
C7    H1    1.082757 S    
C4    C6    1.444693 S    
C27   C28   1.555185 S    
C32   C33   1.504197 S    
C15   C20   1.408070 A    
Cu1   O5    1.976222 S    
N1    C30   1.370027 A    
C18   C19   1.408570 A    
O1    Cu1   1.975694 S    
Cu2   O6    1.975694 S    
O2    Cu2   1.976222 S    
C39   H14   1.085251 S    
O6    C3    1.296758 A    
C27   C36   1.507061 S    
O4    Cu2   1.961247 S    
C33   C34   1.532195 S    
C10   C17   1.403343 A    
C5    C35   1.494032 S    
O2    C1    1.292591 A    
Cu1   N2    2.030985 S    
N5    O16   1.301698 A    
C24   C25   1.407044 A    
O4    C2    1.295745 A    
C1    C22   1.453475 S    
C35   O9    1.220339 D    
C9    C14   1.415225 A    
C18   C39   1.491987 S    
Cu2   N1    2.031506 S    
C2    C19   1.452488 S    
C37   O15   1.219626 D    
N4    O13   1.302271 A    
C11   N6    1.437786 S    
C12   C13   1.407102 A    
C28   N3    1.467429 S    
