data_mof_unit_47081.cif
_audit_creation_date              2012-10-26T20:20:45-0400
_audit_creation_method            fapswitch 2.2
_symmetry_space_group_name_H-M    P1
_symmetry_Int_Tables_number       1
_space_group_crystal_system       triclinic
_cell_length_a                    8.799442
_cell_length_b                    10.79503
_cell_length_c                    9.529276
_cell_angle_alpha                 90.315879
_cell_angle_beta                  97.906518
_cell_angle_gamma                 90.254964
_cell_volume                      896.557315633

loop_
_atom_site_label
_atom_site_type_symbol
_atom_type_description
_atom_site_fract_x
_atom_site_fract_y
_atom_site_fract_z
_atom_type_partial_charge
C1    C     C_R   0.495225 0.262345 0.499016 0.526111
C2    C     C_R   0.402289 0.060979 0.583696 0.228884
C3    C     C_R   0.508629 0.871576 0.502545 -0.028948
C4    C     C_R   0.491364 0.128424 0.497454 -0.028946
C5    C     C_R   0.402689 0.423436 0.061976 0.354425
C6    C     C_R   0.597311 0.576564 0.938024 0.354425
C7    C     C_R   0.403389 0.423997 0.912402 0.000664
C8    C     C_R   0.596611 0.576003 0.087598 0.000665
C9    C     C_R   0.504773 0.737654 0.500984 0.526113
C10   C     C_R   0.204204 0.502808 0.464131 0.563932
C11   C     C_R   0.795796 0.497192 0.535869 0.563932
C12   C     C_2   0.038993 0.516644 0.446420 0.244933
C13   C     C_2   0.961006 0.483356 0.553580 0.244933
C14   C     C_R   0.585475 0.066937 0.412950 -0.080566
C15   C     C_R   0.414517 0.933062 0.587047 -0.080563
C16   C     C_R   0.597703 0.939020 0.416301 0.228878
Cu1   Cu    Cu3+1 0.500000 0.500020 0.640660 1.049891
Cu2   Cu    Cu3+1 0.500000 0.499980 0.359340 1.049898
H1    H     H_    0.326807 0.363388 0.844684 0.158271
H2    H     H_    0.757114 0.702502 0.952722 0.311727
H3    H     H_    0.673193 0.636612 0.155316 0.158280
H4    H     H_    0.039953 0.597731 0.262941 0.341631
H5    H     H_    0.960047 0.402270 0.737059 0.341632
H6    H     H_    0.655206 0.119016 0.348348 0.170062
H7    H     H_    0.344786 0.880983 0.651648 0.170061
H8    H     H_    0.732242 0.803719 0.379006 0.346583
H9    H     H_    0.267773 0.196290 0.621016 0.346593
H10   H     H_    0.242886 0.297498 0.047278 0.311727
N1    N     N_R   0.500040 0.500030 0.852080 -0.224440
N2    N     N_R   0.499960 0.499970 0.147920 -0.224441
O1    O     O_R   0.499990 0.319660 0.618740 -0.508808
O2    O     O_3   0.035968 0.429833 0.675948 -0.726955
O3    O     O_3   0.700417 0.884955 0.337528 -0.677340
O4    O     O_3   0.299573 0.115042 0.662468 -0.677352
O5    O     O_3   0.305292 0.346360 0.122891 -0.640068
O6    O     O_3   0.694708 0.653640 0.877109 -0.640069
O7    O     O_R   0.500010 0.680340 0.381260 -0.508792
O8    O     O_R   0.499990 0.319630 0.381170 -0.461805
O9    O     O_R   0.500010 0.680370 0.618830 -0.461807
O10   O     O_R   0.274840 0.500010 0.591370 -0.474911
O11   O     O_R   0.725160 0.499990 0.408630 -0.474908
O12   O     O_R   0.274830 0.499980 0.353800 -0.473288
O13   O     O_R   0.725170 0.500020 0.646200 -0.473287
O14   O     O_3   0.964032 0.570167 0.324052 -0.726955

loop_
_geom_bond_atom_site_label_1
_geom_bond_atom_site_label_2
_ccdc_geom_bond_type
C2    C4    A    
Cu1   O13   S    
C11   O13   A    
Cu2   N2    S    
C16   O3    S    
C10   O12   A    
Cu1   N1    S    
C13   O2    S    
C9    O9    A    
C1    C4    S    
C8    N2    A    
H5    O2    S    
C2    O4    S    
C9    O7    A    
Cu1   Cu2   S    
Cu2   O8    S    
C12   O14   S    
C2    C15   A    
C11   C13   S    
C10   C12   S    
C1    O8    A    
C7    N1    A    
C5    O5    S    
C3    C9    S    
Cu2   O7    S    
C6    O6    S    
C8    H3    S    
C7    H1    S    
Cu2   O12   S    
H9    O4    S    
C4    C14   A    
Cu1   O1    S    
C14   C16   A    
C15   H7    S    
H2    O6    S    
C1    O1    A    
C6    N1    A    
C3    C15   A    
C12   C13   D    
C10   O10   A    
C5    N2    A    
Cu1   O9    S    
C11   O11   A    
C14   H6    S    
C5    C7    A    
C6    C8    A    
H8    O3    S    
H4    O14   S    
C3    C16   A    
Cu2   O11   S    
H10   O5    S    
Cu1   O10   S    
