data_mof_unit_22654.cif
_audit_creation_date              2012-12-10T16:49:28-0500
_audit_creation_method            fapswitch 2.2
_symmetry_space_group_name_H-M    P1
_symmetry_Int_Tables_number       1
_space_group_crystal_system       triclinic
_cell_length_a                    19.334601
_cell_length_b                    8.73376
_cell_length_c                    7.436942
_cell_angle_alpha                 102.853355
_cell_angle_beta                  94.487459
_cell_angle_gamma                 92.430748
_cell_volume                      1218.29516217

loop_
_atom_site_label
_atom_site_type_symbol
_atom_type_description
_atom_site_fract_x
_atom_site_fract_y
_atom_site_fract_z
_atom_type_partial_charge
C1    C     C_R   0.497945 0.200071 0.453645 0.815143
C2    C     C_R   0.502055 0.799929 0.546355 0.815142
C3    C     C_2   0.497058 0.033087 0.427100 0.273913
C4    C     C_2   0.502942 0.966913 0.572900 0.273913
C5    C     C_R   0.367489 0.500026 0.501861 0.768474
C6    C     C_R   0.632511 0.499974 0.498138 0.768474
C7    C     C_R   0.260248 0.509770 0.669795 -0.176491
C8    C     C_R   0.739752 0.490230 0.330205 -0.176491
C9    C     C_R   0.188115 0.509793 0.669555 -0.152102
C10   C     C_R   0.811885 0.490207 0.330445 -0.152102
C11   C     C_R   0.146317 0.500963 0.503680 0.058230
C12   C     C_R   0.853682 0.499036 0.496319 0.058230
C13   C     C_R   0.177913 0.492275 0.338458 -0.155010
C14   C     C_R   0.822087 0.507725 0.661542 -0.155010
C15   C     C_R   0.249784 0.492103 0.338696 -0.173232
C16   C     C_R   0.750216 0.507897 0.661304 -0.173233
C17   C     C_R   0.291614 0.500745 0.504178 -0.019726
C18   C     C_R   0.708386 0.499255 0.495822 -0.019726
C19   C     C_R   0.929839 0.499438 0.497972 0.413861
C20   C     C_R   0.070161 0.500562 0.502028 0.413861
Cu1   Cu    Cu3+1 0.507710 0.517380 0.684380 1.030245
Cu2   Cu    Cu3+1 0.492290 0.482620 0.315620 1.030245
H1    H     H_    0.291314 0.516419 0.799294 0.154054
H2    H     H_    0.708685 0.483581 0.200706 0.154054
H3    H     H_    0.165228 0.516599 0.799222 0.151125
H4    H     H_    0.834772 0.483401 0.200778 0.151126
H5    H     H_    0.147231 0.485468 0.208384 0.156586
H6    H     H_    0.852769 0.514532 0.791616 0.156586
H7    H     H_    0.272472 0.485298 0.208715 0.154693
H8    H     H_    0.727528 0.514702 0.791285 0.154693
H9    H     H_    0.445133 0.379664 0.948520 0.244831
H10   H     H_    0.554867 0.620336 0.051480 0.244831
N1    N     N_R   0.029998 0.492237 0.341631 -0.229708
N2    N     N_R   0.970002 0.507763 0.658369 -0.229708
N3    N     N_R   0.961182 0.491695 0.339580 -0.232525
N4    N     N_R   0.038818 0.508305 0.660420 -0.232525
N5    N     N_2   0.480680 0.456420 0.038530 -0.184997
N6    N     N_2   0.519320 0.543580 0.961470 -0.184997
O1    O     O_R   0.505010 0.286130 0.619770 -0.556614
O2    O     O_R   0.494990 0.713870 0.380230 -0.556614
O3    O     O_R   0.491990 0.256780 0.308370 -0.522675
O4    O     O_R   0.508010 0.743220 0.691630 -0.522675
O5    O     O_R   0.406650 0.514660 0.655750 -0.594606
O6    O     O_R   0.593350 0.485340 0.344250 -0.594606
O7    O     O_R   0.393640 0.485310 0.344340 -0.590610
O8    O     O_R   0.606360 0.514690 0.655660 -0.590610
F1    F     F_    0.490172 0.946752 0.248999 -0.632858
F2    F     F_    0.509828 0.053248 0.751001 -0.632858

loop_
_geom_bond_atom_site_label_1
_geom_bond_atom_site_label_2
_ccdc_geom_bond_type
C2    C4    S    
C15   C17   A    
N5    N6    D    
C8    H2    S    
H10   N6    S    
C11   C13   A    
Cu1   O1    S    
Cu2   O2    S    
C10   H4    S    
C8    C18   A    
C5    O5    A    
C9    H3    S    
C19   N3    A    
Cu1   Cu2   S    
C9    C11   A    
C10   C12   A    
C2    O4    A    
C7    H1    S    
C20   N1    A    
C12   C19   S    
C1    O3    A    
N1    N3    A    
C12   C14   A    
C15   H7    S    
N2    N4    A    
C13   C15   A    
C6    C18   S    
C14   C16   A    
C11   C20   S    
Cu2   O3    S    
C5    C17   S    
C1    O1    A    
C16   H8    S    
C3    C4    D    
C20   N4    A    
C2    O2    A    
Cu2   O7    S    
C16   C18   A    
Cu1   O8    S    
C4    F2    S    
C3    F1    S    
C7    C9    A    
C13   H5    S    
C6    O6    A    
C6    O8    A    
C14   H6    S    
Cu1   O5    S    
Cu2   N5    S    
C5    O7    A    
C8    C10   A    
Cu2   O6    S    
Cu1   N6    S    
Cu1   O4    S    
H9    N5    S    
C1    C3    S    
C19   N2    A    
C7    C17   A    
