data_mof_unit_23501.cif
_audit_creation_date              2012-12-11T14:23:16-0500
_audit_creation_method            fapswitch 2.2
_symmetry_space_group_name_H-M    P1
_symmetry_Int_Tables_number       1
_space_group_crystal_system       triclinic
_cell_length_a                    11.171926
_cell_length_b                    11.217119
_cell_length_c                    18.642188
_cell_angle_alpha                 90.117423
_cell_angle_beta                  90.048747
_cell_angle_gamma                 61.521874
_cell_volume                      2053.49586048

loop_
_atom_site_label
_atom_site_type_symbol
_atom_type_description
_atom_site_fract_x
_atom_site_fract_y
_atom_site_fract_z
_atom_type_partial_charge
C1    C     C_R   0.244567 0.641825 0.612030 0.575723
C2    C     C_R   0.603201 0.082300 0.693983 0.287132
C3    C     C_R   0.609532 0.086940 0.768752 -0.071488
C4    C     C_R   0.632884 0.591587 0.608524 0.630011
C5    C     C_R   0.920206 0.119514 0.796635 0.009583
C6    C     C_R   0.993800 0.165971 0.754020 0.366433
C7    C     C_R   0.979497 0.172022 0.678909 0.420545
C8    C     C_R   0.909245 0.109465 0.648204 -0.022092
C9    C     C_R   0.692330 0.113954 0.655748 -0.035562
C10   C     C_R   0.204410 0.671729 0.841405 -0.068386
C11   C     C_R   0.244110 0.545268 0.809581 -0.101570
C12   C     C_3   0.691470 0.521627 0.812622 0.089034
C13   C     C_R   0.230055 0.538457 0.733938 -0.050015
C14   C     C_R   0.198634 0.771416 0.725220 0.244757
C15   C     C_R   0.203945 0.778671 0.800087 0.243886
C16   C     C_R   0.632942 0.215591 0.596528 0.537329
C17   C     C_R   0.286600 0.427453 0.852762 0.261938
C18   C     C_R   0.291985 0.311940 0.823255 -0.087551
C19   C     C_R   0.265602 0.307394 0.751126 -0.096527
C20   C     C_R   0.229343 0.419860 0.706544 0.295915
C21   C     C_R   0.213194 0.651994 0.690705 -0.047431
C22   C     C_R   0.673065 0.673268 0.173020 0.038586
C23   C     C_3   0.693113 0.659651 0.818678 0.014768
C24   C     C_R   0.729025 0.539215 0.201565 -0.015783
C25   C     C_R   0.761133 0.523361 0.274933 -0.029529
C26   C     C_R   0.641192 0.763474 0.294129 -0.145774
C27   C     C_R   0.654605 0.779295 0.220881 0.275977
C28   C     C_R   0.283108 0.625797 0.392900 0.548387
C29   C     C_R   0.785589 0.422524 0.157310 0.237914
C30   C     C_R   0.906830 0.309069 0.178857 -0.102844
C31   C     C_R   0.953535 0.297284 0.249150 0.216573
C32   C     C_R   0.886051 0.408679 0.296664 0.247769
C33   C     C_R   0.681820 0.636881 0.320476 -0.022312
C34   C     C_3   0.657271 0.615309 0.684798 0.090429
C35   C     C_R   0.634032 0.200851 0.163824 0.040553
C36   C     C_R   0.498960 0.267243 0.189072 0.066260
C37   C     C_R   0.475556 0.291441 0.263997 0.020914
C38   C     C_R   0.711737 0.231407 0.278723 -0.178454
C39   C     C_R   0.738221 0.185136 0.209438 -0.178961
C40   C     C_R   0.646088 0.618613 0.393294 0.559312
C41   C     C_R   0.388267 0.298457 0.142482 -0.070538
C42   C     C_R   0.263585 0.323274 0.169842 -0.046517
C43   C     C_R   0.245197 0.329986 0.243385 -0.051812
C44   C     C_R   0.345632 0.323326 0.289750 -0.135796
C45   C     C_3   0.789828 0.630406 0.691797 0.472780
C46   C     C_R   0.585395 0.275565 0.309337 -0.013928
C47   C     C_R   0.165949 0.665336 0.176941 0.076749
C48   C     C_R   0.259683 0.710696 0.197312 0.016575
C49   C     C_R   0.280120 0.721121 0.270582 -0.085454
C50   C     C_R   0.138878 0.616475 0.299285 -0.162878
C51   C     C_R   0.099913 0.626464 0.228345 0.157965
C52   C     C_R   0.577818 0.295911 0.388094 0.536071
C53   C     C_R   0.317719 0.763587 0.147186 0.217994
C54   C     C_R   0.350186 0.864057 0.169843 -0.059648
C55   C     C_R   0.348501 0.895630 0.242267 0.288180
C56   C     C_3   0.653030 0.505926 0.734693 0.087839
C57   C     C_R   0.328303 0.812032 0.292081 -0.143631
C58   C     C_R   0.237219 0.651360 0.319528 -0.017972
C59   C     C_R   0.722931 0.054638 0.887481 0.569361
C60   C     C_R   0.720934 0.684703 0.891753 0.566202
C61   C     C_R   0.120700 0.708056 0.907483 0.569760
C62   C     C_R   0.672630 0.114642 0.099902 0.578076
C63   C     C_R   0.699817 0.691009 0.098080 0.633778
C64   C     C_3   0.552671 0.767291 0.792304 0.047315
C65   C     C_R   0.097211 0.708261 0.109609 0.641537
C66   C     C_3   0.538969 0.744606 0.713105 -0.287626
C67   C     C_R   0.720978 0.080222 0.807146 -0.058179
C68   C     C_3   0.802770 0.667517 0.770258 -0.188680
C69   C     C_3   0.519225 0.012735 0.593963 -0.070666
C70   C     C_3   0.035760 0.223132 0.564271 -0.097379
C71   C     C_3   0.250386 0.933708 0.679306 -0.072605
C72   C     C_3   0.256884 0.904538 0.885161 -0.099488
C73   C     C_3   0.767227 0.903018 0.237215 -0.089267
C74   C     C_3   0.044303 0.107033 0.320769 -0.135794
C75   C     C_3   0.376964 0.037350 0.331415 -0.091080
C76   C     C_3   0.897353 0.741491 0.633846 -0.039017
C77   C     C_R   0.824400 0.087594 0.765767 -0.052795
C78   C     C_R   0.814650 0.091493 0.689147 -0.079169
Cr1   Cr    Cr6+3 0.392940 0.397950 0.502230 0.992296
Cr2   Cr    Cr6+3 0.398400 0.708500 0.501260 0.945047
Cr3   Cr    Cr6+3 0.708640 0.393530 0.496460 1.010106
Cr4   Cr    Cr6+3 0.937880 0.938320 0.007620 1.012126
Cr5   Cr    Cr6+3 0.625560 0.937220 0.994510 1.042473
Cr6   Cr    Cr6+3 0.938080 0.625010 0.001190 1.076935
H1    H     H_    0.908286 0.602825 0.790168 0.103364
H2    H     H_    0.449942 0.728712 0.708159 0.059568
H3    H     H_    0.794073 0.217908 0.311510 0.146653
H4    H     H_    0.398683 0.299212 0.084799 0.159412
H5    H     H_    0.843428 0.124084 0.194034 0.132457
H6    H     H_    0.180364 0.340248 0.134227 0.147739
H7    H     H_    0.147611 0.355390 0.264667 0.174745
H8    H     H_    0.317745 0.341235 0.345244 0.154099
H9    H     H_    0.092842 0.579825 0.338663 0.156842
H10   H     H_    0.529598 0.831666 0.683026 0.212315
H11   H     H_    0.378848 0.917422 0.130904 0.143530
H12   H     H_    0.930277 0.123531 0.853709 0.174448
H13   H     H_    0.337756 0.827347 0.346942 0.171063
H14   H     H_    0.788311 0.772771 0.772957 0.163758
H15   H     H_    0.609030 0.526765 0.848249 0.129235
H16   H     H_    0.544878 0.523904 0.736518 0.046536
H17   H     H_    0.442649 0.962339 0.785351 0.314981
H18   H     H_    0.682876 0.328263 0.724166 0.322637
H19   H     H_    0.924997 0.442125 0.710494 0.376519
H20   H     H_    0.475395 0.943740 0.589671 0.111197
H21   H     H_    0.628704 0.956179 0.579505 0.152853
H22   H     H_    0.461585 0.086375 0.551322 0.141371
H23   H     H_    0.521573 0.102673 0.797910 0.181024
H24   H     H_    0.084182 0.191609 0.837413 0.317325
H25   H     H_    0.930586 0.269249 0.543256 0.184837
H26   H     H_    0.094456 0.115071 0.547703 0.056309
H27   H     H_    0.084937 0.277781 0.538688 0.140608
H28   H     H_    0.287189 0.946742 0.731556 0.155147
H29   H     H_    0.214814 0.029664 0.652715 0.154159
H30   H     H_    0.326728 0.876111 0.638724 0.144263
H31   H     H_    0.356640 0.489644 0.931634 0.326803
H32   H     H_    0.313798 0.956828 0.868330 0.122208
H33   H     H_    0.325759 0.802154 0.907269 0.108871
H34   H     H_    0.913185 0.090587 0.591159 0.100599
H35   H     H_    0.192898 0.968892 0.929827 0.146404
H36   H     H_    0.209438 0.324733 0.624554 0.353160
H37   H     H_    0.778540 0.335490 0.068090 0.327563
H38   H     H_    0.716110 0.988650 0.275066 0.130469
H39   H     H_    0.835592 0.918653 0.200167 0.154084
H40   H     H_    0.835613 0.814099 0.270162 0.110044
H41   H     H_    0.980310 0.170501 0.365769 0.113777
H42   H     H_    0.138805 0.034560 0.347345 0.132586
H43   H     H_    0.002256 0.045364 0.295319 0.124302
H44   H     H_    0.041761 0.338232 0.363425 0.318950
H45   H     H_    0.475313 0.753753 0.822201 0.103676
H46   H     H_    0.377650 0.767373 0.049475 0.310536
H47   H     H_    0.955611 0.584455 0.251577 0.326542
H48   H     H_    0.452569 0.073820 0.337601 0.156620
H49   H     H_    0.410124 0.955742 0.371381 0.070226
H50   H     H_    0.277751 0.123394 0.346442 0.138300
H51   H     H_    0.968539 0.654885 0.600200 0.223755
H52   H     H_    0.945292 0.745551 0.685197 0.117234
H53   H     H_    0.874752 0.835113 0.603884 0.105837
H54   H     H_    0.889588 0.420481 0.823217 0.359247
H55   H     H_    0.317856 0.224075 0.856661 0.144987
H56   H     H_    0.269979 0.215816 0.729777 0.199765
H57   H     H_    0.621387 0.843963 0.331550 0.120169
H58   H     H_    0.960823 0.225274 0.142107 0.117477
O1    O     O_R   0.507340 0.255690 0.581430 -0.492333
O2    O     O_R   0.837290 0.593240 0.915240 -0.511035
O3    O     O_R   0.065320 0.635310 0.931580 -0.478288
O4    O     O_R   0.280360 0.527380 0.578910 -0.441519
O5    O     O_R   0.068470 0.828620 0.091850 -0.517452
O6    O     O_R   0.799150 0.057200 0.079350 -0.529710
O7    O     O_R   0.585220 0.080180 0.076770 -0.480049
O8    O     O_R   0.627170 0.809480 0.067050 -0.501048
O9    O     O_R   0.816200 0.596410 0.076500 -0.458462
O10   O     O_R   0.045770 0.638240 0.081070 -0.451655
O11   O     O_3   0.833840 0.833520 0.001110 -0.301645
O12   O     O_R   0.524510 0.695820 0.424050 -0.551365
O13   O     O_R   0.260600 0.739610 0.584580 -0.502470
O14   O     O_R   0.532370 0.695050 0.573830 -0.554049
O15   O     O_R   0.744850 0.503430 0.576380 -0.412308
O16   O     O_R   0.699080 0.276500 0.571950 -0.513420
O17   O     O_R   0.498860 0.256520 0.419860 -0.568152
O18   O     O_R   0.272490 0.528150 0.429140 -0.522577
O19   O     O_R   0.252110 0.740440 0.423010 -0.538904
O20   O     O_3   0.533962 0.897534 0.803175 -0.703171
O21   O     O_3   0.731615 0.377336 0.708303 -0.674662
O22   O     O_3   0.905383 0.508883 0.671918 -0.584643
O23   O     O_R   0.736370 0.504260 0.414810 -0.456117
O24   O     O_3   0.491624 0.076301 0.662927 -0.600041
O25   O     O_3   0.081130 0.205595 0.784812 -0.746684
O26   O     O_3   0.037590 0.237984 0.639643 -0.552874
O27   O     O_3   0.150639 0.890760 0.685808 -0.560405
O28   O     O_3   0.327619 0.419949 0.923300 -0.682713
O29   O     O_3   0.170829 0.905999 0.828654 -0.558825
O30   O     O_3   0.174127 0.419864 0.640606 -0.630131
O31   O     O_3   0.725621 0.424625 0.092049 -0.675052
O32   O     O_3   0.666667 0.889578 0.196715 -0.512449
O33   O     O_3   0.072083 0.181311 0.268086 -0.579687
O34   O     O_R   0.691220 0.277270 0.422180 -0.527723
O35   O     O_3   0.952889 0.420310 0.356867 -0.707614
O36   O     O_3   0.335473 0.720865 0.076488 -0.692324
O37   O     O_3   0.996991 0.598615 0.208027 -0.709634
O38   O     O_3   0.378602 0.000818 0.258293 -0.511472
O39   O     O_3   0.774447 0.737221 0.644969 -0.572879
O40   O     O_3   0.810654 0.408540 0.836475 -0.677218
O41   O     O_3   0.499990 0.499990 0.499980 -0.325547
O42   O     O_R   0.089570 0.825450 0.930590 -0.498570
O43   O     O_R   0.818700 0.054260 0.929860 -0.513488
O44   O     O_R   0.606310 0.077010 0.915520 -0.493477
O45   O     O_R   0.646730 0.806540 0.917560 -0.474034

loop_
_geom_bond_atom_site_label_1
_geom_bond_atom_site_label_2
_ccdc_geom_bond_type
C7    O26   S    
C34   C56   S    
C62   O7    A    
C46   C52   S    
C55   O38   S    
C19   C20   A    
C67   C77   A    
Cr3   O23   S    
Cr5   O45   S    
C53   O36   S    
C34   C66   S    
Cr4   O5    S    
C76   H52   S    
C75   H50   S    
C8    H34   S    
C7    C8    A    
C31   O33   S    
C53   C54   A    
C1    C21   S    
C56   O21   S    
H19   O22   S    
C14   C21   A    
C47   C65   S    
C36   C37   A    
C9    C16   S    
C10   C15   A    
C14   O27   S    
Cr1   O17   S    
C30   C31   A    
C74   H41   S    
Cr6   O2    S    
Cr4   O42   S    
C28   O18   A    
C49   C57   A    
C71   H29   S    
C59   O44   A    
C18   C19   A    
C41   C42   A    
Cr2   O41   S    
C73   O32   S    
C1    O13   A    
C61   O3    A    
C69   O24   S    
C12   H15   S    
H46   O36   S    
C59   C67   S    
C22   C63   S    
C54   C55   A    
Cr4   O11   S    
Cr1   O1    S    
C74   H43   S    
H37   O31   S    
C19   H56   S    
C73   H39   S    
C72   H33   S    
C71   O27   S    
Cr5   O44   S    
C65   O5    A    
C26   H57   S    
C70   H26   S    
C2    O24   S    
C44   H8    S    
C77   C78   A    
C66   H10   S    
Cr5   O8    S    
C52   O17   A    
C62   O6    A    
C8    C78   A    
C68   H1    S    
C40   O12   A    
C36   C41   A    
C23   C60   S    
H31   O28   S    
C51   O37   S    
C27   O32   S    
C76   H51   S    
C40   O23   A    
C28   O19   A    
Cr2   O14   S    
Cr1   O4    S    
C48   C53   A    
C4    C34   S    
C33   C40   S    
Cr3   O15   S    
Cr4   O43   S    
C16   O16   A    
C50   C58   A    
C72   O29   S    
C16   O1    A    
C38   C39   A    
C24   C25   A    
C64   O20   S    
C70   H27   S    
Cr1   O18   S    
C69   H21   S    
C17   O28   S    
H18   O21   S    
C47   C51   A    
C3    H23   S    
C76   H53   S    
C4    O15   A    
C43   H7    S    
C49   C58   A    
C71   H30   S    
C42   H6    S    
C35   C36   A    
C64   C66   S    
C23   C68   S    
C35   C39   A    
C43   C44   A    
Cr3   O34   S    
C63   O8    A    
C29   C30   A    
C70   H25   S    
C70   O26   S    
Cr6   O11   S    
C26   C33   A    
C47   C48   A    
C12   C23   S    
C73   H40   S    
C57   H13   S    
C71   H28   S    
C45   C68   S    
C17   C18   A    
C26   C27   A    
C15   O29   S    
C50   C51   A    
C34   C45   S    
C12   O40   S    
C75   O38   S    
C63   O9    A    
C54   H11   S    
C12   C56   S    
Cr6   O10   S    
C48   C49   A    
C4    O14   A    
H24   O25   S    
C74   H42   S    
Cr6   O3    S    
C22   C27   A    
C55   C57   A    
C22   C24   A    
C32   O35   S    
C10   C61   S    
C42   C43   A    
Cr3   O41   S    
C5    C77   A    
C76   O39   S    
C5    H12   S    
C75   H48   S    
Cr2   O13   S    
C69   H20   S    
C41   H4    S    
C52   O34   A    
C6    O25   S    
C23   C64   S    
C61   O42   A    
H47   O37   S    
Cr3   O16   S    
C13   C20   A    
C20   O30   S    
C45   O22   S    
C31   C32   A    
H36   O30   S    
C29   O31   S    
C11   C17   A    
C66   H2    S    
Cr4   O6    S    
C69   H22   S    
C75   H49   S    
C50   H9    S    
Cr2   O12   S    
C6    C7    A    
Cr5   O11   S    
C28   C58   S    
C60   O45   A    
C72   H32   S    
C30   H58   S    
C38   H3    S    
C37   C44   A    
C2    C3    A    
C74   O33   S    
C60   O2    A    
C11   C13   A    
C5    C6    A    
C3    C67   A    
C65   O10   A    
C72   H35   S    
Cr1   O41   S    
C59   O43   A    
C35   C62   S    
C9    C78   A    
C13   C21   A    
C18   H55   S    
H54   O40   S    
C68   H14   S    
Cr2   O19   S    
C38   C46   A    
C10   C11   A    
Cr6   O9    S    
C24   C29   A    
C1    O4    A    
C64   H45   S    
H17   O20   S    
C73   H38   S    
C45   O39   S    
C56   H16   S    
C14   C15   A    
H44   O35   S    
C37   C46   A    
C2    C9    A    
C39   H5    S    
C25   C33   A    
Cr5   O7    S    
C25   C32   A    
