data_mof_unit_60160.cif
_audit_creation_date              2013-03-05T16:19:23-0500
_audit_creation_method            fapswitch 2.2
_symmetry_space_group_name_H-M    P1
_symmetry_Int_Tables_number       1
_space_group_crystal_system       triclinic
_cell_length_a                    18.93993
_cell_length_b                    18.746025
_cell_length_c                    18.80963
_cell_angle_alpha                 109.292878
_cell_angle_beta                  109.738014
_cell_angle_gamma                 109.562275
_cell_volume                      5129.50067086

loop_
_atom_site_label
_atom_site_type_symbol
_atom_site_description
_atom_site_fract_x
_atom_site_fract_y
_atom_site_fract_z
_atom_type_partial_charge
O1    O     O_R   0.090180 0.947810 0.537990 -0.589036
O2    O     O_R   0.090150 0.052180 0.642350 -0.575129
C1    C     C_R   0.118543 0.999966 0.619047 0.774434
O3    O     O_R   0.090190 0.037990 0.447830 -0.570079
O4    O     O_R   0.090170 0.142360 0.552190 -0.580160
C2    C     C_R   0.120794 0.119053 0.502353 0.767803
Cu1   Cu    Cu3+1 0.000020 0.938200 0.438210 1.029785
Cu2   Cu    Cu3+1 0.999980 0.061800 0.561790 0.993424
O5    O     O_R   0.909850 0.947820 0.357650 -0.541805
O6    O     O_R   0.909820 0.052190 0.462010 -0.588031
O7    O     O_R   0.909830 0.857640 0.447810 -0.577865
O8    O     O_R   0.909810 0.962010 0.552170 -0.588753
C3    C     C_R   0.881149 0.999726 0.381270 0.785180
C4    C     C_R   0.881383 0.881151 0.499845 0.785067
H1    H     H_    0.124589 0.129753 0.366558 0.163953
C5    C     C_R   0.279800 0.259753 0.667315 -0.249476
H2    H     H_    0.237870 0.204646 0.668116 0.183447
C6    C     C_R   0.350336 0.332233 0.747244 0.373281
C7    C     C_R   0.405939 0.403714 0.747238 -0.162902
H3    H     H_    0.459601 0.461497 0.807952 0.193736
C8    C     C_R   0.393951 0.401314 0.669014 -0.170877
H4    H     H_    0.438140 0.458911 0.673142 0.179545
C9    C     C_R   0.325589 0.327013 0.588026 0.091845
C10   C     C_R   0.264625 0.257610 0.587457 0.031017
C11   C     C_R   0.190914 0.187094 0.506720 -0.069855
C12   C     C_R   0.181011 0.183528 0.428398 -0.195787
H5    H     H_    0.234395 0.244156 0.366978 0.161810
C13   C     C_R   0.242744 0.249409 0.428751 -0.212625
C14   C     C_R   0.315336 0.320553 0.507468 -0.083767
C15   C     C_R   0.262127 0.012583 0.686050 0.122068
C16   C     C_R   0.186347 0.002788 0.687340 -0.073702
C17   C     C_R   0.180633 0.004889 0.760571 -0.164111
H6    H     H_    0.124734 0.002512 0.765768 0.150587
C18   C     C_R   0.244738 0.004275 0.824830 -0.189568
H7    H     H_    0.237688 0.001757 0.878894 0.152884
C19   C     C_R   0.316231 0.004616 0.817524 -0.073834
C20   C     C_R   0.326630 0.014684 0.750794 0.181959
C21   C     C_3   0.345380 0.962996 0.687663 -0.499508
C22   C     C_3   0.274237 0.960543 0.616464 -0.459887
H8    H     H_    0.411150 0.002005 0.699233 0.217174
H9    H     H_    0.329574 0.897736 0.681527 0.189868
H10   H     H_    0.299019 0.998073 0.586976 0.207657
H11   H     H_    0.217008 0.893828 0.569043 0.215693
C23   C     C_R   0.745545 0.740824 0.424707 0.102936
C24   C     C_R   0.816232 0.814898 0.501073 -0.079919
C25   C     C_R   0.821271 0.824178 0.580502 -0.204460
H12   H     H_    0.875326 0.880627 0.642096 0.155732
C26   C     C_R   0.756656 0.759037 0.580457 -0.171528
H13   H     H_    0.762125 0.766342 0.641895 0.166833
C27   C     C_R   0.684919 0.685773 0.500958 -0.077550
C28   C     C_R   0.681965 0.680188 0.424590 0.099089
C29   C     C_3   0.631290 0.624792 0.327836 -0.448741
C30   C     C_3   0.703333 0.694646 0.327887 -0.406789
H14   H     H_    0.629081 0.560879 0.305447 0.212431
H15   H     H_    0.567640 0.621393 0.299091 0.213853
H16   H     H_    0.742060 0.670733 0.304737 0.225506
H17   H     H_    0.681470 0.732153 0.299874 0.205577
C31   C     C_R   0.814018 0.993070 0.240104 0.060017
C32   C     C_R   0.813364 0.998419 0.315127 -0.091819
C33   C     C_R   0.744408 0.003924 0.325059 -0.184499
H18   H     H_    0.740530 0.007760 0.382246 0.158606
C34   C     C_R   0.679048 0.003125 0.259798 -0.195952
H19   H     H_    0.626104 0.006587 0.267927 0.149116
C35   C     C_R   0.683828 0.999836 0.185633 -0.047336
C36   C     C_R   0.753247 0.995709 0.179209 0.070894
C37   C     C_3   0.792953 0.990189 0.122776 -0.530458
C38   C     C_3   0.863238 0.988392 0.192959 0.163970
H20   H     H_    0.750467 0.928509 0.058777 0.224997
H21   H     H_    0.817731 0.050865 0.119106 0.182387
H22   H     H_    0.929028 0.046925 0.229053 0.086396
O9    O     O_R   0.447770 0.590190 0.538000 -0.595818
O10   O     O_R   0.552150 0.590170 0.642370 -0.582381
C39   C     C_R   0.500637 0.619016 0.618946 0.880551
O11   O     O_R   0.357600 0.409850 0.447820 -0.593090
O12   O     O_R   0.461980 0.409830 0.552180 -0.591634
C40   C     C_R   0.381436 0.384010 0.503018 0.787019
Cu3   Cu    Cu3+1 0.438170 0.500030 0.438220 0.961951
Cu4   Cu    Cu3+1 0.561770 0.500000 0.561810 0.980694
O13   O     O_R   0.447790 0.409860 0.357660 -0.586233
O14   O     O_R   0.552170 0.409840 0.462020 -0.585581
O15   O     O_R   0.537960 0.590200 0.447840 -0.582744
O16   O     O_R   0.642340 0.590180 0.552210 -0.581041
C41   C     C_R   0.499823 0.381128 0.381202 0.801090
C42   C     C_R   0.618484 0.618503 0.499767 0.822047
O17   O     O_R   0.552220 0.142430 0.090190 -0.545797
O18   O     O_R   0.447830 0.038100 0.090230 -0.594574
C43   C     C_R   0.499931 0.118804 0.118204 0.779499
O19   O     O_R   0.462030 0.052220 0.909860 -0.559318
O20   O     O_R   0.357640 0.947890 0.909900 -0.586259
C44   C     C_R   0.381459 0.000460 0.881373 0.777381
Cu5   Cu    Cu3+1 0.561810 0.061820 0.000030 1.019467
Cu6   Cu    Cu3+1 0.438190 0.938280 0.000080 1.032027
O21   O     O_R   0.552170 0.962000 0.909870 -0.598840
O22   O     O_R   0.447780 0.857670 0.909910 -0.542057
O23   O     O_R   0.642360 0.052210 0.090200 -0.588473
O24   O     O_R   0.537970 0.947880 0.090240 -0.574529
C45   C     C_R   0.500055 0.880732 0.881417 0.818462
C46   C     C_R   0.618378 0.999815 0.118627 0.789902
C47   C     C_R   0.438720 0.663316 0.708912 -0.048402
C48   C     C_R   0.503171 0.685840 0.687396 -0.213178
C49   C     C_R   0.577117 0.770026 0.742425 0.485549
C50   C     C_R   0.575624 0.834477 0.806181 -0.275863
H23   H     H_    0.629095 0.901135 0.843414 0.178088
C51   C     C_R   0.503917 0.813247 0.819010 -0.192917
C52   C     C_R   0.439347 0.725488 0.774158 0.054713
C53   C     C_3   0.342240 0.682467 0.724698 0.142536
C54   C     C_3   0.342450 0.613312 0.652918 0.238122
H24   H     H_    0.319141 0.723741 0.704780 0.030022
H25   H     H_    0.321189 0.614522 0.590412 0.054808
C55   C     C_R   0.475601 0.304205 0.232655 0.055699
C56   C     C_R   0.499896 0.314115 0.315203 -0.069080
C57   C     C_R   0.526035 0.256614 0.332898 -0.185723
H26   H     H_    0.545341 0.260933 0.396009 0.164059
C58   C     C_R   0.525742 0.191610 0.267902 -0.189778
H27   H     H_    0.544822 0.147285 0.282032 0.141359
C59   C     C_R   0.501570 0.185079 0.185545 -0.065966
C60   C     C_R   0.477832 0.243479 0.171312 0.033835
C61   C     C_3   0.444111 0.267713 0.104561 0.153416
C62   C     C_3   0.442837 0.338120 0.175092 -0.474156
H28   H     H_    0.378877 0.214993 0.047696 0.103551
H29   H     H_    0.490678 0.406676 0.199240 0.222067
H30   H     H_    0.376301 0.325473 0.159552 0.185135
N1    N     N_R   0.862404 0.905365 0.161887 0.165687
O25   O     O_R   0.934491 0.905470 0.175540 -0.348613
O26   O     O_R   0.790861 0.831281 0.122597 -0.327128
O27   O     O_3   0.645750 0.791272 0.727035 -0.589923
C63   C     C_3   0.719657 0.809598 0.798670 -0.276992
H31   H     H_    0.772413 0.819396 0.783099 0.176815
H32   H     H_    0.706613 0.754111 0.811735 0.180695
H33   H     H_    0.743743 0.870900 0.858191 0.159894
N2    N     N_R   0.301022 0.647445 0.768083 0.201273
O28   O     O_R   0.216829 0.604667 0.729898 -0.339464
O29   O     O_R   0.346992 0.662087 0.846045 -0.297865
O30   O     O_3   0.309013 0.530301 0.646570 -0.525118
C64   C     C_3   0.230302 0.470049 0.567152 -0.218949
H34   H     H_    0.241575 0.457717 0.511025 0.144030
H35   H     H_    0.182420 0.492852 0.560419 0.177007
H36   H     H_    0.202235 0.407064 0.565938 0.195727
N3    N     N_R   0.365043 0.333353 0.828028 0.143784
O31   O     O_R   0.314400 0.266361 0.828188 -0.338335
O32   O     O_R   0.429893 0.401002 0.902223 -0.302959
N4    N     N_R   0.507736 0.303999 0.080568 0.175755
O33   O     O_R   0.484513 0.274893 0.998645 -0.285996
O34   O     O_R   0.587931 0.363601 0.139957 -0.333697

loop_
_geom_bond_atom_site_label_1
_geom_bond_atom_site_label_2
_geom_bond_distance
_ccdc_geom_bond_type
C39   C48   1.442735 S    
C37   H20   1.111956 S    
C49   C50   1.409625 A    
C64   H36   1.109456 S    
C56   C57   1.414520 A    
C57   C58   1.409260 A    
C58   H27   1.083417 S    
O17   Cu5   1.972541 S    
O23   C46   1.291991 A    
C27   C42   1.440017 S    
N1    O25   1.300413 A    
C14   C40   1.459018 S    
Cu3   Cu4   2.685198 S    
C23   C24   1.386360 A    
Cu1   O7    1.972865 S    
O27   C63   1.411083 S    
O11   C40   1.295609 A    
O4    C2    1.293211 A    
C9    C14   1.418666 A    
C19   C20   1.395881 A    
C7    C8    1.393651 A    
C6    C7    1.399919 A    
C54   O30   1.415296 S    
O14   C41   1.291337 A    
C21   C22   1.519950 S    
O7    C4    1.293310 A    
Cu4   O14   1.969819 S    
C30   H16   1.111521 S    
C2    C11   1.456062 S    
C53   C54   1.534283 S    
Cu6   O24   1.971212 S    
C59   C60   1.383585 A    
C33   C34   1.410154 A    
C18   H7    1.083252 S    
O5    C3    1.292804 A    
C55   C56   1.388067 A    
C51   C52   1.397323 A    
O10   Cu4   1.971484 S    
C61   C62   1.545480 S    
C23   C30   1.488799 S    
C47   C48   1.390555 A    
C5    H2    1.080308 S    
O13   C41   1.294483 A    
O11   Cu3   1.969619 S    
O24   C46   1.290971 A    
C34   C35   1.410778 A    
C9    C10   1.415081 A    
C22   H10   1.111521 S    
C64   H34   1.112480 S    
C29   H15   1.111406 S    
C35   C46   1.438487 S    
C37   C38   1.545432 S    
C32   C33   1.411915 A    
C5    C10   1.414686 A    
C64   H35   1.113097 S    
C8    H4    1.080677 S    
C54   H25   1.117551 S    
C6    N3    1.440873 S    
O3    Cu1   1.968998 S    
C55   C60   1.351364 A    
C57   H26   1.083025 S    
C29   H14   1.111606 S    
C49   O27   1.384142 S    
C4    C24   1.441386 S    
C62   H29   1.111491 S    
C53   N2    1.465438 S    
C47   C52   1.378533 A    
C25   C26   1.409511 A    
O17   C43   1.291341 A    
C28   C29   1.488482 S    
Cu1   Cu2   2.686115 S    
C10   C11   1.417143 A    
C21   H9    1.112506 S    
O3    C2    1.294517 A    
Cu5   Cu6   2.686462 S    
O9    C39   1.295007 A    
C30   H17   1.111681 S    
O18   C43   1.289564 A    
H1    C12   1.084149 S    
C22   H11   1.112045 S    
O22   C45   1.295868 A    
N2    O29   1.302092 A    
C31   C32   1.385886 A    
C24   C25   1.411508 A    
C15   C20   1.381413 A    
C33   H18   1.083247 S    
O1    C1    1.295803 A    
C17   C18   1.400901 A    
C1    C16   1.448264 S    
O12   C40   1.293628 A    
C63   H32   1.114087 S    
C20   C21   1.493322 S    
Cu5   O21   1.968747 S    
Cu4   O16   1.969618 S    
C31   C36   1.350668 A    
C16   C17   1.406536 A    
O19   Cu5   1.971308 S    
Cu3   O15   1.972206 S    
Cu2   O8    1.968998 S    
C34   H19   1.083373 S    
Cu6   O22   1.972664 S    
C27   C28   1.385614 A    
Cu3   O13   1.971483 S    
O20   Cu6   1.968572 S    
C50   C51   1.408552 A    
C43   C59   1.434102 S    
C23   C28   1.349846 A    
Cu2   O6    1.968946 S    
C26   H13   1.081681 S    
O19   C44   1.292241 A    
O16   C42   1.290268 A    
C8    C9    1.412477 A    
C41   C56   1.446048 S    
C63   H31   1.108263 S    
O21   C45   1.295782 A    
O9    Cu3   1.969699 S    
O15   C42   1.292687 A    
C29   C30   1.542194 S    
C62   H30   1.111316 S    
C19   C44   1.448727 S    
Cu1   O5    1.970831 S    
C25   H12   1.083251 S    
C13   C14   1.397676 A    
O1    Cu1   1.968946 S    
O2    Cu2   1.970833 S    
O8    C4    1.290703 A    
O10   C39   1.287955 A    
C61   N4    1.462805 S    
O6    C3    1.291084 A    
C38   N1    1.463051 S    
C55   C62   1.492267 S    
O4    Cu2   1.972865 S    
C58   C59   1.407991 A    
N3    O31   1.301881 A    
O30   C64   1.408183 S    
C3    C32   1.441066 S    
C47   C54   1.489463 S    
C52   C53   1.501251 S    
C12   C13   1.383720 A    
C38   H22   1.112787 S    
C17   H6    1.083338 S    
C7    H3    1.082522 S    
O2    C1    1.291338 A    
C11   C12   1.396374 A    
C63   H33   1.111731 S    
O18   Cu6   1.968645 S    
C60   C61   1.490067 S    
C35   C36   1.385106 A    
C21   H8    1.111552 S    
N3    O32   1.301580 A    
C15   C16   1.394370 A    
C53   H24   1.112621 S    
C26   C27   1.410446 A    
C48   C49   1.408811 A    
C15   C22   1.492083 S    
C18   C19   1.404601 A    
C50   H23   1.082926 S    
O12   Cu4   1.972111 S    
C61   H28   1.112874 S    
C45   C51   1.456830 S    
N1    O26   1.302373 A    
Cu5   O23   1.968452 S    
C37   H21   1.111334 S    
C31   C38   1.491605 S    
C5    C6    1.403262 A    
C36   C37   1.490544 S    
H5    C13   1.083809 S    
N4    O33   1.300605 A    
O20   C44   1.295298 A    
N4    O34   1.302308 A    
N2    O28   1.300467 A    
