data_mof_unit_16246.cif
_audit_creation_date              2013-03-05T15:45:48-0500
_audit_creation_method            fapswitch 2.2
_symmetry_space_group_name_H-M    P1
_symmetry_Int_Tables_number       1
_space_group_crystal_system       triclinic
_cell_length_a                    9.989404
_cell_length_b                    11.047872
_cell_length_c                    15.732579
_cell_angle_alpha                 98.175951
_cell_angle_beta                  78.848129
_cell_angle_gamma                 111.852568
_cell_volume                      1576.37626853

loop_
_atom_site_label
_atom_site_type_symbol
_atom_site_description
_atom_site_fract_x
_atom_site_fract_y
_atom_site_fract_z
_atom_type_partial_charge
O1    O     O_R   0.426810 0.668300 0.492040 -0.610270
O2    O     O_R   0.573190 0.331700 0.507960 -0.547385
O3    O     O_R   0.658240 0.703130 0.517240 -0.611394
O4    O     O_R   0.341760 0.296870 0.482760 -0.565889
C1    C     C_R   0.556808 0.745660 0.507373 0.742603
C2    C     C_R   0.443534 0.254186 0.492587 0.743296
O5    O     O_R   0.319390 0.472820 0.610170 -0.598855
O6    O     O_R   0.680610 0.527180 0.389830 -0.583545
O7    O     O_R   0.550820 0.507640 0.635370 -0.569885
O8    O     O_R   0.449180 0.492360 0.364630 -0.605477
C3    C     C_R   0.411759 0.483409 0.662454 0.787362
C4    C     C_R   0.587786 0.513351 0.337325 0.800577
Cu1   Cu    Cu3+1 0.362980 0.479380 0.485080 0.952502
Cu2   Cu    Cu3+1 0.637020 0.520620 0.514920 0.986121
C5    C     C_R   0.358364 0.458528 0.754618 -0.070574
C6    C     C_R   0.641083 0.527620 0.244074 -0.092220
C7    C     C_R   0.164114 0.360335 0.870939 0.068597
C8    C     C_R   0.837556 0.608837 0.124830 0.057135
C9    C     C_R   0.211311 0.389751 0.783860 -0.293978
C10   C     C_R   0.788771 0.590206 0.213530 -0.235160
C11   C     C_R   0.459615 0.490114 0.811662 -0.227118
C12   C     C_R   0.540717 0.488988 0.186273 -0.143127
C13   C     C_R   0.416860 0.455032 0.897646 0.005531
C14   C     C_R   0.584233 0.515570 0.098590 0.082766
C15   C     C_R   0.265851 0.406076 0.930943 0.063535
C16   C     C_R   0.735429 0.559878 0.064874 -0.070075
C17   C     C_R   0.522156 0.477078 0.952674 -0.102289
C18   C     C_R   0.479169 0.491698 0.043198 0.009332
C19   C     C_R   0.332404 0.483133 0.075198 -0.157519
C20   C     C_R   0.667439 0.481913 0.920103 -0.128494
C21   C     C_R   0.222877 0.418274 0.022092 0.355422
C22   C     C_R   0.777859 0.542355 0.973756 0.394674
H1    H     H_    0.427109 0.436897 0.210106 0.114417
H2    H     H_    0.573249 0.544452 0.789044 0.164734
H3    H     H_    0.865684 0.628443 0.259396 0.172361
H4    H     H_    0.133751 0.355637 0.738312 0.174197
H5    H     H_    0.610289 0.138503 0.528518 0.205010
H6    H     H_    0.411181 0.866246 0.454868 0.214465
C23   C     C_2   0.588276 0.886784 0.516395 0.244119
C24   C     C_2   0.414502 0.113075 0.483796 0.264618
C25   C     C_2   0.497594 0.932292 0.489629 -0.183521
C26   C     C_2   0.513332 0.070091 0.503632 -0.179129
N1    N     N_2   0.842890 0.551600 0.537350 -0.048313
N2    N     N_2   0.157110 0.448400 0.462650 -0.074446
C27   C     C_2   0.932100 0.501573 0.485564 0.194430
C28   C     C_2   0.083062 0.521518 0.502962 0.110100
O9    O     O_3   0.077737 0.398217 0.055184 -0.550640
C29   C     C_3   0.023435 0.296333 0.111958 0.081334
H7    H     H_    0.075023 0.325588 0.171412 0.093366
H8    H     H_    0.043273 0.206436 0.080559 0.181826
C30   C     C_3   0.859943 0.263510 0.139155 -0.683252
H9    H     H_    0.804452 0.238860 0.080946 0.262811
H10   H     H_    0.814373 0.178567 0.179589 0.193871
H11   H     H_    0.838632 0.348411 0.177761 0.244677
O10   O     O_3   0.922492 0.558613 0.941324 -0.549288
C31   C     C_3   0.982635 0.663964 0.887194 0.065258
H12   H     H_    0.954260 0.750875 0.916840 0.114686
H13   H     H_    0.943668 0.633946 0.823814 0.217044
C32   C     C_3   0.148159 0.704412 0.869543 -0.759395
H14   H     H_    0.179377 0.625278 0.829791 0.256740
H15   H     H_    0.196020 0.793589 0.833044 0.201613
H16   H     H_    0.193771 0.725081 0.931190 0.259808
C33   C     C_2   0.012154 0.270856 0.892883 0.449652
H17   H     H_    0.924951 0.283714 0.868365 0.140875
O11   O     O_2   0.984815 0.174853 0.932125 -0.584694
C34   C     C_2   0.991079 0.693665 0.099896 0.445091
H18   H     H_    0.019668 0.758700 0.048978 0.069986
O12   O     O_2   0.086329 0.697172 0.139349 -0.577469
C35   C     C_2   0.296461 0.562780 0.155143 0.426680
H19   H     H_    0.185860 0.538926 0.189097 0.116377
O13   O     O_2   0.389538 0.661706 0.181301 -0.535225
C36   C     C_2   0.694017 0.401458 0.837973 0.380545
H20   H     H_    0.602265 0.332484 0.808694 0.097789
O14   O     O_2   0.815846 0.406396 0.803208 -0.551998
O15   O     O_3   0.284880 0.025788 0.458748 -0.553379
C37   C     C_3   0.301699 0.010211 0.367084 0.052321
H21   H     H_    0.406852 0.997129 0.337445 0.147098
H22   H     H_    0.297048 0.096667 0.341217 0.132913
C38   C     C_3   0.178395 0.888955 0.339322 -0.707291
H23   H     H_    0.071036 0.894636 0.370414 0.220839
H24   H     H_    0.184375 0.881355 0.267688 0.237609
H25   H     H_    0.188043 0.799975 0.358662 0.255792
O16   O     O_3   0.696576 0.967673 0.563516 -0.579412
C39   C     C_3   0.829323 0.010446 0.506212 0.018389
H26   H     H_    0.821418 0.068671 0.456402 0.187771
H27   H     H_    0.859973 0.926299 0.473342 0.139668
C40   C     C_3   0.949717 0.097126 0.557480 -0.621312
H28   H     H_    0.955716 0.043950 0.610420 0.220196
H29   H     H_    0.056287 0.124817 0.514039 0.259935
H30   H     H_    0.927913 0.187108 0.586045 0.256444
C41   C     C_2   0.155639 0.639124 0.557471 0.449462
H31   H     H_    0.204340 0.632033 0.611404 0.095433
O17   O     O_2   0.161765 0.746352 0.542012 -0.574157
C42   C     C_2   0.897977 0.442147 0.398573 0.455977
H32   H     H_    0.967581 0.488060 0.341298 -0.001133
O18   O     O_2   0.799156 0.337582 0.389854 -0.555859
O19   O     O_3   0.076478 0.327451 0.432751 -0.510658
C43   C     C_3   0.145825 0.301742 0.349051 0.229988
H33   H     H_    0.249774 0.290122 0.351683 0.176538
H34   H     H_    0.166558 0.381650 0.306944 0.091976
C44   C     C_3   0.049287 0.173897 0.307866 -0.933372
H35   H     H_    0.942055 0.179290 0.303831 0.279754
H36   H     H_    0.102968 0.153761 0.241525 0.197615
H37   H     H_    0.032086 0.092127 0.346997 0.247057
O20   O     O_3   0.875117 0.599247 0.617911 -0.506472
C45   C     C_3   0.858764 0.722649 0.634035 0.274981
H38   H     H_    0.742543 0.711834 0.650610 0.174743
H39   H     H_    0.910278 0.782460 0.577002 0.172831
C46   C     C_3   0.930494 0.798724 0.711726 -0.851828
H40   H     H_    0.038322 0.789948 0.709262 0.270068
H41   H     H_    0.946486 0.903665 0.712328 0.222128
H42   H     H_    0.857655 0.762354 0.772549 0.210036

loop_
_geom_bond_atom_site_label_1
_geom_bond_atom_site_label_2
_geom_bond_distance
_ccdc_geom_bond_type
C15   C21   1.417318 A    
C34   O12   1.219129 D    
C40   H28   1.107748 S    
C33   O11   1.219035 D    
C16   C22   1.420993 A    
C44   H35   1.109013 S    
C25   C26   1.459707 S    
C8    C16   1.428090 A    
C39   C40   1.520593 S    
O7    Cu2   1.925408 S    
O19   C43   1.407763 S    
C23   C25   1.340710 D    
C27   C28   1.514187 S    
C5    C9    1.397840 A    
O1    C1    1.308173 A    
C18   C19   1.427098 A    
C37   H22   1.109497 S    
C9    H4    1.084616 S    
C46   H41   1.108759 S    
C45   H38   1.103921 S    
H5    C26   1.086359 S    
C31   H12   1.115304 S    
N1    O20   1.352412 S    
O4    Cu1   1.943141 S    
C35   O13   1.221446 D    
C10   H3    1.084247 S    
C3    C5    1.472258 S    
C29   C30   1.521454 S    
O9    C29   1.415286 S    
O6    Cu2   1.937377 S    
C37   C38   1.521788 S    
C13   C17   1.420126 A    
C22   O10   1.388440 S    
C8    C10   1.403990 A    
C6    C10   1.395146 A    
C24   C26   1.344579 D    
C34   H18   1.077937 S    
C32   H14   1.106670 S    
C44   H36   1.110254 S    
C21   O9    1.387054 S    
Cu1   Cu2   2.725740 S    
C17   C20   1.426213 A    
O2    C2    1.306114 A    
C27   C42   1.475987 S    
N2    C28   1.311316 D    
C19   C35   1.493593 S    
C32   H15   1.110424 S    
C30   H9    1.110469 S    
C4    C6    1.470307 S    
C37   H21   1.116285 S    
H6    C25   1.084825 S    
C36   O14   1.218522 D    
C46   H42   1.108573 S    
C41   H31   1.081536 S    
C38   H24   1.109735 S    
C28   C41   1.473618 S    
C38   H23   1.109874 S    
C30   H10   1.110101 S    
O5    C3    1.314369 A    
O15   C37   1.412351 S    
C41   O17   1.220039 D    
N1    C27   1.311923 D    
N2    O19   1.349852 S    
O16   C39   1.409524 S    
C5    C11   1.396228 A    
O6    C4    1.311645 A    
O10   C31   1.415739 S    
C39   H26   1.113217 S    
C42   O18   1.219099 D    
O7    C3    1.307505 A    
O3    Cu2   1.943140 S    
O8    C4    1.309442 A    
O4    C2    1.310840 A    
C29   H7    1.105181 S    
C44   H37   1.107392 S    
C43   H34   1.112769 S    
C11   C13   1.401777 A    
C12   C14   1.402277 A    
O1    Cu1   1.935482 S    
C12   H1    1.081807 S    
C32   H16   1.109447 S    
C6    C12   1.392130 A    
C14   C18   1.418756 A    
C14   C16   1.419769 A    
C36   H20   1.084645 S    
O3    C1    1.306733 A    
O8    Cu1   1.925405 S    
C38   H25   1.111395 S    
C20   C36   1.498814 S    
C31   C32   1.522639 S    
C11   H2    1.082945 S    
C8    C34   1.478520 S    
C43   C44   1.520582 S    
O20   C45   1.414603 S    
C24   O15   1.386214 S    
C30   H11   1.109330 S    
C7    C15   1.425659 A    
C1    C23   1.462630 S    
C23   O16   1.385881 S    
C19   C21   1.417145 A    
C46   H40   1.109794 S    
C7    C33   1.475782 S    
C20   C22   1.423577 A    
C45   H39   1.115094 S    
C29   H8    1.113005 S    
C7    C9    1.402665 A    
C31   H13   1.102604 S    
C2    C24   1.466721 S    
C13   C15   1.417750 A    
C42   H32   1.085259 S    
O2    Cu2   1.935484 S    
C35   H19   1.081878 S    
C33   H17   1.079577 S    
O5    Cu1   1.937379 S    
C43   H33   1.101737 S    
C40   H30   1.110824 S    
C17   C18   1.410103 A    
C40   H29   1.108859 S    
C39   H27   1.113247 S    
Cu1   N2    2.047758 S    
Cu2   N1    2.047759 S    
C45   C46   1.520549 S    
