data_mof_unit_62301.cif
_audit_creation_date              2012-12-10T17:53:44-0500
_audit_creation_method            fapswitch 2.2
_symmetry_space_group_name_H-M    P1
_symmetry_Int_Tables_number       1
_space_group_crystal_system       triclinic
_cell_length_a                    19.657704
_cell_length_b                    19.656163
_cell_length_c                    51.393115
_cell_angle_alpha                 90.075155
_cell_angle_beta                  90.033786
_cell_angle_gamma                 89.980293
_cell_volume                      19858.022714

loop_
_atom_site_label
_atom_site_type_symbol
_atom_type_description
_atom_site_fract_x
_atom_site_fract_y
_atom_site_fract_z
_atom_type_partial_charge
C1    C     C_R   0.606856 0.929462 0.013688 0.012391
C2    C     C_R   0.880319 0.524952 0.485671 0.013792
C3    C     C_R   0.629514 0.870473 0.249997 0.513390
C4    C     C_R   0.129528 0.629500 0.750006 0.513335
C5    C     C_R   0.870472 0.370500 0.249994 0.513296
C6    C     C_R   0.629509 0.870500 0.749998 0.512743
C7    C     C_R   0.370491 0.129500 0.250002 0.512859
C8    C     C_R   0.006748 0.563658 0.362567 -0.139399
C9    C     C_R   0.001569 0.439026 0.636555 -0.141061
C10   C     C_R   0.560898 0.998443 0.363435 -0.141040
C11   C     C_R   0.436410 0.993249 0.637443 -0.139376
C12   C     C_R   0.998972 0.440678 0.363764 -0.141584
C13   C     C_R   0.475087 0.119716 0.514375 0.013788
C14   C     C_R   0.000681 0.562289 0.637063 -0.140324
C15   C     C_R   0.437646 0.999317 0.362945 -0.140342
C16   C     C_R   0.559380 0.001046 0.636225 -0.141612
C17   C     C_R   0.505470 0.063025 0.862644 -0.139140
C18   C     C_R   0.502008 0.938737 0.136696 -0.139761
C19   C     C_R   0.061301 0.495559 0.863149 -0.139371
C20   C     C_R   0.938250 0.502838 0.137004 -0.139066
C21   C     C_R   0.499917 0.939905 0.863468 -0.142542
C22   C     C_R   0.499834 0.061957 0.137038 -0.138932
C23   C     C_R   0.938477 0.505797 0.863061 -0.139398
C24   C     C_R   0.483870 0.871517 0.486145 0.010386
C25   C     C_R   0.061252 0.494648 0.136920 -0.140197
C26   C     C_1   0.181157 0.681222 0.250018 0.012558
C27   C     C_1   0.818844 0.318776 0.749983 0.012718
C28   C     C_1   0.318810 0.181169 0.250005 0.012110
C29   C     C_1   0.681190 0.818831 0.749995 0.012460
C30   C     C_1   0.818784 0.318843 0.249985 0.013019
C31   C     C_1   0.181217 0.681156 0.750014 0.012710
C32   C     C_1   0.681174 0.818798 0.249993 0.012547
C33   C     C_1   0.318826 0.181201 0.750007 0.012337
C34   C     C_1   0.181174 0.318798 0.749993 0.012226
C35   C     C_R   0.878305 0.516283 0.513326 0.010629
C36   C     C_1   0.818826 0.681202 0.250007 0.012384
C37   C     C_1   0.318784 0.818843 0.749984 0.012514
C38   C     C_1   0.681217 0.181156 0.250015 0.012984
C39   C     C_1   0.818811 0.681170 0.750005 0.012004
C40   C     C_1   0.181189 0.318830 0.249994 0.012320
C41   C     C_1   0.681156 0.181223 0.750017 0.012360
C42   C     C_1   0.318844 0.818776 0.249983 0.012693
C43   C     C_1   0.224567 0.724599 0.250010 -0.031484
C44   C     C_1   0.775434 0.275400 0.749992 -0.031434
C45   C     C_1   0.275414 0.224575 0.250002 -0.032244
C46   C     C_R   0.127930 0.534746 0.487177 0.011501
C47   C     C_1   0.724586 0.775425 0.749998 -0.032066
C48   C     C_1   0.775404 0.275433 0.249992 -0.031017
C49   C     C_1   0.224597 0.724566 0.750007 -0.031447
C50   C     C_1   0.724577 0.775409 0.249996 -0.031742
C51   C     C_1   0.275423 0.224591 0.750004 -0.031970
C52   C     C_1   0.224577 0.275409 0.749997 -0.032013
C53   C     C_1   0.775423 0.724591 0.250003 -0.031822
C54   C     C_1   0.275404 0.775432 0.749991 -0.031537
C55   C     C_1   0.724597 0.224566 0.250007 -0.031037
C56   C     C_1   0.775415 0.724576 0.750003 -0.032282
C57   C     C_R   0.465204 0.872094 0.512801 0.011512
C58   C     C_1   0.224585 0.275424 0.249997 -0.032145
C59   C     C_1   0.724567 0.224599 0.750009 -0.031595
C60   C     C_1   0.275435 0.775399 0.249992 -0.031413
C61   C     C_R   0.001842 0.501259 0.349232 0.022054
C62   C     C_R   0.000671 0.500322 0.650752 0.022077
C63   C     C_R   0.499619 0.999331 0.349247 0.022081
C64   C     C_R   0.498795 0.998162 0.650768 0.022060
C65   C     C_R   0.501587 0.000850 0.849155 0.022519
C66   C     C_R   0.500489 0.000142 0.150792 0.022441
C67   C     C_R   0.999937 0.500444 0.849187 0.022757
C68   C     C_R   0.483706 0.121731 0.486715 0.010641
C69   C     C_R   0.999857 0.499224 0.150861 0.023342
C70   C     C_3   0.637865 0.865545 0.026008 -0.230442
C71   C     C_3   0.623315 0.801046 0.009868 -0.320837
C72   C     C_3   0.654735 0.738183 0.022454 -0.464882
C73   C     C_3   0.400518 0.163027 0.970868 -0.231259
C74   C     C_3   0.432328 0.230067 0.980754 -0.325083
C75   C     C_3   0.441207 0.282285 0.958992 -0.461553
C76   C     C_3   0.850598 0.616053 0.029651 -0.230809
C77   C     C_3   0.782190 0.585538 0.020621 -0.325409
C78   C     C_3   0.730803 0.580046 0.042851 -0.461880
C79   C     C_R   0.452939 0.032700 0.054262 0.386328
C80   C     C_3   0.144324 0.374962 0.970218 -0.234013
C81   C     C_3   0.214665 0.405928 0.976019 -0.326665
C82   C     C_3   0.268491 0.379590 0.957094 -0.463349
C83   C     C_3   0.367402 0.140191 0.027484 -0.209394
C84   C     C_3   0.402713 0.192440 0.045411 -0.282513
C85   C     C_3   0.352143 0.245148 0.055527 -0.455354
C86   C     C_3   0.688431 0.927047 0.975369 -0.221316
C87   C     C_3   0.726419 0.992015 0.967288 -0.274918
C88   C     C_3   0.794576 0.975110 0.954630 -0.437151
C89   C     C_3   0.130562 0.355702 0.028062 -0.197708
C90   C     C_R   0.563451 0.976390 0.944858 0.385694
C91   C     C_3   0.183365 0.389167 0.046699 -0.274209
C92   C     C_3   0.195520 0.465776 0.043312 -0.416413
C93   C     C_3   0.871531 0.646076 0.972756 -0.210942
C94   C     C_3   0.817101 0.611480 0.955589 -0.284731
C95   C     C_3   0.764757 0.662967 0.945897 -0.452257
C96   C     C_3   0.194145 0.488832 0.526144 -0.231010
C97   C     C_3   0.226777 0.431682 0.509834 -0.320240
C98   C     C_3   0.291318 0.404780 0.522750 -0.462860
C99   C     C_3   0.819662 0.555550 0.470697 -0.230820
C100  C     C_3   0.801484 0.628251 0.479729 -0.325701
C101  C     C_R   0.026011 0.442987 0.054666 0.395347
C102  C     C_3   0.770477 0.670763 0.457831 -0.462185
C103  C     C_3   0.444523 0.180381 0.529381 -0.230820
C104  C     C_3   0.371808 0.198553 0.520396 -0.325700
C105  C     C_3   0.329359 0.229612 0.542320 -0.462166
C106  C     C_3   0.511028 0.805855 0.473794 -0.230997
C107  C     C_3   0.568166 0.773181 0.490071 -0.320250
C108  C     C_3   0.595023 0.708627 0.477123 -0.462881
C109  C     C_3   0.810135 0.520665 0.527668 -0.211153
C110  C     C_3   0.805215 0.584365 0.545181 -0.284677
C111  C     C_3   0.733159 0.593968 0.555604 -0.448508
C112  C     C_R   0.426116 0.099986 0.985743 0.014980
C113  C     C_R   0.973763 0.555747 0.945525 0.386953
C114  C     C_3   0.190593 0.569765 0.475723 -0.221841
C115  C     C_3   0.174550 0.643342 0.467683 -0.280935
C116  C     C_3   0.237460 0.678809 0.456810 -0.441850
C117  C     C_3   0.430162 0.809448 0.524253 -0.221849
C118  C     C_3   0.356615 0.825543 0.532337 -0.280952
C119  C     C_3   0.321123 0.762647 0.543206 -0.441856
C120  C     C_3   0.479304 0.189907 0.472394 -0.211162
C121  C     C_3   0.415579 0.194828 0.454915 -0.284690
C122  C     C_3   0.405933 0.266901 0.444533 -0.448562
C123  C     C_R   0.558587 0.974042 0.054985 0.383948
C124  C     C_R   0.459667 0.038533 0.945416 0.383653
C125  C     C_R   0.971666 0.550565 0.054791 0.380039
C126  C     C_R   0.025673 0.446924 0.945268 0.383858
C127  C     C_R   0.944550 0.492686 0.554368 0.385649
C128  C     C_R   0.065259 0.521634 0.444989 0.387032
C129  C     C_R   0.478420 0.934756 0.555001 0.387027
C130  C     C_R   0.507227 0.055479 0.445643 0.385651
C131  C     C_R   0.062820 0.517460 0.555122 0.384362
C132  C     C_R   0.912075 0.587613 0.014515 0.015017
C133  C     C_R   0.946266 0.499834 0.445353 0.384428
C134  C     C_R   0.500253 0.053753 0.554661 0.384439
C135  C     C_R   0.482422 0.937205 0.444866 0.384370
C136  C     C_R   0.558938 0.969821 0.027532 0.019287
C137  C     C_R   0.466067 0.050772 0.972375 0.020608
C138  C     C_R   0.960349 0.546129 0.027718 0.022832
C139  C     C_R   0.037950 0.451128 0.972334 0.020553
C140  C     C_R   0.459554 0.045887 0.027166 0.021449
C141  C     C_R   0.566843 0.977520 0.972528 0.016135
C142  C     C_R   0.035944 0.446824 0.027279 0.024824
C143  C     C_R   0.086130 0.409089 0.985571 0.008091
C144  C     C_R   0.963368 0.551628 0.972862 0.022756
C145  C     C_R   0.065891 0.514595 0.527653 0.016971
C146  C     C_R   0.942767 0.513444 0.472346 0.020120
C147  C     C_R   0.486604 0.057259 0.527675 0.020116
C148  C     C_R   0.485320 0.934131 0.472333 0.016968
C149  C     C_R   0.941006 0.506616 0.527212 0.020772
C150  C     C_R   0.066792 0.525287 0.472636 0.015622
C151  C     C_R   0.474718 0.933230 0.527355 0.015626
C152  C     C_R   0.493336 0.059024 0.472806 0.020785
C153  C     C_R   0.511804 0.010430 0.013655 -0.059512
C154  C     C_R   0.418110 0.093972 0.013314 0.010280
C155  C     C_R   0.514701 0.012531 0.986215 -0.061233
C156  C     C_R   0.999058 0.497840 0.013718 -0.063779
C157  C     C_R   0.999870 0.500022 0.986363 -0.058953
C158  C     C_R   0.003687 0.513896 0.513722 -0.061033
C159  C     C_R   0.004500 0.517072 0.486261 -0.062493
C160  C     C_R   0.482932 0.995525 0.513744 -0.062500
C161  C     C_R   0.486061 0.996339 0.486282 -0.061036
C162  C     C_R   0.008627 0.565500 0.389730 -0.076128
C163  C     C_R   0.002583 0.439813 0.609297 -0.061657
C164  C     C_R   0.560090 0.997437 0.390692 -0.061672
C165  C     C_R   0.618786 0.943731 0.987021 0.010385
C166  C     C_R   0.434583 0.991375 0.610280 -0.076150
C167  C     C_R   0.000609 0.442673 0.391032 -0.052501
C168  C     C_R   0.001678 0.562941 0.609859 -0.069624
C169  C     C_R   0.436972 0.998327 0.390149 -0.069597
C170  C     C_R   0.557400 0.999415 0.608957 -0.052500
C171  C     C_R   0.508083 0.064259 0.889788 -0.072952
C172  C     C_R   0.503091 0.939238 0.109458 -0.060254
C173  C     C_R   0.061153 0.495852 0.890363 -0.065472
C174  C     C_R   0.938078 0.502039 0.109811 -0.063983
C175  C     C_R   0.502326 0.941246 0.890697 -0.053112
C176  C     C_R   0.082893 0.404396 0.013391 0.034108
C177  C     C_R   0.500870 0.062372 0.109842 -0.063907
C178  C     C_R   0.938442 0.506396 0.890278 -0.061279
C179  C     C_R   0.060979 0.493614 0.109714 -0.063839
C180  C     C_R   0.005420 0.505167 0.404137 0.244731
C181  C     C_R   0.002748 0.501792 0.595820 0.242805
C182  C     C_R   0.498106 0.997269 0.404179 0.242790
C183  C     C_R   0.494917 0.994596 0.595862 0.244709
C184  C     C_R   0.506722 0.003477 0.904036 0.243024
C185  C     C_R   0.502565 0.001076 0.095823 0.245237
C186  C     C_R   0.999764 0.501404 0.904136 0.244549
C187  C     C_R   0.917152 0.594755 0.986880 0.009566
C188  C     C_R   0.999397 0.497359 0.095963 0.244024
C189  C     C_R   0.999976 0.499908 0.179670 0.508544
C190  C     C_R   0.000001 0.500059 0.820347 0.508184
C191  C     C_R   0.500014 0.999978 0.179645 0.508490
C192  C     C_R   0.500112 0.000105 0.820338 0.508370
C193  C     C_R   0.499870 0.999759 0.679635 0.507547
C194  C     C_R   0.499981 0.999939 0.320368 0.507306
C195  C     C_R   0.000060 0.499998 0.679631 0.507368
C196  C     C_R   0.000243 0.500151 0.320365 0.507518
C197  C     C_R   0.870486 0.629527 0.250003 0.513545
C198  C     C_R   0.128500 0.516039 0.513824 0.010396
C199  C     C_R   0.129514 0.370473 0.749997 0.513197
C200  C     C_R   0.370495 0.870464 0.249993 0.513436
C201  C     C_R   0.629505 0.129535 0.750007 0.513064
C202  C     C_R   0.129509 0.370500 0.249998 0.512800
C203  C     C_R   0.870491 0.629500 0.750002 0.512747
C204  C     C_R   0.629528 0.129500 0.250006 0.513416
C205  C     C_R   0.370473 0.870499 0.749994 0.513224
C206  C     C_R   0.870495 0.370465 0.749993 0.513470
C207  C     C_R   0.129505 0.629535 0.250007 0.513525
C208  C     C_R   0.370486 0.129527 0.750003 0.513658
H1    H     H_    0.012161 0.614013 0.399650 0.114343
H2    H     H_    0.504222 0.891497 0.098930 0.125440
H3    H     H_    0.847662 0.654915 0.486974 0.170265
H4    H     H_    0.830923 0.560688 0.449809 0.208365
H5    H     H_    0.774703 0.521506 0.471691 0.141381
H6    H     H_    0.321556 0.191896 0.558118 0.160848
H7    H     H_    0.355252 0.275245 0.550371 0.158503
H8    H     H_    0.278780 0.244915 0.534669 0.148223
H9    H     H_    0.373815 0.236734 0.504605 0.161294
H10   H     H_    0.345123 0.152360 0.513168 0.170256
H11   H     H_    0.439428 0.169124 0.550270 0.208365
H12   H     H_    0.478560 0.225344 0.528379 0.141382
H13   H     H_    0.108898 0.492058 0.900786 0.119265
H14   H     H_    0.553526 0.670674 0.475010 0.155842
H15   H     H_    0.616258 0.720487 0.457629 0.157448
H16   H     H_    0.635884 0.686166 0.489326 0.145018
H17   H     H_    0.610742 0.809989 0.492259 0.170448
H18   H     H_    0.550171 0.759434 0.509793 0.164712
H19   H     H_    0.468906 0.769329 0.470347 0.151053
H20   H     H_    0.535003 0.815925 0.454717 0.200813
H21   H     H_    0.696808 0.601573 0.539305 0.140911
H22   H     H_    0.717510 0.548790 0.567097 0.172737
H23   H     H_    0.731438 0.639493 0.568403 0.150504
H24   H     H_    0.890149 0.504789 0.099463 0.119028
H25   H     H_    0.840265 0.580909 0.561997 0.206272
H26   H     H_    0.820201 0.630549 0.534220 0.143807
H27   H     H_    0.766628 0.520811 0.514083 0.121035
H28   H     H_    0.800510 0.473615 0.538889 0.200401
H29   H     H_    0.278351 0.680741 0.471728 0.143674
H30   H     H_    0.256398 0.651379 0.439345 0.174579
H31   H     H_    0.224256 0.731691 0.451151 0.150429
H32   H     H_    0.133853 0.644744 0.452723 0.195195
H33   H     H_    0.156275 0.672172 0.484952 0.155258
H34   H     H_    0.232252 0.573243 0.490154 0.122398
H35   H     H_    0.500725 0.893911 0.901430 0.137134
H36   H     H_    0.212587 0.540084 0.459443 0.193416
H37   H     H_    0.319137 0.721763 0.528274 0.143703
H38   H     H_    0.348566 0.743678 0.560650 0.174565
H39   H     H_    0.268264 0.775888 0.548897 0.150412
H40   H     H_    0.355269 0.866235 0.547312 0.195170
H41   H     H_    0.327773 0.843850 0.515089 0.155265
H42   H     H_    0.426631 0.767794 0.509810 0.122400
H43   H     H_    0.459851 0.787427 0.540511 0.193412
H44   H     H_    0.398336 0.303229 0.460852 0.140867
H45   H     H_    0.451085 0.282587 0.433025 0.172716
H46   H     H_    0.500891 0.110517 0.099630 0.113199
H47   H     H_    0.360393 0.268622 0.431756 0.150500
H48   H     H_    0.419024 0.159801 0.438081 0.206287
H49   H     H_    0.369421 0.179807 0.465893 0.143822
H50   H     H_    0.479182 0.233417 0.485992 0.121046
H51   H     H_    0.526331 0.199531 0.461151 0.200398
H52   H     H_    0.890618 0.510265 0.900615 0.114472
H53   H     H_    0.108739 0.490302 0.099307 0.117957
H54   H     H_    0.009214 0.611230 0.352008 0.139036
H55   H     H_    0.001591 0.390497 0.646500 0.138065
H56   H     H_    0.609433 0.998425 0.353482 0.138118
H57   H     H_    0.003346 0.392268 0.598640 0.128764
H58   H     H_    0.388834 0.990772 0.648009 0.139057
H59   H     H_    0.995249 0.391866 0.354079 0.137578
H60   H     H_    0.999955 0.610366 0.647371 0.138576
H61   H     H_    0.389582 0.000034 0.352644 0.138573
H62   H     H_    0.608181 0.004776 0.645903 0.137536
H63   H     H_    0.506923 0.110848 0.852222 0.138614
H64   H     H_    0.502528 0.890302 0.146709 0.137778
H65   H     H_    0.109451 0.491330 0.853049 0.137578
H66   H     H_    0.890137 0.506381 0.147167 0.137703
H67   H     H_    0.496805 0.891248 0.853636 0.137457
H68   H     H_    0.607623 0.996682 0.401341 0.128783
H69   H     H_    0.498741 0.110113 0.147288 0.137533
H70   H     H_    0.890376 0.509642 0.852888 0.136973
H71   H     H_    0.109512 0.491743 0.147028 0.136808
H72   H     H_    0.710863 0.743886 0.023781 0.154182
H73   H     H_    0.633506 0.730339 0.042248 0.158642
H74   H     H_    0.643178 0.692608 0.010451 0.145352
H75   H     H_    0.567389 0.793623 0.008278 0.171567
H76   H     H_    0.644074 0.805246 0.989907 0.161425
H77   H     H_    0.693296 0.872425 0.029186 0.156180
H78   H     H_    0.615052 0.854762 0.045239 0.196185
H79   H     H_    0.386080 0.987834 0.600370 0.114323
H80   H     H_    0.479365 0.264003 0.944658 0.156510
H81   H     H_    0.392105 0.291132 0.948880 0.156037
H82   H     H_    0.459298 0.331209 0.967315 0.145391
H83   H     H_    0.398819 0.253475 0.995604 0.162211
H84   H     H_    0.483123 0.220275 0.989522 0.170299
H85   H     H_    0.414265 0.160404 0.950096 0.202213
H86   H     H_    0.344119 0.165759 0.971232 0.141862
H87   H     H_    0.748665 0.542597 0.057518 0.158131
H88   H     H_    0.723833 0.630251 0.052414 0.159118
H89   H     H_    0.680997 0.562701 0.035093 0.146230
H90   H     H_    0.998062 0.395715 0.401975 0.134523
H91   H     H_    0.759121 0.618538 0.005557 0.160898
H92   H     H_    0.790024 0.533794 0.012375 0.172838
H93   H     H_    0.853746 0.603927 0.050528 0.204489
H94   H     H_    0.849456 0.672464 0.028788 0.138328
H95   H     H_    0.271419 0.323211 0.958094 0.156262
H96   H     H_    0.256129 0.395191 0.936870 0.160331
H97   H     H_    0.318922 0.401042 0.962355 0.145501
H98   H     H_    0.211922 0.462256 0.974372 0.167478
H99   H     H_    0.232249 0.392658 0.995762 0.172355
H100  H     H_    0.144154 0.319091 0.973307 0.143088
H101  H     H_    0.001566 0.611080 0.599639 0.121979
H102  H     H_    0.138976 0.381333 0.949096 0.207706
H103  H     H_    0.329717 0.274141 0.039085 0.134782
H104  H     H_    0.310800 0.219803 0.066596 0.171657
H105  H     H_    0.378661 0.281423 0.068640 0.145097
H106  H     H_    0.426756 0.167407 0.062362 0.198913
H107  H     H_    0.444038 0.219049 0.034863 0.143691
H108  H     H_    0.334453 0.167994 0.013713 0.120920
H109  H     H_    0.329722 0.109541 0.038360 0.200544
H110  H     H_    0.827372 0.946393 0.968383 0.151393
H111  H     H_    0.786536 0.944241 0.936770 0.175545
H112  H     H_    0.388829 0.998436 0.400377 0.122022
H113  H     H_    0.821021 0.022922 0.949186 0.152374
H114  H     H_    0.695908 0.022586 0.953398 0.199642
H115  H     H_    0.735701 0.023942 0.984812 0.159224
H116  H     H_    0.721819 0.901278 0.989618 0.123937
H117  H     H_    0.684076 0.890270 0.959107 0.191113
H118  H     H_    0.202980 0.479781 0.022672 0.151264
H119  H     H_    0.152494 0.495650 0.051261 0.162820
H120  H     H_    0.241829 0.480712 0.054298 0.131609
H121  H     H_    0.168596 0.379819 0.067230 0.195765
H122  H     H_    0.232980 0.362861 0.044092 0.123288
H123  H     H_    0.604360 0.001973 0.598005 0.134539
H124  H     H_    0.158905 0.321733 0.014869 0.100675
H125  H     H_    0.099832 0.317703 0.038773 0.182443
H126  H     H_    0.737556 0.686604 0.962562 0.141033
H127  H     H_    0.790164 0.703364 0.934351 0.171414
H128  H     H_    0.726891 0.636892 0.933327 0.147761
H129  H     H_    0.840215 0.586481 0.938433 0.199497
H130  H     H_    0.790458 0.570981 0.966579 0.144684
H131  H     H_    0.845635 0.680618 0.986514 0.120152
H132  H     H_    0.902609 0.682172 0.961286 0.198685
H133  H     H_    0.329308 0.446249 0.524849 0.155820
H134  H     H_    0.511582 0.112642 0.899806 0.115982
H135  H     H_    0.279464 0.383586 0.542249 0.157431
H136  H     H_    0.313722 0.363875 0.510536 0.144978
H137  H     H_    0.189947 0.389124 0.507645 0.170453
H138  H     H_    0.240520 0.449681 0.490114 0.164715
H139  H     H_    0.230694 0.530932 0.529596 0.151050
H140  H     H_    0.184067 0.464847 0.545215 0.200798
H141  H     H_    0.808235 0.678626 0.442045 0.160844
H142  H     H_    0.724882 0.644877 0.449754 0.158474
H143  H     H_    0.755135 0.721317 0.465517 0.148251
H144  H     H_    0.763274 0.626209 0.495519 0.161288
N1    N     N_R   0.504424 0.001941 0.067709 -0.388837
N2    N     N_R   0.509849 0.005600 0.932104 -0.388875
N3    N     N_R   0.999025 0.496900 0.067881 -0.392580
N4    N     N_R   0.999793 0.501465 0.932239 -0.388731
N5    N     N_R   0.003637 0.503003 0.567765 -0.391620
N6    N     N_R   0.005849 0.508132 0.432180 -0.390857
N7    N     N_R   0.491958 0.994165 0.567820 -0.390850
N8    N     N_R   0.496882 0.996389 0.432233 -0.391624
O1    O     O_3   1.000000 0.500000 0.250000 -0.430391
O2    O     O_R   0.055830 0.500000 0.807680 -0.542429
O3    O     O_R   0.500000 0.944170 0.192320 -0.542117
O4    O     O_R   0.500000 0.055830 0.807680 -0.543771
O5    O     O_R   0.555830 1.000000 0.692320 -0.540964
O6    O     O_R   0.444170 1.000000 0.307680 -0.543106
O7    O     O_R   0.000000 0.555830 0.692320 -0.542996
O8    O     O_R   1.000000 0.444170 0.307680 -0.540927
O9    O     O_R   0.444170 1.000000 0.692320 -0.544092
O10   O     O_R   0.555830 1.000000 0.307680 -0.542065
O11   O     O_R   0.000000 0.444170 0.692320 -0.542104
O12   O     O_3   0.000000 0.500000 0.750000 -0.430327
O13   O     O_R   1.000000 0.555830 0.307680 -0.544187
O14   O     O_R   0.865940 0.578550 0.235150 -0.533604
O15   O     O_R   0.134060 0.421450 0.764850 -0.533788
O16   O     O_R   0.421450 0.865940 0.235150 -0.533886
O17   O     O_R   0.578550 0.134060 0.764850 -0.534752
O18   O     O_R   0.134060 0.421450 0.235150 -0.534375
O19   O     O_R   0.865940 0.578550 0.764850 -0.534061
O20   O     O_R   0.578550 0.134060 0.235150 -0.533967
O21   O     O_R   0.421450 0.865940 0.764850 -0.533451
O22   O     O_R   0.865940 0.421450 0.764850 -0.533754
O23   O     O_3   0.500000 1.000000 0.250000 -0.430402
O24   O     O_R   0.134060 0.578550 0.235150 -0.533380
O25   O     O_R   0.421450 0.134060 0.764850 -0.533364
O26   O     O_R   0.578550 0.865940 0.235150 -0.533586
O27   O     O_R   0.134060 0.578550 0.764850 -0.533680
O28   O     O_R   0.865940 0.421450 0.235150 -0.534085
O29   O     O_R   0.578550 0.865940 0.764850 -0.533634
O30   O     O_R   0.421450 0.134060 0.235150 -0.533909
O31   O     O_R   0.365940 0.078550 0.735150 -0.533626
O32   O     O_R   0.634060 0.921450 0.264850 -0.533625
O33   O     O_R   0.921450 0.365940 0.735150 -0.533028
O34   O     O_3   0.500000 1.000000 0.750000 -0.430357
O35   O     O_R   0.078550 0.634060 0.264850 -0.533868
O36   O     O_R   0.634060 0.921450 0.735150 -0.533588
O37   O     O_R   0.365940 0.078550 0.264850 -0.533842
O38   O     O_R   0.078550 0.634060 0.735150 -0.533278
O39   O     O_R   0.921450 0.365940 0.264850 -0.532827
O40   O     O_R   0.365940 0.921450 0.264850 -0.533174
O41   O     O_R   0.634060 0.078550 0.735150 -0.532740
O42   O     O_R   0.921450 0.634060 0.264850 -0.533666
O43   O     O_R   0.078550 0.365940 0.735150 -0.533733
O44   O     O_R   0.634060 0.078550 0.264850 -0.532939
O45   O     O_R   0.055830 0.500000 0.192320 -0.542589
O46   O     O_R   0.365940 0.921450 0.735150 -0.533940
O47   O     O_R   0.078550 0.365940 0.264850 -0.533234
O48   O     O_R   0.921450 0.634060 0.735150 -0.533821
O49   O     O_2   0.395523 0.048587 0.067179 -0.523592
O50   O     O_2   0.611306 0.944429 0.930657 -0.532796
O51   O     O_2   0.041976 0.386439 0.068073 -0.524950
O52   O     O_2   0.959666 0.613049 0.932253 -0.524784
O53   O     O_2   0.613283 0.953955 0.068862 -0.516833
O54   O     O_2   0.401825 0.055367 0.932807 -0.510888
O55   O     O_2   0.958948 0.608959 0.067744 -0.512273
O56   O     O_R   0.944170 0.500000 0.807680 -0.542685
O57   O     O_2   0.035113 0.387984 0.932298 -0.514762
O58   O     O_2   0.890373 0.468609 0.567446 -0.525666
O59   O     O_2   0.122629 0.527562 0.430885 -0.524214
O60   O     O_2   0.472499 0.877381 0.569089 -0.524211
O61   O     O_2   0.531297 0.109656 0.432569 -0.525679
O62   O     O_2   0.117434 0.537193 0.569129 -0.520937
O63   O     O_2   0.891698 0.475003 0.432551 -0.516193
O64   O     O_2   0.525115 0.108316 0.567466 -0.516189
O65   O     O_2   0.462663 0.882593 0.430853 -0.520944
O66   O     O_R   0.500000 0.055830 0.192320 -0.542776
O67   O     O_R   0.500000 0.944170 0.807680 -0.541503
O68   O     O_R   0.944170 0.500000 0.192320 -0.542813
Zn1   Zn    Zn3+2 0.000000 0.579740 0.272110 0.951316
Zn2   Zn    Zn3+2 0.500000 0.920260 0.227890 0.952698
Zn3   Zn    Zn3+2 0.920260 0.500000 0.772110 0.951623
Zn4   Zn    Zn3+2 0.079740 0.500000 0.227890 0.951777
Zn5   Zn    Zn3+2 0.500000 0.920260 0.772110 0.952476
Zn6   Zn    Zn3+2 0.500000 0.079740 0.227890 0.951661
Zn7   Zn    Zn3+2 0.079740 0.500000 0.772110 0.952206
Zn8   Zn    Zn3+2 0.920260 0.500000 0.227890 0.952164
Zn9   Zn    Zn3+2 0.000000 0.420260 0.727890 0.952639
Zn10  Zn    Zn3+2 0.420260 1.000000 0.272110 0.951632
Zn11  Zn    Zn3+2 0.579740 0.000000 0.727890 0.952968
Zn12  Zn    Zn3+2 0.000000 0.420260 0.272110 0.953216
Zn13  Zn    Zn3+2 0.000000 0.579740 0.727890 0.951540
Zn14  Zn    Zn3+2 0.579740 1.000000 0.272110 0.952767
Zn15  Zn    Zn3+2 0.420260 0.000000 0.727890 0.951238
Zn16  Zn    Zn3+2 0.500000 0.079740 0.772110 0.951283

loop_
_geom_bond_atom_site_label_1
_geom_bond_atom_site_label_2
_ccdc_geom_bond_type
C33   C208  S    
C105  H7    S    
C79   O49   S    
C10   C63   A    
C199  O15   A    
C25   H71   S    
C76   H94   S    
C114  C115  S    
C22   H69   S    
C87   H115  S    
C83   C154  S    
C197  O42   A    
C190  O2    A    
C71   H76   S    
C119  H38   S    
C166  H79   S    
C108  H16   S    
C134  O64   S    
C46   C198  A    
C106  C107  S    
O42   Zn1   S    
C7    O37   A    
C168  H101  S    
C97   H138  S    
C36   C53   T    
C92   H120  S    
C78   H89   S    
C38   C55   T    
C201  O41   A    
C75   H80   S    
C26   C43   T    
C88   H111  S    
C125  O55   S    
C13   C103  S    
C1    C136  A    
O20   Zn6   S    
C35   C109  S    
C75   H81   S    
O5    Zn11  S    
C167  C180  A    
C38   C204  S    
C170  H123  S    
C86   C165  S    
C12   C167  A    
C104  C105  S    
O11   Zn9   S    
C98   H133  S    
C28   C45   T    
O40   Zn10  S    
C202  O47   A    
O24   Zn4   S    
C50   C53   S    
C40   C58   T    
C150  C159  A    
C51   C52   S    
C124  C137  A    
C36   C197  S    
O46   Zn15  S    
C128  N6    A    
C179  C188  A    
C99   H5    S    
C83   H109  S    
C7    C28   S    
C124  N2    A    
C177  H46   S    
C80   H102  S    
C3    O26   A    
C39   C56   T    
O12   Zn9   S    
C131  N5    A    
O34   Zn11  S    
C61   C196  S    
C82   H97   S    
C128  C150  A    
C162  H1    S    
C40   C202  S    
C6    O29   A    
C133  O63   S    
C130  C152  A    
C158  C159  A    
C25   C69   A    
O1    Zn8   S    
C69   C189  S    
O2    Zn7   S    
C91   C92   S    
C186  N4    S    
C94   H129  S    
O27   Zn7   S    
O48   Zn13  S    
C207  O35   A    
C117  H42   S    
C125  C138  A    
C90   O50   S    
C1    C70   S    
C113  C144  A    
O45   Zn4   S    
C185  N1    S    
C200  O16   A    
C93   H132  S    
C8    C162  A    
C194  O6    A    
C136  C153  A    
C179  H53   S    
O29   Zn5   S    
C78   H87   S    
C201  O17   A    
C74   H83   S    
C104  H9    S    
C90   C141  A    
C122  H44   S    
C178  C186  A    
C127  N5    A    
C139  C157  A    
C7    O30   A    
C168  C181  A    
C106  H19   S    
C89   C176  S    
C142  C156  A    
C109  C110  S    
O44   Zn14  S    
C88   H113  S    
C128  O59   S    
C114  H36   S    
C107  H18   S    
C145  C158  A    
C163  C181  A    
C111  H23   S    
C17   H63   S    
C122  H45   S    
C18   H64   S    
C97   C98   S    
O47   Zn12  S    
O8    Zn12  S    
C96   C198  S    
O66   Zn6   S    
C30   C48   T    
C44   C59   S    
C115  C116  S    
C14   C62   A    
O23   Zn14  S    
C137  C155  A    
O37   Zn10  S    
C23   C67   A    
C119  H39   S    
C110  C111  S    
C139  C143  A    
C27   C44   T    
C20   C174  A    
C24   C57   A    
C21   C175  A    
O1    Zn4   S    
C107  C108  S    
C89   C91   S    
C149  C158  A    
C162  C180  A    
C152  C161  A    
C110  H25   S    
C103  H12   S    
C77   H91   S    
C189  O68   A    
C112  C154  A    
C66   C191  S    
C88   H110  S    
C180  N6    S    
C91   H121  S    
C22   C177  A    
C147  C160  A    
C182  N8    S    
C82   H96   S    
C85   H104  S    
C135  O65   S    
C6    O36   A    
C169  C182  A    
C126  C139  A    
O7    Zn13  S    
C174  H24   S    
C100  H144  S    
C197  O14   A    
C102  H142  S    
C196  O8    A    
C95   H128  S    
C200  O40   A    
C98   H136  S    
C116  H29   S    
C181  N5    S    
C73   H86   S    
C72   H72   S    
C101  C142  A    
C129  N7    A    
C83   C84   S    
C172  C185  A    
C70   H77   S    
C63   C194  S    
O6    Zn10  S    
C109  H27   S    
C114  H34   S    
C2    C99   S    
C192  O4    A    
O21   Zn5   S    
C111  H21   S    
O35   Zn1   S    
C24   C106  S    
C13   C147  A    
C204  O20   A    
C120  C121  S    
C81   H99   S    
C73   C112  S    
C5    C30   S    
C105  H6    S    
O32   Zn14  S    
C84   H106  S    
C113  O52   S    
O4    Zn16  S    
C131  O62   S    
C16   H62   S    
C18   C66   A    
C194  O10   A    
O12   Zn13  S    
C100  H3    S    
C141  C165  A    
C71   H75   S    
O39   Zn12  S    
O34   Zn15  S    
C119  H37   S    
C145  C198  A    
C117  C118  S    
C68   C120  S    
C76   C132  S    
O68   Zn8   S    
C208  O31   A    
C193  O9    A    
O18   Zn4   S    
C57   C151  A    
C11   H58   S    
C131  C145  A    
C4    O27   A    
O1    Zn12  S    
C97   H137  S    
C206  O22   A    
C129  O60   S    
C101  O51   S    
C133  N6    A    
C72   H73   S    
C86   H116  S    
C144  C157  A    
C126  N4    A    
C121  H49   S    
C47   C56   S    
C13   C68   A    
C2    C35   A    
C48   C55   S    
C87   C88   S    
C39   C203  S    
C96   H139  S    
C73   C74   S    
C26   C207  S    
C173  H13   S    
C95   H126  S    
C67   C190  S    
C83   H108  S    
C77   C78   S    
O26   Zn2   S    
C134  C147  A    
C116  H31   S    
C62   C195  S    
C129  C151  A    
C85   H105  S    
O33   Zn9   S    
C132  C138  A    
C80   H100  S    
C177  C185  A    
C9    C163  A    
C191  O66   A    
C23   H70   S    
C207  O24   A    
C19   C67   A    
C70   C71   S    
C153  C155  A    
C140  C153  A    
C188  N3    S    
O43   Zn9   S    
C79   C140  A    
C105  H8    S    
O1    Zn1   S    
C130  O61   S    
O15   Zn7   S    
C143  C176  A    
C31   C49   T    
C75   H82   S    
C21   H67   S    
C132  C187  A    
O31   Zn15  S    
C76   H93   S    
C94   H130  S    
C190  O56   A    
C45   C58   S    
O36   Zn11  S    
C183  N7    S    
C171  C184  A    
C37   C205  S    
C84   C85   S    
C108  H15   S    
C86   C87   S    
C141  C155  A    
C142  C176  A    
C208  O25   A    
C90   N2    A    
C205  O46   A    
C93   H131  S    
C19   C173  A    
C96   C97   S    
C68   C152  A    
C92   H119  S    
C199  O43   A    
C74   H84   S    
C104  H10   S    
C121  C122  S    
C29   C47   T    
C167  H90   S    
C4    O38   A    
O56   Zn3   S    
C106  H20   S    
C5    O39   A    
C41   C201  S    
C122  H47   S    
C204  O44   A    
C57   C117  S    
C3    O32   A    
O13   Zn1   S    
O38   Zn13  S    
C113  N4    A    
O12   Zn3   S    
C21   C65   A    
O23   Zn6   S    
C189  O45   A    
C112  C137  A    
C164  H68   S    
C166  C183  A    
C118  H41   S    
C124  O54   S    
O19   Zn3   S    
C25   C179  A    
O3    Zn2   S    
C33   C51   T    
C120  H51   S    
O41   Zn11  S    
C34   C52   T    
C27   C206  S    
C134  N7    A    
C151  C160  A    
C12   C61   A    
C193  O5    A    
C195  O7    A    
C202  O18   A    
C3    C32   S    
C4    C31   S    
C164  C182  A    
C191  O3    A    
C16   C170  A    
C71   C72   S    
C6    C29   S    
C103  C104  S    
O67   Zn5   S    
C133  C146  A    
C35   C149  A    
C171  H134  S    
C127  C149  A    
C110  H26   S    
C87   H114  S    
C103  H11   S    
C175  C184  A    
O14   Zn8   S    
C93   C94   S    
C116  H30   S    
C170  C183  A    
C101  N3    A    
C89   H124  S    
C81   C82   S    
C117  H43   S    
C85   H103  S    
C175  H35   S    
C123  N1    A    
C148  C161  A    
C156  C157  A    
C102  H143  S    
C127  O58   S    
C172  H2    S    
C95   H127  S    
C115  H32   S    
C49   C54   S    
O9    Zn15  S    
C107  H17   S    
C15   C169  A    
C73   H85   S    
C118  C119  S    
C22   C66   A    
C23   C178  A    
C169  H112  S    
C174  C188  A    
C78   H88   S    
C34   C199  S    
C79   N1    A    
C84   H107  S    
C11   C166  A    
C184  N2    S    
C8    C61   A    
O23   Zn2   S    
C125  N3    A    
C163  H57   S    
C203  O19   A    
C14   H60   S    
C81   H98   S    
C99   H4    S    
C115  H33   S    
C173  C186  A    
C74   C75   S    
C46   C114  S    
C9    C62   A    
C206  O33   A    
C76   C77   S    
C41   C59   T    
C11   C64   A    
C24   C148  A    
C42   C60   T    
C195  O11   A    
C146  C159  A    
C70   H78   S    
C89   H125  S    
O34   Zn16  S    
C108  H14   S    
C99   C100  S    
C65   C192  S    
C1    C165  A    
C80   C143  S    
C64   C193  S    
C192  O67   A    
C100  C102  S    
C94   C95   S    
O30   Zn6   S    
C32   C50   T    
C178  H52   S    
C43   C60   S    
O28   Zn8   S    
C77   H92   S    
C92   H118  S    
C37   C54   T    
C93   C187  S    
O16   Zn2   S    
C46   C150  A    
C20   C69   A    
O25   Zn16  S    
C91   H122  S    
C72   H74   S    
C86   H117  S    
C8    H54   S    
C82   H95   S    
C121  H48   S    
C138  C156  A    
C111  H22   S    
C10   C164  A    
C96   H140  S    
C5    O28   A    
C102  H141  S    
C80   C81   S    
C98   H135  S    
C17   C171  A    
C18   C172  A    
C196  O13   A    
C2    C146  A    
C126  O57   S    
C16   C64   A    
C203  O48   A    
C118  H40   S    
C17   C65   A    
O10   Zn14  S    
C130  N8    A    
C123  C136  A    
C160  C161  A    
C42   C200  S    
C12   H59   S    
O17   Zn16  S    
C19   H65   S    
C120  H50   S    
C9    H55   S    
C10   H56   S    
C135  N8    A    
C20   H66   S    
C109  H28   S    
C205  O21   A    
C135  C148  A    
O12   Zn7   S    
O23   Zn10  S    
C15   C63   A    
C123  O53   S    
C15   H61   S    
O34   Zn5   S    
C14   C168  A    
C144  C187  A    
O22   Zn3   S    
C140  C154  A    
