data_mof_unit_37659.cif
_audit_creation_date              2012-12-10T20:32:01-0500
_audit_creation_method            fapswitch 2.2
_symmetry_space_group_name_H-M    P1
_symmetry_Int_Tables_number       1
_space_group_crystal_system       triclinic
_cell_length_a                    9.945754
_cell_length_b                    10.723184
_cell_length_c                    15.21374
_cell_angle_alpha                 92.01682
_cell_angle_beta                  70.477935
_cell_angle_gamma                 89.658966
_cell_volume                      1528.05448289

loop_
_atom_site_label
_atom_site_type_symbol
_atom_type_description
_atom_site_fract_x
_atom_site_fract_y
_atom_site_fract_z
_atom_type_partial_charge
C1    C     C_R   0.504779 0.738745 0.491713 0.898934
C2    C     C_R   0.434602 0.370233 0.899851 0.051203
C3    C     C_R   0.303868 0.312564 0.941573 -0.004709
C4    C     C_R   0.539678 0.369271 0.942414 0.062612
C5    C     C_R   0.500834 0.351487 0.038398 -0.009614
C6    C     C_R   0.369587 0.289732 0.082269 -0.046214
C7    C     C_R   0.274130 0.269115 0.032264 -0.049589
C8    C     C_R   0.684080 0.380627 0.890059 -0.139829
C9    C     C_R   0.783724 0.407134 0.932844 -0.125012
C10   C     C_R   0.739845 0.427322 0.029829 0.068830
C11   C     C_R   0.596133 0.398281 0.083619 0.093769
C12   C     C_R   0.412033 0.483848 0.674526 0.928605
C13   C     C_R   0.833921 0.476727 0.074516 -0.004558
C14   C     C_R   0.782918 0.496864 0.171471 -0.106859
C15   C     C_R   0.547321 0.431294 0.178722 -0.267807
C16   C     C_R   0.390738 0.934651 0.482112 0.027203
C17   C     C_R   0.514120 0.870276 0.478857 -0.217838
C18   C     C_R   0.638300 0.936197 0.475355 0.384195
C19   C     C_R   0.629064 0.063796 0.489383 -0.192221
C20   C     C_R   0.503046 0.127605 0.496048 -0.193451
C21   C     C_R   0.384483 0.062824 0.491357 0.181386
C22   C     C_3   0.313088 0.074804 0.419772 -0.366773
C23   C     C_R   0.500786 0.260196 0.498974 0.912174
C24   C     C_3   0.324934 0.934658 0.406736 -0.405428
C25   C     C_R   0.914969 0.604742 0.527544 0.150251
C26   C     C_R   0.952658 0.406527 0.455701 0.435011
C27   C     C_R   0.094772 0.405382 0.457803 -0.090559
C28   C     C_R   0.056477 0.605496 0.527360 0.068075
C29   C     C_3   0.015857 0.685299 0.616627 0.227250
C30   C     C_3   0.860859 0.681977 0.616599 -0.284364
C31   C     C_R   0.587936 0.497106 0.324140 0.870336
C32   C     C_R   0.363508 0.428677 0.768375 -0.194907
C33   C     C_R   0.640073 0.477062 0.222907 -0.102048
C34   C     C_R   0.209898 0.297426 0.889806 0.287223
C35   C     C_R   0.242257 0.351721 0.801533 0.337893
C36   C     C_R   0.455584 0.436276 0.819387 -0.287301
H1    H     H_    0.176467 0.219908 0.064918 0.234929
H2    H     H_    0.723404 0.112930 0.489886 0.251700
H3    H     H_    0.201024 0.109452 0.451180 0.249785
H4    H     H_    0.378769 0.124420 0.357395 0.185066
H5    H     H_    0.220015 0.888637 0.426398 0.246786
H6    H     H_    0.400902 0.902465 0.337534 0.205897
H7    H     H_    0.167064 0.329098 0.423828 0.165546
H8    H     H_    0.435344 0.425497 0.218881 0.170081
H9    H     H_    0.813330 0.772334 0.607634 0.200145
H10   H     H_    0.853284 0.533468 0.206901 0.211504
H11   H     H_    0.892873 0.415911 0.888338 0.213818
H12   H     H_    0.543446 0.497370 0.797773 0.201060
H13   H     H_    0.720267 0.362895 0.815844 0.240296
N1    N     N_R   0.856900 0.500860 0.500610 -0.115520
N2    N     N_R   0.142540 0.500820 0.500610 -0.101067
O1    O     O_R   0.385310 0.683210 0.499990 -0.638521
O2    O     O_R   0.614650 0.683240 0.500000 -0.581161
O3    O     O_R   0.319830 0.499970 0.632240 -0.509873
O4    O     O_R   0.549170 0.500000 0.632250 -0.613603
O5    O     O_R   0.385350 0.316760 0.500000 -0.609753
O6    O     O_R   0.614690 0.316790 0.500010 -0.578222
O7    O     O_R   0.450830 0.500000 0.367750 -0.631961
O8    O     O_R   0.680170 0.500030 0.367760 -0.578068
Zn1   Zn    Zn3+2 0.346870 0.499980 0.499990 1.017708
Zn2   Zn    Zn3+2 0.653130 0.500020 0.500010 1.050985
C37   C     C_2   0.982204 0.515316 0.022548 0.432428
H14   H     H_    0.017393 0.529454 0.948311 0.089774
O9    O     O_2   0.067849 0.534398 0.063090 -0.549329
Cl1   Cl    Cl    0.811274 0.868804 0.442115 -0.567098
Cl2   Cl    Cl    0.908389 0.290456 0.386830 -0.533881
Cl3   Cl    Cl    0.045998 0.614264 0.713672 -0.564677
C38   C     C_2   0.080626 0.812752 0.604507 0.420274
H15   H     H_    0.184619 0.824439 0.611385 0.113644
O10   O     O_2   0.016986 0.904113 0.591268 -0.541006
C39   C     C_2   0.763652 0.612826 0.694861 0.543541
H16   H     H_    0.683698 0.663486 0.751583 0.035208
O11   O     O_2   0.779961 0.500393 0.697094 -0.560840
Cl4   Cl    Cl    0.057092 0.204261 0.931687 -0.566020
Cl5   Cl    Cl    0.137200 0.312185 0.731430 -0.479202
C40   C     C_2   0.340698 0.227302 0.172180 0.392210
H17   H     H_    0.427224 0.207209 0.198234 0.059505
O12   O     O_2   0.220443 0.195523 0.217405 -0.507957

loop_
_geom_bond_atom_site_label_1
_geom_bond_atom_site_label_2
_ccdc_geom_bond_type
C8    C9    A    
C16   C21   A    
C24   H6    S    
C30   H9    S    
C19   C20   A    
C4    C8    A    
C14   C33   A    
C30   C39   S    
C23   O5    A    
C14   H10   S    
O3    Zn1   S    
C25   C28   A    
C35   Cl5   S    
C26   C27   A    
C37   H14   S    
C32   C36   A    
C31   O7    A    
C28   C29   S    
C40   O12   D    
C15   H8    S    
C5    C11   A    
C3    C7    A    
C26   N1    A    
C5    C6    A    
C28   N2    A    
O7    Zn1   S    
C34   C35   A    
C31   O8    A    
C1    O2    A    
C25   N1    A    
C37   O9    D    
O1    Zn1   S    
C29   Cl3   S    
O2    Zn2   S    
C13   C37   S    
C16   C17   A    
C31   C33   S    
C9    C10   A    
C16   C24   S    
C13   C14   A    
C12   C32   S    
C24   H5    S    
C11   C15   A    
C27   N2    A    
O8    Zn2   S    
C26   Cl2   S    
C32   C35   A    
C40   H17   S    
C39   O11   D    
C18   C19   A    
C3    C34   A    
O5    Zn1   S    
C18   Cl1   S    
C2    C4    A    
C29   C30   S    
C19   H2    S    
C29   C38   S    
C20   C23   S    
C22   H4    S    
C17   C18   A    
C7    H1    S    
O6    Zn2   S    
C34   Cl4   S    
C9    H11   S    
C22   C24   S    
C2    C36   A    
C25   C30   S    
C23   O6    A    
C38   H15   S    
C4    C5    A    
C10   C13   A    
C6    C40   S    
C6    C7    A    
C1    C17   S    
C2    C3    A    
C39   H16   S    
C22   H3    S    
O4    Zn2   S    
C36   H12   S    
C1    O1    A    
C12   O4    A    
C10   C11   A    
C27   H7    S    
C20   C21   A    
C38   O10   D    
N1    Zn2   S    
N2    Zn1   S    
C21   C22   S    
C8    H13   S    
C15   C33   A    
C12   O3    A    
