data_mof_unit_60562.cif
_audit_creation_date              2012-12-10T21:33:24-0500
_audit_creation_method            fapswitch 2.2
_symmetry_space_group_name_H-M    P1
_symmetry_Int_Tables_number       1
_space_group_crystal_system       triclinic
_cell_length_a                    14.160697
_cell_length_b                    16.150987
_cell_length_c                    16.654301
_cell_angle_alpha                 86.279099
_cell_angle_beta                  90.311435
_cell_angle_gamma                 92.093713
_cell_volume                      3798.40766989

loop_
_atom_site_label
_atom_site_type_symbol
_atom_type_description
_atom_site_fract_x
_atom_site_fract_y
_atom_site_fract_z
_atom_type_partial_charge
C1    C     C_R   0.500430 0.487790 0.653055 1.045451
C2    C     C_R   0.501351 0.512181 0.346621 1.028285
C3    C     C_R   0.585237 0.426179 0.860892 0.336209
C4    C     C_R   0.483839 0.589281 0.129102 0.331177
C5    C     C_R   0.581279 0.435528 0.776960 0.258411
C6    C     C_R   0.467836 0.582194 0.212111 0.253213
C7    C     C_R   0.448901 0.763775 0.465068 0.564091
C8    C     C_R   0.547595 0.236012 0.538321 0.559170
C9    C     C_R   0.451631 0.850608 0.466941 0.462205
C10   C     C_R   0.545011 0.149170 0.536475 0.460460
C11   C     C_R   0.519148 0.890438 0.515959 -0.079001
C12   C     C_R   0.481198 0.109587 0.484045 -0.077449
C13   C     C_R   0.581275 0.840068 0.561761 0.188842
C14   C     C_R   0.422222 0.160163 0.435217 0.188463
C15   C     C_R   0.575803 0.753372 0.557749 0.570427
C16   C     C_R   0.427464 0.246851 0.439280 0.579440
C17   C     C_R   0.670925 0.499770 0.500065 0.906584
C18   C     C_R   0.329073 0.500229 0.499940 0.900398
C19   C     C_1   0.772326 0.499393 0.500155 -0.052153
C20   C     C_1   0.227662 0.500580 0.500000 -0.062147
C21   C     C_1   0.857531 0.499440 0.500207 0.080970
C22   C     C_1   0.142452 0.500503 0.500068 0.077666
C23   C     C_1   0.957380 0.499777 0.500202 0.093340
C24   C     C_1   0.042600 0.500145 0.500153 0.093058
C25   C     C_R   0.505302 0.476755 0.739629 -0.407760
C26   C     C_R   0.515704 0.522188 0.260223 -0.419790
C27   C     C_R   0.432412 0.505861 0.785072 0.529604
C28   C     C_R   0.582651 0.473259 0.226186 0.529181
C29   C     C_R   0.435961 0.496061 0.868433 0.298281
C30   C     C_R   0.597968 0.479895 0.143818 0.291863
C31   C     C_R   0.514185 0.458957 0.906368 -0.009687
C32   C     C_R   0.544671 0.535003 0.094591 -0.003780
N1    N     N_2   0.524213 0.459672 0.990138 -0.017651
N2    N     N_2   0.543297 0.531289 0.010433 -0.023275
N3    N     N_R   0.510540 0.716920 0.509720 -0.259414
N4    N     N_R   0.489460 0.283080 0.490280 -0.257118
N5    N     N_2   0.527396 0.978855 0.521997 0.048857
N6    N     N_2   0.473052 0.021168 0.478005 0.048635
O1    O     O_R   0.496230 0.422540 0.612660 -0.572271
O2    O     O_R   0.503770 0.577460 0.387340 -0.573187
O3    O     O_R   0.503000 0.561840 0.618900 -0.545688
O4    O     O_R   0.497000 0.438160 0.381100 -0.526303
O5    O     O_R   0.622900 0.430330 0.496880 -0.540743
O6    O     O_R   0.377100 0.569670 0.503120 -0.546528
O7    O     O_R   0.629670 0.569640 0.503120 -0.576298
O8    O     O_R   0.370330 0.430360 0.496880 -0.577999
Zn1   Zn    Zn3+2 0.495480 0.406980 0.495830 1.133746
Zn2   Zn    Zn3+2 0.504520 0.593020 0.504170 1.124529
F1    F     F_    0.634009 0.419588 0.273375 -0.579670
F2    F     F_    0.357687 0.542942 0.748162 -0.581108
Cl1   Cl    Cl    0.685431 0.419593 0.104180 -0.314805
Cl2   Cl    Cl    0.341500 0.529953 0.924701 -0.324616
Cl3   Cl    Cl    0.680736 0.376319 0.909147 -0.296518
Cl4   Cl    Cl    0.423759 0.663081 0.067068 -0.308568
Cl5   Cl    Cl    0.674332 0.400180 0.719190 -0.367105
Cl6   Cl    Cl    0.382823 0.644198 0.253838 -0.330735
F3    F     F_    0.608678 0.273398 0.588624 -0.522358
F4    F     F_    0.383733 0.726177 0.418529 -0.522528
F5    F     F_    0.604409 0.105324 0.585740 -0.512478
F6    F     F_    0.388350 0.894175 0.421401 -0.511271
Cl7   Cl    Cl    0.666707 0.884796 0.624565 -0.285580
Cl8   Cl    Cl    0.341067 0.115706 0.368509 -0.282703
F7    F     F_    0.635863 0.705355 0.602146 -0.557380
F8    F     F_    0.370229 0.295066 0.392187 -0.556894

loop_
_geom_bond_atom_site_label_1
_geom_bond_atom_site_label_2
_ccdc_geom_bond_type
C3    C31   A    
C23   C24   T    
C17   O5    A    
N5    N6    D    
C18   O6    A    
C8    F3    S    
C25   C27   A    
C9    C11   A    
C28   F1    S    
C7    F4    S    
C26   C28   A    
C27   F2    S    
C30   Cl1   S    
C9    F6    S    
C5    Cl5   S    
C7    C9    A    
C28   C30   A    
N1    N2    D    
C2    C26   S    
C6    C26   A    
C16   N4    A    
C30   C32   A    
C11   C13   A    
C3    Cl3   S    
C4    C32   A    
C10   C12   A    
C2    O4    A    
C5    C25   A    
N3    Zn2   S    
C18   O8    A    
C22   C24   S    
C15   N3    A    
C19   C21   T    
O3    Zn2   S    
C20   C22   T    
C10   F5    S    
C18   C20   S    
O4    Zn1   S    
C13   C15   A    
C21   C23   S    
C12   N6    S    
C17   O7    A    
C14   C16   A    
C4    C6    A    
C27   C29   A    
C31   N1    S    
C1    O1    A    
C14   Cl8   S    
C2    O2    A    
C7    N3    A    
C13   Cl7   S    
C6    Cl6   S    
N4    Zn1   S    
O1    Zn1   S    
C8    N4    A    
O7    Zn2   S    
C1    O3    A    
C11   N5    S    
C15   F7    S    
O8    Zn1   S    
C17   C19   S    
C16   F8    S    
C4    Cl4   S    
C29   C31   A    
O5    Zn1   S    
O2    Zn2   S    
C1    C25   S    
C8    C10   A    
O6    Zn2   S    
C12   C14   A    
C3    C5    A    
C29   Cl2   S    
C32   N2    S    
