data_mof_unit_9816.cif
_audit_creation_date              2012-12-10T17:36:22-0500
_audit_creation_method            fapswitch 2.2
_symmetry_space_group_name_H-M    P1
_symmetry_Int_Tables_number       1
_space_group_crystal_system       triclinic
_cell_length_a                    12.385051
_cell_length_b                    13.243155
_cell_length_c                    15.852364
_cell_angle_alpha                 76.489742
_cell_angle_beta                  101.173845
_cell_angle_gamma                 116.747475
_cell_volume                      2245.80432511

loop_
_atom_site_label
_atom_site_type_symbol
_atom_type_description
_atom_site_fract_x
_atom_site_fract_y
_atom_site_fract_z
_atom_type_partial_charge
C1    C     C_R   0.854961 0.286771 0.506086 0.912611
C2    C     C_3   0.065310 0.427252 0.072925 0.509019
C3    C     C_3   0.997066 0.496814 0.083100 -0.057078
C4    C     C_3   0.058669 0.620818 0.033538 -0.364807
C5    C     C_3   0.055646 0.619836 0.935566 0.462499
C6    C     C_1   0.998412 0.498194 0.175290 0.075955
C7    C     C_1   0.996850 0.496367 0.824959 0.153984
C8    C     C_1   0.998782 0.498278 0.749287 -0.013676
C9    C     C_R   0.268865 0.035152 0.419490 0.729641
C10   C     C_R   0.229806 0.835701 0.469086 -0.239127
C11   C     C_R   0.812934 0.080698 0.553988 0.577833
C12   C     C_R   0.999934 0.499796 0.659516 0.878949
C13   C     C_R   0.730520 0.966747 0.574506 0.257540
C14   C     C_R   0.606964 0.935769 0.550857 -0.253008
C15   C     C_R   0.564030 0.013607 0.495559 0.100416
C16   C     C_R   0.647999 0.128137 0.471904 -0.024174
C17   C     C_R   0.438588 0.981851 0.467582 -0.075825
C18   C     C_R   0.395777 0.066893 0.427787 -0.163651
C19   C     C_R   0.481459 0.177483 0.394616 0.422233
C20   C     C_R   0.605411 0.203637 0.413289 -0.210431
C21   C     C_R   0.354826 0.866576 0.475260 0.560698
C22   C     C_R   0.187871 0.921209 0.443778 -0.308858
C23   C     C_R   0.145419 0.713579 0.485441 0.856462
C24   C     C_R   0.772038 0.163817 0.507554 -0.261875
C25   C     C_R   0.328706 0.309310 0.626461 -0.182087
C26   C     C_R   0.764262 0.652420 0.387365 0.002162
C27   C     C_R   0.670168 0.686682 0.363560 0.589001
C28   C     C_R   0.564164 0.627207 0.405134 -0.168666
C29   C     C_R   0.550087 0.531491 0.471472 -0.094622
C30   C     C_R   0.648903 0.498985 0.494302 0.100938
C31   C     C_R   0.442581 0.468498 0.516870 -0.009814
C32   C     C_R   0.430796 0.368200 0.578975 -0.139036
C33   C     C_R   0.522846 0.330717 0.595114 0.326732
C34   C     C_R   0.000088 0.500239 0.340458 0.767410
C35   C     C_R   0.633086 0.401585 0.561090 0.564714
C36   C     C_R   0.344036 0.499436 0.502482 0.033855
C37   C     C_R   0.238366 0.346642 0.611361 0.842527
C38   C     C_3   0.068857 0.430629 0.975075 -0.423760
C39   C     C_3   0.860804 0.436710 0.943360 0.828545
C40   C     C_3   0.864234 0.440469 0.041546 -0.542745
C41   C     C_1   0.999339 0.499262 0.250834 -0.091601
C42   C     C_3   0.994473 0.494286 0.917322 -0.140700
Cu1   Cu    Cu3+1 0.098280 0.475420 0.519630 1.096985
Cu2   Cu    Cu3+1 0.901720 0.524580 0.480370 1.036204
H1    H     H_    0.017833 0.336573 0.104729 0.149170
H2    H     H_    0.164747 0.475003 0.959087 0.280926
H3    H     H_    0.010913 0.671878 0.040505 0.167607
H4    H     H_    0.091612 0.899346 0.438365 0.212839
H5    H     H_    0.545860 0.851235 0.579093 0.255863
H6    H     H_    0.034027 0.342320 0.961206 0.215938
H7    H     H_    0.668623 0.283568 0.380223 0.193369
H8    H     H_    0.317780 0.235738 0.676754 0.239472
H9    H     H_    0.342029 0.570849 0.454176 0.184567
H10   H     H_    0.846399 0.699265 0.354926 0.158065
H11   H     H_    0.494450 0.657699 0.383507 0.188318
H12   H     H_    0.817217 0.353076 0.079078 0.220638
H13   H     H_    0.814283 0.489934 0.047732 0.245896
H14   H     H_    0.003865 0.668215 0.896245 0.174016
H15   H     H_    0.154290 0.663498 0.062331 0.270182
N1    N     N_R   0.246300 0.438200 0.549400 -0.261938
N2    N     N_R   0.754300 0.561180 0.451130 -0.220732
O1    O     O_R   0.972520 0.318130 0.524690 -0.484609
O2    O     O_R   0.806530 0.359650 0.491530 -0.544851
O3    O     O_R   0.083030 0.479240 0.637150 -0.547333
O4    O     O_R   0.917040 0.520750 0.603990 -0.495589
O5    O     O_R   0.193470 0.640350 0.508470 -0.527367
O6    O     O_R   0.027480 0.681870 0.475310 -0.609536
O7    O     O_R   0.082960 0.479250 0.396010 -0.578875
O8    O     O_R   0.916970 0.520760 0.362850 -0.588863
F1    F     F_    0.182882 0.471076 0.113707 -0.596944
S1    S     S_3+6 0.439670 0.280803 0.320851 0.071956
O9    O     O_2   0.549583 0.380607 0.284445 -0.297016
O10   O     O_2   0.353198 0.225659 0.247016 -0.186328
O11   O     O_3   0.371135 0.329628 0.372554 -0.487066
H16   H     H_    0.351049 0.386330 0.327712 0.394328
F2    F     F_    0.221080 0.112608 0.391264 -0.567663
F3    F     F_    0.394281 0.785484 0.476865 -0.676887
F4    F     F_    0.931858 0.110822 0.584210 -0.543138
S2    S     S_3+6 0.781529 0.863461 0.634930 0.115334
O12   O     O_2   0.819879 0.884639 0.727437 -0.154680
O13   O     O_2   0.682449 0.744083 0.634322 -0.277444
O14   O     O_3   0.901867 0.875763 0.592173 -0.431225
H17   H     H_    0.870005 0.856883 0.532785 0.336709
F5    F     F_    0.140779 0.289877 0.657770 -0.573428
S3    S     S_3+6 0.505195 0.196090 0.661863 0.089332
O15   O     O_2   0.504569 0.202887 0.755062 -0.173534
O16   O     O_2   0.386372 0.103587 0.632488 -0.297130
O17   O     O_3   0.617899 0.161032 0.655751 -0.460371
H18   H     H_    0.594239 0.082304 0.689207 0.381216
F6    F     F_    0.681797 0.778315 0.299886 -0.617441
F7    F     F_    0.724053 0.376886 0.604157 -0.579550
F8    F     F_    0.798983 0.499417 0.893803 -0.615706
S4    S     S_3+6 0.773963 0.290610 0.923458 0.079256
O18   O     O_2   0.643444 0.254434 0.935549 -0.166916
O19   O     O_2   0.781039 0.282163 0.831950 -0.210437
O20   O     O_3   0.824583 0.201347 0.994444 -0.583783
H19   H     H_    0.770650 0.124163 0.979807 0.408781
F9    F     F_    0.173065 0.676122 0.911251 -0.598768

loop_
_geom_bond_atom_site_label_1
_geom_bond_atom_site_label_2
_ccdc_geom_bond_type
C22   H4    S    
C5    C42   S    
C13   S2    S    
S4    O18   D    
C16   C24   A    
C19   S1    S    
C19   C20   A    
C3    C6    S    
C1    O1    A    
C7    C8    T    
S3    O15   D    
C10   C22   A    
C26   C27   A    
C30   C35   A    
C23   O5    A    
C28   C29   A    
C26   N2    A    
C38   C42   S    
C20   H7    S    
C12   O3    A    
C9    C22   A    
C14   H5    S    
C15   C16   A    
C26   H10   S    
C11   C24   A    
C27   F6    S    
C18   C19   A    
C7    C42   S    
C23   O6    A    
C33   S3    S    
C39   S4    S    
C36   H9    S    
C25   C37   A    
Cu1   O7    S    
C40   H12   S    
C6    C41   T    
C37   F5    S    
C9    F2    S    
C8    C12   S    
C25   C32   A    
C2    H1    S    
C13   C14   A    
Cu2   O4    S    
C34   C41   S    
C1    O2    A    
C28   H11   S    
Cu1   O3    S    
C39   C42   S    
S3    O16   D    
C10   C21   A    
O11   H16   S    
C34   O7    A    
C39   C40   S    
S2    O13   D    
C17   C21   A    
Cu1   Cu2   S    
Cu2   O2    S    
C29   C30   A    
C11   F4    S    
S2    O14   S    
C2    C38   S    
C31   C32   A    
C16   C20   A    
O20   H19   S    
C17   C18   A    
Cu2   O8    S    
C5    F9    S    
C34   O8    A    
Cu1   N1    S    
C5    H14   S    
C3    C40   S    
S4    O20   S    
Cu2   N2    S    
C3    C4    S    
C39   F8    S    
S1    O10   D    
S3    O17   S    
C15   C17   A    
C40   H13   S    
C14   C15   A    
C4    C5    S    
C36   N1    A    
S1    O11   S    
C38   H6    S    
C10   C23   S    
C12   O4    A    
C32   C33   A    
C2    C3    S    
C25   H8    S    
S1    O9    D    
C29   C31   A    
C11   C13   A    
Cu1   O5    S    
C4    H15   S    
C33   C35   A    
C38   H2    S    
C37   N1    A    
S2    O12   D    
C9    C18   A    
O17   H18   S    
C1    C24   S    
S4    O19   D    
O14   H17   S    
C30   N2    A    
C21   F3    S    
C27   C28   A    
C31   C36   A    
Cu2   O6    S    
C2    F1    S    
Cu1   O1    S    
C4    H3    S    
C35   F7    S    
