data_mof_unit_9426.cif
_audit_creation_date              2012-12-10T19:47:22-0500
_audit_creation_method            fapswitch 2.2
_symmetry_space_group_name_H-M    P1
_symmetry_Int_Tables_number       1
_space_group_crystal_system       triclinic
_cell_length_a                    15.019828
_cell_length_b                    14.1487
_cell_length_c                    10.729088
_cell_angle_alpha                 90.047448
_cell_angle_beta                  90.016051
_cell_angle_gamma                 89.977617
_cell_volume                      2280.04860861

loop_
_atom_site_label
_atom_site_type_symbol
_atom_type_description
_atom_site_fract_x
_atom_site_fract_y
_atom_site_fract_z
_atom_type_partial_charge
C1    C     C_R   0.327581 0.499829 0.499270 1.105582
C2    C     C_R   0.951578 0.502182 0.508382 0.059971
C3    C     C_R   0.531811 0.104633 0.396035 0.135589
C4    C     C_R   0.468352 0.104725 0.604032 0.136221
C5    C     C_R   0.530469 0.204435 0.398540 -0.056522
C6    C     C_R   0.469608 0.204537 0.601494 -0.055181
C7    C     C_R   0.500141 0.053103 0.500048 0.260986
C8    C     C_R   0.552239 0.895168 0.585470 0.437276
C9    C     C_R   0.447970 0.895225 0.414646 0.427875
C10   C     C_R   0.551517 0.795653 0.583468 0.527317
C11   C     C_R   0.448497 0.795741 0.416648 0.533510
C12   C     C_R   0.672191 0.499968 0.501386 0.878487
C13   C     C_R   0.500173 0.946552 0.500017 -0.315861
C14   C     C_R   0.497299 0.499974 0.260367 1.006365
C15   C     C_R   0.498503 0.500158 0.739754 0.975609
C16   C     C_R   0.339060 0.565829 0.128678 0.633176
C17   C     C_R   0.340417 0.567534 0.870103 0.563287
C18   C     C_R   0.264962 0.600202 0.064256 0.045613
C19   C     C_R   0.266149 0.602268 0.933737 0.031932
C20   C     C_R   0.417316 0.534609 0.934313 -0.172665
C21   C     C_R   0.416850 0.534399 0.065167 -0.199763
C22   C     C_R   0.493402 0.500109 0.128087 -0.109484
C23   C     C_R   0.231563 0.499809 0.499856 -0.143796
C24   C     C_R   0.494449 0.500811 0.872085 -0.100610
C25   C     C_R   0.568549 0.465700 0.065110 0.159641
C26   C     C_R   0.570058 0.468446 0.936366 0.099160
C27   C     C_R   0.094701 0.583306 0.537430 -0.193898
C28   C     C_R   0.905434 0.578244 0.455971 -0.170233
C29   C     C_R   0.186468 0.582737 0.533073 -0.131821
C30   C     C_R   0.813597 0.577692 0.455386 -0.256723
C31   C     C_3   0.706870 0.488670 0.179667 -0.755201
C32   C     C_3   0.705383 0.520599 0.835068 -0.673473
C33   C     C_3   0.129819 0.562421 0.175391 -0.699223
C34   C     C_R   0.767838 0.500277 0.505036 -0.173206
C35   C     C_3   0.200938 0.730292 0.816661 -0.712343
C36   C     C_3   0.656323 0.025121 0.300705 -0.722567
C37   C     C_3   0.344397 0.024241 0.699465 -0.719350
C38   C     C_R   0.184193 0.417686 0.468209 0.592859
C39   C     C_R   0.814039 0.424092 0.557930 0.610152
C40   C     C_R   0.092356 0.419036 0.470690 -0.263892
C41   C     C_R   0.905887 0.425702 0.560513 -0.255401
C42   C     C_R   0.047652 0.501473 0.506131 0.038712
F1    F     F_    0.604791 0.941041 0.668775 -0.592597
F2    F     F_    0.395413 0.941137 0.331439 -0.592225
F3    F     F_    0.602943 0.747133 0.665180 -0.596947
F4    F     F_    0.396888 0.747400 0.334999 -0.558818
F5    F     F_    0.332729 0.563629 0.253981 -0.652375
F6    F     F_    0.334169 0.564259 0.744897 -0.699852
F7    F     F_    0.226023 0.337148 0.431817 -0.643000
F8    F     F_    0.770724 0.349556 0.609621 -0.658675
H1    H     H_    0.060526 0.647199 0.565953 0.156733
H2    H     H_    0.751120 0.450558 0.245437 0.239583
H3    H     H_    0.675182 0.548552 0.229714 0.229593
H4    H     H_    0.748580 0.516351 0.102871 0.247792
H5    H     H_    0.641544 0.392253 0.803803 0.272254
H6    H     H_    0.772472 0.494028 0.809638 0.242620
H7    H     H_    0.712659 0.572871 0.911513 0.247134
H8    H     H_    0.676067 0.557063 0.753432 0.251802
H9    H     H_    0.158816 0.692135 0.094254 0.235951
H10   H     H_    0.095999 0.528904 0.094569 0.211655
H11   H     H_    0.165834 0.507370 0.229049 0.271611
H12   H     H_    0.940370 0.637047 0.413757 0.152722
H13   H     H_    0.078711 0.594554 0.237031 0.232470
H14   H     H_    0.130312 0.622724 0.903836 0.227595
H15   H     H_    0.142717 0.747865 0.757240 0.225103
H16   H     H_    0.262114 0.736757 0.759095 0.269166
H17   H     H_    0.204144 0.781536 0.895076 0.231877
H18   H     H_    0.554796 0.093308 0.206857 0.241086
H19   H     H_    0.675585 0.985236 0.215714 0.249407
H20   H     H_    0.663936 0.977492 0.382185 0.253941
H21   H     H_    0.701697 0.086660 0.311345 0.240713
H22   H     H_    0.445162 0.093837 0.793238 0.240813
H23   H     H_    0.222043 0.646707 0.557342 0.207981
H24   H     H_    0.325488 0.984400 0.784561 0.244869
H25   H     H_    0.337302 0.976243 0.618188 0.252236
H26   H     H_    0.298385 0.085233 0.688530 0.245787
H27   H     H_    0.778423 0.636558 0.413566 0.189713
H28   H     H_    0.056103 0.356128 0.443450 0.178158
H29   H     H_    0.941372 0.367448 0.603270 0.174186
H30   H     H_    0.555122 0.243732 0.319294 0.147848
H31   H     H_    0.444991 0.243921 0.680773 0.145775
H32   H     H_    0.668757 0.365659 0.089117 0.252912
N1    N     N_R   0.500000 0.252470 0.500000 -0.102856
N2    N     N_R   0.500000 0.747550 0.500000 -0.265643
N3    N     N_2   0.640711 0.423711 0.132121 -0.305849
N4    N     N_2   0.649813 0.442088 0.872919 -0.319863
N5    N     N_2   0.190718 0.634794 0.133193 -0.236011
N6    N     N_2   0.191609 0.635100 0.863949 -0.264101
N7    N     N_2   0.565194 0.056988 0.288938 -0.268772
N8    N     N_2   0.435186 0.057173 0.711249 -0.268695
O1    O     O_R   0.369060 0.579480 0.500010 -0.531942
O2    O     O_R   0.630940 0.579480 0.499990 -0.613193
O3    O     O_R   0.369050 0.420520 0.500010 -0.581013
O4    O     O_R   0.630950 0.420520 0.499990 -0.565403
O5    O     O_R   0.500000 0.579490 0.316770 -0.556551
O6    O     O_R   0.500000 0.579490 0.683230 -0.536692
O7    O     O_R   0.499990 0.420540 0.316770 -0.633797
O8    O     O_R   0.500010 0.420540 0.683230 -0.662490
Zn1   Zn    Zn3+2 0.500000 0.606140 0.500000 1.091806
Zn2   Zn    Zn3+2 0.500000 0.393860 0.500000 1.026358

loop_
_geom_bond_atom_site_label_1
_geom_bond_atom_site_label_2
_ccdc_geom_bond_type
C36   N7    S    
C37   H24   S    
C8    C13   A    
C31   N3    S    
C27   C29   A    
C8    F1    S    
C32   H8    S    
C31   H2    S    
C39   C41   A    
C38   F7    S    
C16   C21   A    
C37   N8    S    
C23   C29   A    
C24   C26   A    
C3    C7    A    
C5    N1    A    
O5    Zn1   S    
C29   H23   S    
C35   H15   S    
C2    C41   A    
O6    Zn1   S    
C17   C20   A    
C18   C19   A    
C9    C13   A    
C30   H27   S    
C20   C24   A    
C36   H20   S    
C22   C25   A    
C17   F6    S    
O4    Zn2   S    
C36   H21   S    
C33   H13   S    
C40   C42   A    
C37   H25   S    
C1    O1    A    
C6    H31   S    
C21   C22   A    
C12   O4    A    
C32   H7    S    
C4    C7    A    
C16   F5    S    
C27   H1    S    
C4    N8    S    
C30   C34   A    
C34   C39   A    
C4    C6    A    
C19   N6    S    
C15   O6    A    
C35   H16   S    
C25   C26   A    
C1    O3    A    
H22   N8    S    
C35   N6    S    
C35   H17   S    
C26   N4    S    
C32   N4    S    
C10   F3    S    
C25   N3    S    
H18   N7    S    
C16   C18   A    
C31   H3    S    
C5    H30   S    
C9    C11   A    
O3    Zn2   S    
C33   H11   S    
C15   C24   S    
C37   H26   S    
C1    C23   S    
C33   H10   S    
O8    Zn2   S    
N1    Zn2   S    
C40   H28   S    
C15   O8    A    
C12   C34   S    
C23   C38   A    
C14   O5    A    
O7    Zn2   S    
C36   H19   S    
C14   O7    A    
C9    F2    S    
C6    N1    A    
N2    Zn1   S    
C12   O2    A    
C3    C5    A    
C41   H29   S    
C11   N2    A    
H32   N3    S    
C18   N5    S    
C3    N7    S    
C14   C22   S    
H5    N4    S    
C28   C30   A    
C33   N5    S    
C38   C40   A    
C27   C42   A    
C2    C42   S    
C10   N2    A    
C17   C19   A    
C32   H6    S    
C31   H4    S    
H9    N5    S    
C7    C13   S    
C39   F8    S    
C20   C21   A    
C8    C10   A    
C11   F4    S    
C2    C28   A    
O1    Zn1   S    
H14   N6    S    
O2    Zn1   S    
C28   H12   S    
