data_mof_unit_41512.cif
_audit_creation_date              2012-12-11T17:25:00-0500
_audit_creation_method            fapswitch 2.2
_symmetry_space_group_name_H-M    P1
_symmetry_Int_Tables_number       1
_space_group_crystal_system       triclinic
_cell_length_a                    6.952174
_cell_length_b                    20.544945
_cell_length_c                    24.353465
_cell_angle_alpha                 90.439258
_cell_angle_beta                  90.654097
_cell_angle_gamma                 89.610806
_cell_volume                      3478.04781671

loop_
_atom_site_label
_atom_site_type_symbol
_atom_type_description
_atom_site_fract_x
_atom_site_fract_y
_atom_site_fract_z
_atom_type_partial_charge
O1    O     O_R   0.507280 0.423750 0.460310 -0.533990
O2    O     O_R   0.171030 0.555650 0.437630 -0.535963
O3    O     O_R   0.004080 0.576250 0.539690 -0.525870
C1    C     C_R   0.338933 0.575735 0.421841 0.726958
O4    O     O_R   0.177330 0.422980 0.453960 -0.535371
O5    O     O_R   0.010420 0.442640 0.556140 -0.528648
C2    C     C_R   0.346185 0.399070 0.443022 0.730834
O6    O     O_R   0.500930 0.557360 0.443860 -0.530614
O7    O     O_3   0.340310 0.506600 0.533500 -0.359484
V1    V     V_3+5 0.064140 0.498780 0.493780 1.566666
O8    O     O_R   0.680890 0.444350 0.562370 -0.533006
C3    C     C_R   0.850601 0.424364 0.578087 0.753978
O9    O     O_R   0.674590 0.577020 0.546040 -0.537351
C4    C     C_R   0.843006 0.601114 0.556739 0.817148
V2    V     V_3+5 0.564550 0.501220 0.506220 1.564750
O10   O     O_3   0.838250 0.493400 0.466500 -0.371281
C5    C     C_R   0.965626 0.837621 0.911131 -0.361880
C6    C     C_R   0.846433 0.663208 0.587723 -0.210071
C7    C     C_R   0.901056 0.721738 0.910438 0.129715
C8    C     C_R   0.935417 0.779686 0.939169 0.511039
C9    C     C_R   0.960976 0.837742 0.853398 0.589982
C10   C     C_R   0.902868 0.781244 0.823097 -0.024529
C11   C     C_R   0.882606 0.722128 0.852439 -0.156561
C12   C     C_R   0.864236 0.781104 0.764907 -0.093748
C13   C     C_R   0.847521 0.720595 0.735765 -0.053633
C14   C     C_R   0.810695 0.664054 0.766927 0.282693
C15   C     C_R   0.833192 0.665185 0.823792 -0.109559
C16   C     C_R   0.816335 0.838646 0.736043 0.684180
C17   C     C_R   0.784479 0.837913 0.679277 0.099101
C18   C     C_R   0.802829 0.779527 0.649093 -0.133673
C19   C     C_R   0.843763 0.720478 0.676923 -0.054359
C20   C     C_R   0.776539 0.778685 0.591662 -0.082097
C21   C     C_R   0.790888 0.720954 0.561537 0.063599
C22   C     C_R   0.885000 0.664138 0.644596 0.600545
H1    H     H_    0.801293 0.621058 0.845579 0.179347
H2    H     H_    0.740700 0.822427 0.569395 0.189151
C23   C     C_R   0.741317 0.292343 0.747015 0.146269
C24   C     C_R   0.886567 0.295630 0.707039 0.038475
C25   C     C_R   0.046597 0.254009 0.711089 -0.127437
H3    H     H_    0.158971 0.255874 0.680680 0.171874
C26   C     C_R   0.064234 0.209783 0.754340 -0.126592
H4    H     H_    0.190019 0.178439 0.756543 0.163743
C27   C     C_R   0.921568 0.205842 0.794350 0.035433
C28   C     C_R   0.758438 0.247122 0.790676 0.155287
C29   C     C_1   0.873713 0.341299 0.661564 0.069669
C30   C     C_1   0.944432 0.159236 0.838891 0.069709
C31   C     C_1   0.960243 0.120773 0.876407 -0.072606
C32   C     C_1   0.862820 0.379299 0.623613 -0.087670
C33   C     C_R   0.586247 0.749591 0.219565 0.631138
C34   C     C_R   0.440380 0.795022 0.206881 -0.054260
C35   C     C_R   0.271201 0.795007 0.237839 -0.155687
H5    H     H_    0.156794 0.829477 0.228763 0.188237
C36   C     C_R   0.247702 0.750541 0.280781 -0.109865
H6    H     H_    0.116075 0.751882 0.304149 0.176763
C37   C     C_R   0.392296 0.704833 0.293497 -0.022125
C38   C     C_R   0.562859 0.704631 0.262523 0.106883
C39   C     C_1   0.462022 0.841052 0.161859 0.131226
C40   C     C_1   0.365503 0.659157 0.338530 0.096929
C41   C     C_1   0.348805 0.621044 0.376263 -0.101140
C42   C     C_1   0.476089 0.879226 0.124042 -0.080476
C43   C     C_R   0.478642 0.162342 0.089504 -0.412371
C44   C     C_R   0.356330 0.336927 0.412300 -0.103828
C45   C     C_R   0.585062 0.273949 0.097675 0.683081
C46   C     C_R   0.556661 0.217966 0.066203 0.459435
C47   C     C_R   0.428479 0.163202 0.145383 0.624064
C48   C     C_R   0.479427 0.217086 0.180192 -0.140329
C49   C     C_R   0.549930 0.274044 0.154676 -0.368756
C50   C     C_R   0.462743 0.216798 0.239049 -0.064559
C51   C     C_R   0.479712 0.276416 0.269593 -0.153223
C52   C     C_R   0.565815 0.330272 0.243284 0.077465
C53   C     C_R   0.594503 0.329183 0.186625 0.757216
C54   C     C_R   0.452565 0.158319 0.269231 0.702877
C55   C     C_R   0.422702 0.158836 0.325875 0.058885
C56   C     C_R   0.402316 0.218177 0.354519 -0.064925
C57   C     C_R   0.426401 0.277752 0.326321 0.096512
C58   C     C_R   0.362492 0.219196 0.411172 -0.080681
C59   C     C_R   0.344025 0.277728 0.440089 0.123986
C60   C     C_R   0.388142 0.336469 0.355432 -0.149959
H7    H     H_    0.377446 0.382254 0.334168 0.147413
H8    H     H_    0.346955 0.174739 0.433988 0.178268
O11   O     O_R   0.323320 0.942780 0.056240 -0.537082
O12   O     O_R   0.647300 0.077050 0.046060 -0.538176
O13   O     O_R   0.813840 0.057330 0.943840 -0.531297
C61   C     C_R   0.479112 0.101142 0.057018 0.892417
O14   O     O_R   0.653250 0.944380 0.062400 -0.533839
O15   O     O_R   0.819830 0.923720 0.960300 -0.541773
C62   C     C_R   0.485350 0.924443 0.078322 0.734964
O16   O     O_R   0.317330 0.076390 0.039790 -0.529440
O17   O     O_3   0.483830 0.993470 0.966560 -0.378650
V3    V     V_3+5 0.760140 0.001210 0.006210 1.610489
O18   O     O_R   0.149290 0.922840 0.953850 -0.534663
C63   C     C_R   0.980084 0.899025 0.942906 0.879190
O19   O     O_R   0.143340 0.055500 0.937510 -0.540474
C64   C     C_R   0.973554 0.075489 0.921789 0.752885
V4    V     V_3+5 0.259690 0.998600 0.993650 1.608299
O20   O     O_3   0.986130 0.006520 0.033440 -0.373218
I1    I     I_    0.539536 0.240082 0.851245 -0.190867
I2    I     I_    0.498449 0.356284 0.740709 -0.252045
I3    I     I_    0.788448 0.637041 0.279317 -0.206802
F1    F     F_    0.751005 0.748873 0.190131 -0.629562
F2    F     F_    0.675481 0.381992 0.163083 -0.549510
F3    F     F_    0.974627 0.611677 0.667160 -0.663463
I4    I     I_    0.295209 0.273738 0.525980 -0.375798
I5    I     I_    0.412063 0.066410 0.365334 -0.180408
F4    F     F_    0.655358 0.327226 0.072241 -0.516412
F5    F     F_    0.605510 0.218012 0.012343 -0.606464
F6    F     F_    0.320561 0.113223 0.163699 -0.615353
I6    I     I_    0.724522 0.405146 0.285607 -0.247032
F7    F     F_    0.500701 0.100352 0.245975 -0.596830
I7    I     I_    0.734463 0.724588 0.475640 -0.357968
I8    I     I_    0.706353 0.928417 0.642222 -0.176669
I9    I     I_    0.870897 0.636100 0.958583 -0.062355
F8    F     F_    0.940697 0.779647 0.994968 -0.630243
F9    F     F_    0.026768 0.891618 0.827944 -0.618297
I10   I     I_    0.645435 0.582984 0.737743 -0.198943
F10   F     F_    0.768963 0.894192 0.763311 -0.596958

loop_
_geom_bond_atom_site_label_1
_geom_bond_atom_site_label_2
_ccdc_geom_bond_type
C13   C19   A    
C48   C50   A    
C37   C38   A    
O19   C64   A    
C55   C56   A    
C4    C6    S    
C44   C59   A    
O2    C1    A    
V4    O20   S    
C1    O6    A    
C25   C26   A    
C36   H6    S    
C14   C15   A    
C17   C18   A    
C56   C58   A    
C20   H2    S    
C16   C17   A    
O5    C3    A    
C8    F8    S    
O11   V4    S    
C27   C30   S    
V2    O10   S    
C5    C8    A    
C26   H4    S    
C14   I10   S    
C24   C29   S    
C16   F10   S    
C54   F7    S    
O8    V2    S    
C55   I5    S    
C7    C8    A    
C50   C51   A    
C52   C53   A    
O1    V2    S    
C11   C15   A    
C45   F4    S    
O7    V1    S    
C3    C32   S    
O14   C62   A    
C48   C49   A    
C53   F2    S    
O16   V4    S    
O19   V4    S    
O9    C4    A    
C26   C27   A    
C5    C63   S    
C23   I2    S    
C57   C60   A    
C42   C62   S    
C44   C60   A    
C36   C37   A    
C45   C49   A    
C56   C57   A    
C35   H5    S    
C61   O16   A    
C58   C59   A    
O15   V3    S    
C25   H3    S    
O4    C2    A    
C60   H7    S    
C54   C55   A    
C39   C42   T    
C15   H1    S    
C13   C14   A    
C7    I9    S    
O13   C64   A    
C5    C9    A    
C35   C36   A    
O17   V4    S    
C43   C46   A    
C7    C11   A    
C27   C28   A    
C2    C44   S    
C23   C24   A    
C28   I1    S    
C18   C19   A    
C50   C54   A    
C34   C35   A    
C19   C22   A    
C22   F3    S    
C12   C13   A    
V3    O20   S    
C6    C22   A    
O11   C62   A    
O3    C4    A    
C47   C48   A    
O6    V2    S    
O12   C61   A    
O9    V2    S    
C10   C12   A    
C59   I4    S    
C58   H8    S    
O2    V1    S    
O18   C63   A    
C29   C32   T    
O13   V3    S    
C30   C31   T    
O1    C2    A    
C34   C39   S    
C17   I8    S    
C12   C16   A    
C9    F9    S    
C43   C61   S    
O5    V1    S    
O14   V3    S    
C46   F5    S    
C33   C38   A    
O12   V3    S    
C20   C21   A    
C23   C28   A    
O7    V2    S    
O4    V1    S    
O3    V1    S    
O15   C63   A    
C33   F1    S    
C18   C20   A    
C24   C25   A    
C1    C41   S    
C31   C64   S    
C47   F6    S    
C51   C57   A    
C49   C53   A    
C51   C52   A    
C6    C21   A    
C40   C41   T    
O18   V4    S    
C45   C46   A    
C43   C47   A    
C33   C34   A    
C37   C40   S    
C10   C11   A    
V1    O10   S    
C21   I7    S    
C38   I3    S    
O17   V3    S    
C9    C10   A    
C52   I6    S    
O8    C3    A    
