data_mof_unit_50792.cif
_audit_creation_date              2012-12-10T18:31:49-0500
_audit_creation_method            fapswitch 2.2
_symmetry_space_group_name_H-M    P1
_symmetry_Int_Tables_number       1
_space_group_crystal_system       triclinic
_cell_length_a                    10.696683
_cell_length_b                    15.041113
_cell_length_c                    15.474852
_cell_angle_alpha                 82.303322
_cell_angle_beta                  90.061855
_cell_angle_gamma                 104.757965
_cell_volume                      2384.50519533

loop_
_atom_site_label
_atom_site_type_symbol
_atom_type_description
_atom_site_fract_x
_atom_site_fract_y
_atom_site_fract_z
_atom_type_partial_charge
C1    C     C_R   0.482720 0.441886 0.662003 0.976110
C2    C     C_3   0.121801 0.500183 0.499788 -0.062854
C3    C     C_3   0.104445 0.586104 0.435382 0.112080
C4    C     C_3   0.075605 0.504383 0.595541 0.767843
C5    C     C_R   0.491746 0.407219 0.753829 -0.107876
C6    C     C_R   0.546167 0.593698 0.245189 -0.112042
C7    C     C_R   0.553441 0.297290 0.865035 0.530875
C8    C     C_R   0.524753 0.323438 0.778253 -0.439106
C9    C     C_R   0.482536 0.464086 0.816033 0.435040
C10   C     C_R   0.536683 0.448994 0.897995 -0.188388
C11   C     C_R   0.561203 0.361018 0.925903 0.002988
C12   C     C_R   0.742256 0.500980 0.499530 0.986855
C13   C     C_R   0.566079 0.519236 0.952538 0.076209
C14   C     C_R   0.580895 0.494231 0.041839 0.075203
C15   C     C_R   0.598711 0.405364 0.070833 -0.347576
C16   C     C_R   0.593662 0.339941 0.013381 0.518741
C17   C     C_R   0.586864 0.614308 0.919638 -0.184349
C18   C     C_R   0.601154 0.681030 0.975513 -0.145257
C19   C     C_R   0.590170 0.654226 0.065906 0.043781
C20   C     C_R   0.578204 0.559584 0.099153 0.064221
C21   C     C_R   0.587917 0.718766 0.124075 0.401502
C22   C     C_R   0.566451 0.688064 0.213399 -0.216348
C23   C     C_R   0.520836 0.558174 0.337862 0.899347
C24   C     C_R   0.553357 0.530930 0.188249 -0.212779
C25   C     C_R   0.646423 0.831517 0.662535 0.403951
C26   C     C_R   0.636761 0.748221 0.628604 0.447734
C27   C     C_R   0.524699 0.796737 0.506315 -0.063501
C28   C     C_R   0.536030 0.884301 0.534756 -0.095084
C29   C     C_R   0.592346 0.899471 0.616900 -0.080711
C30   C     C_R   0.490720 0.956015 0.485032 0.066948
C31   C     C_R   0.498663 0.040807 0.518971 0.043033
C32   C     C_R   0.544093 0.049670 0.603231 -0.289322
C33   C     C_R   0.591204 0.981837 0.651426 0.478353
C34   C     C_R   0.258149 0.499562 0.499228 0.971300
C35   C     C_R   0.439072 0.946000 0.401917 -0.223845
C36   C     C_R   0.391419 0.014478 0.354853 0.404243
C37   C     C_R   0.399213 0.098086 0.387799 -0.041549
C38   C     C_R   0.457100 0.113627 0.468735 -0.015528
C39   C     C_R   0.351197 0.167067 0.340704 -0.200800
C40   C     C_R   0.361757 0.250455 0.372048 0.544364
C41   C     C_R   0.473726 0.202873 0.494899 -0.099411
C42   C     C_3   0.896483 0.408110 0.474724 -0.587850
C43   C     C_3   0.039367 0.411284 0.466313 -0.631833
C44   C     C_3   0.957594 0.583528 0.429190 0.757980
C45   C     C_3   0.931402 0.510024 0.593256 0.080462
C46   C     C_3   0.879697 0.502417 0.498880 -0.097572
H1    H     H_    0.849357 0.391228 0.412714 0.253191
H2    H     H_    0.532621 0.458255 0.213893 0.197599
H3    H     H_    0.562945 0.737618 0.257526 0.191417
H4    H     H_    0.614863 0.752749 0.947115 0.234684
H5    H     H_    0.529632 0.278736 0.729626 0.179558
H6    H     H_    0.849124 0.349988 0.526074 0.216243
H7    H     H_    0.624564 0.387368 0.137134 0.149791
H8    H     H_    0.594148 0.638086 0.850286 0.235130
H9    H     H_    0.528399 0.223835 0.550456 0.143963
H10   H     H_    0.472719 0.776194 0.449755 0.159533
H11   H     H_    0.056609 0.346829 0.502842 0.256033
H12   H     H_    0.541472 0.108632 0.635076 0.162972
H13   H     H_    0.434397 0.885626 0.370615 0.167722
H14   H     H_    0.303821 0.157190 0.279597 0.230484
H15   H     H_    0.066092 0.411511 0.396732 0.218536
H16   H     H_    0.144370 0.581415 0.369873 0.065468
H17   H     H_    0.871543 0.449437 0.637172 0.134194
N1    N     N_R   0.573860 0.731700 0.552730 -0.165355
N2    N     N_R   0.426060 0.268290 0.447230 -0.154681
O1    O     O_R   0.462770 0.383110 0.605620 -0.639204
O2    O     O_R   0.510160 0.531900 0.639510 -0.548249
O3    O     O_R   0.661510 0.425600 0.483070 -0.651103
O4    O     O_R   0.708900 0.574390 0.516960 -0.581161
O5    O     O_R   0.489840 0.468100 0.360490 -0.615387
O6    O     O_R   0.537230 0.616890 0.394380 -0.629423
O7    O     O_R   0.291100 0.425610 0.483040 -0.671224
O8    O     O_R   0.338490 0.574400 0.516930 -0.523690
Zn1   Zn    Zn3+2 0.468350 0.400660 0.477370 0.947562
Zn2   Zn    Zn3+2 0.531650 0.599340 0.522630 1.044866
O9    O     O_3   0.154150 0.583112 0.626880 -0.652170
H18   H     H_    0.134883 0.576734 0.690532 0.383217
O10   O     O_3   0.937492 0.668823 0.445820 -0.709482
H19   H     H_    0.970408 0.715442 0.393829 0.371755
O11   O     O_3   0.174496 0.669937 0.462603 -0.681115
H20   H     H_    0.199089 0.716475 0.409532 0.339448
O12   O     O_3   0.617308 0.254902 0.042467 -0.639808
H21   H     H_    0.637217 0.251328 0.105243 0.341685
O13   O     O_3   0.579909 0.212365 0.889727 -0.625701
H22   H     H_    0.569444 0.177063 0.839307 0.362275
O14   O     O_3   0.413986 0.530296 0.796172 -0.720174
H23   H     H_    0.372347 0.538301 0.850806 0.346569
Cl1   Cl    Cl    0.607000 0.837896 0.088136 -0.487295
Cl2   Cl    Cl    0.639955 0.005276 0.757203 -0.473810
O15   O     O_3   0.309759 0.314186 0.322783 -0.770564
H24   H     H_    0.285959 0.353567 0.362174 0.370713
Cl3   Cl    Cl    0.325601 0.992348 0.252728 -0.534517
O16   O     O_3   0.711108 0.848461 0.738607 -0.675517
H25   H     H_    0.746690 0.796086 0.762635 0.381924
O17   O     O_3   0.686609 0.682315 0.676208 -0.762803
H26   H     H_    0.713816 0.646439 0.635102 0.412538
O18   O     O_3   0.912495 0.569220 0.344714 -0.790595
H27   H     H_    0.949117 0.521888 0.322830 0.315689
O19   O     O_3   0.912853 0.588446 0.626994 -0.728289
H28   H     H_    0.973219 0.644947 0.596263 0.427324
O20   O     O_3   0.088725 0.425136 0.651881 -0.773602
H29   H     H_    0.020090 0.370139 0.640702 0.317256

loop_
_geom_bond_atom_site_label_1
_geom_bond_atom_site_label_2
_ccdc_geom_bond_type
C12   O4    A    
C25   O16   S    
O16   H25   S    
O17   H26   S    
C19   C20   A    
C32   H12   S    
C27   H10   S    
O18   H27   S    
C7    C8    A    
C45   C46   S    
C7    C11   A    
C12   O3    A    
C43   H15   S    
O20   H29   S    
C30   C35   A    
C1    C5    S    
C15   H7    S    
C36   C37   A    
C19   C21   A    
C30   C31   A    
C6    C23   S    
O3    Zn1   S    
C15   C16   A    
O1    Zn1   S    
C29   C33   A    
C35   H13   S    
C18   C19   A    
C42   C46   S    
C26   N1    A    
C41   H9    S    
C31   C32   A    
O5    Zn1   S    
C9    C10   A    
C36   Cl3   S    
C7    O13   S    
C21   Cl1   S    
C21   C22   A    
O8    Zn2   S    
C23   O5    A    
C3    O11   S    
C44   C46   S    
C1    O1    A    
C4    C45   S    
C25   C29   A    
C3    C44   S    
C24   H2    S    
C14   C20   A    
O13   H22   S    
C38   C41   A    
C12   C46   S    
C45   O19   S    
C39   C40   A    
O10   H19   S    
C41   N2    A    
C25   C26   A    
C45   H17   S    
N2    Zn1   S    
C35   C36   A    
C2    C4    S    
C5    C9    A    
C37   C38   A    
C33   Cl2   S    
C9    O14   S    
C44   O18   S    
O19   H28   S    
C2    C43   S    
C6    C24   A    
C4    O20   S    
C16   O12   S    
C17   C18   A    
O9    H18   S    
C8    H5    S    
C22   H3    S    
O7    Zn1   S    
C40   N2    A    
O2    Zn2   S    
C42   C43   S    
C34   O7    A    
C18   H4    S    
C3    H16   S    
C26   O17   S    
C28   C29   A    
O14   H23   S    
O11   H20   S    
C10   C13   A    
C5    C8    A    
C31   C38   A    
C13   C17   A    
C10   C11   A    
C32   C33   A    
C44   O10   S    
C2    C3    S    
C37   C39   A    
O6    Zn2   S    
C2    C34   S    
O15   H24   S    
C39   H14   S    
C28   C30   A    
C1    O2    A    
N1    Zn2   S    
O4    Zn2   S    
C42   H1    S    
C4    O9    S    
C11   C16   A    
C27   N1    A    
C43   H11   S    
C34   O8    A    
C23   O6    A    
O12   H21   S    
C27   C28   A    
C14   C15   A    
C40   O15   S    
C13   C14   A    
C17   H8    S    
C20   C24   A    
C42   H6    S    
C6    C22   A    
