data_mof_unit_40995.cif
_audit_creation_date              2012-12-11T15:45:05-0500
_audit_creation_method            fapswitch 2.2
_symmetry_space_group_name_H-M    P1
_symmetry_Int_Tables_number       1
_space_group_crystal_system       triclinic
_cell_length_a                    6.928803
_cell_length_b                    16.86365
_cell_length_c                    17.00919
_cell_angle_alpha                 100.398063
_cell_angle_beta                  88.427721
_cell_angle_gamma                 91.552951
_cell_volume                      1953.56687332

loop_
_atom_site_label
_atom_site_type_symbol
_atom_type_description
_atom_site_fract_x
_atom_site_fract_y
_atom_site_fract_z
_atom_type_partial_charge
O1    O     O_R   0.494370 0.415690 0.413450 -0.542690
O2    O     O_R   0.819420 0.429360 0.578420 -0.541151
O3    O     O_R   0.994280 0.584310 0.586550 -0.501952
C1    C     C_R   0.646326 0.413222 0.604777 0.733545
O4    O     O_R   0.823790 0.406230 0.413570 -0.555958
O5    O     O_R   0.998670 0.561000 0.420530 -0.526454
C2    C     C_R   0.654915 0.382453 0.385521 0.677238
O6    O     O_R   0.489970 0.439000 0.579470 -0.549943
O7    O     O_3   0.662300 0.550810 0.502470 -0.345949
V1    V     V_3+5 0.935380 0.490570 0.499540 1.498171
O8    O     O_R   0.328650 0.570640 0.421580 -0.539506
C3    C     C_R   0.163189 0.587571 0.395668 0.826559
O9    O     O_R   0.324290 0.593770 0.586430 -0.517900
C4    C     C_R   0.154872 0.617024 0.614937 0.855245
V2    V     V_3+5 0.435930 0.509430 0.500460 1.521939
O10   O     O_3   0.159140 0.449190 0.497530 -0.401206
C5    C     C_R   0.291014 0.746270 0.695265 0.333132
C6    C     C_R   0.281524 0.809185 0.761719 0.521334
C7    C     C_R   0.120820 0.815790 0.815066 -0.470358
C8    C     C_R   0.970437 0.757530 0.800831 0.526132
C9    C     C_R   0.981876 0.693444 0.736040 0.532509
C10   C     C_R   0.143037 0.686236 0.682968 -0.461732
C11   C     C_R   0.167263 0.640465 0.333929 -0.325645
C12   C     C_R   0.099714 0.863652 0.169015 -0.111414
C13   C     C_R   0.965023 0.835153 0.296225 0.492731
C14   C     C_R   0.971344 0.881265 0.234529 -0.309096
C15   C     C_R   0.219769 0.797287 0.163926 -0.144546
C16   C     C_R   0.204920 0.746036 0.221325 -0.137589
C17   C     C_R   0.074995 0.764258 0.287871 -0.114137
C18   C     C_R   0.060217 0.711628 0.344564 0.513051
C19   C     C_R   0.288270 0.621318 0.265625 0.256614
C20   C     C_R   0.315387 0.675816 0.212022 0.330185
H1    H     H_    0.877225 0.932098 0.238288 0.119017
H2    H     H_    0.318174 0.783663 0.112928 0.170362
C21   C     C_R   0.618281 0.359326 0.664734 -0.066757
C22   C     C_R   0.646387 0.140478 0.835070 -0.069331
C23   C     C_R   0.863765 0.196402 0.742139 -0.202895
C24   C     C_R   0.825996 0.142222 0.794092 -0.151843
C25   C     C_R   0.503283 0.193643 0.821574 -0.238783
C26   C     C_R   0.541223 0.248951 0.769690 0.158837
C27   C     C_R   0.723253 0.250640 0.729884 0.161250
C28   C     C_R   0.761286 0.306051 0.678105 -0.239547
C29   C     C_R   0.438520 0.357428 0.705569 -0.143751
C30   C     C_R   0.400654 0.303142 0.757400 -0.197735
H3    H     H_    0.899811 0.306271 0.646904 0.119221
H4    H     H_    0.325093 0.397794 0.697012 0.136376
H5    H     H_    0.003651 0.196198 0.711999 0.119284
H6    H     H_    0.260699 0.303279 0.787476 0.124274
H7    H     H_    0.939399 0.101852 0.802669 0.131885
H8    H     H_    0.364797 0.193470 0.852812 0.121448
C31   C     C_R   0.810352 0.287304 0.271669 -0.161435
H9    H     H_    0.949009 0.316979 0.285520 0.113880
C32   C     C_R   0.798929 0.223759 0.206226 -0.160479
H10   H     H_    0.929597 0.206044 0.171869 0.118874
C33   C     C_R   0.621078 0.184426 0.184787 -0.038606
C34   C     C_R   0.455649 0.209412 0.231467 -0.155309
H11   H     H_    0.316844 0.179945 0.217391 0.113823
C35   C     C_R   0.467668 0.272215 0.297598 -0.165096
H12   H     H_    0.337531 0.289407 0.332541 0.114804
C36   C     C_R   0.644478 0.312936 0.317774 -0.037963
O11   O     O_R   0.774880 0.061150 0.920630 -0.548438
O12   O     O_R   0.440980 0.093710 0.086500 -0.551336
O13   O     O_R   0.266190 0.938890 0.079390 -0.546030
C37   C     C_R   0.609784 0.116646 0.115377 0.653967
O14   O     O_R   0.445420 0.070740 0.921670 -0.539957
O15   O     O_R   0.270660 0.915760 0.913380 -0.502082
C38   C     C_R   0.618480 0.086801 0.895229 0.738866
O16   O     O_R   0.770400 0.084270 0.086640 -0.550632
O17   O     O_3   0.602590 0.949210 0.997500 -0.340983
V3    V     V_3+5 0.329470 0.009420 0.000470 1.473034
O18   O     O_R   0.940650 0.906250 0.913470 -0.503109
C39   C     C_R   0.109899 0.883471 0.884529 0.873299
O19   O     O_R   0.936210 0.929220 0.078300 -0.540425
C40   C     C_R   0.101701 0.913519 0.105148 0.700981
V4    V     V_3+5 0.828930 0.990510 0.999490 1.517673
O20   O     O_3   0.105680 0.050790 0.002500 -0.395306
O21   O     O_3   0.448232 0.743237 0.643097 -0.490967
C41   C     C_3   0.402696 0.783777 0.580401 0.060318
H13   H     H_    0.404025 0.850099 0.602320 0.146243
H14   H     H_    0.258879 0.764401 0.554660 0.099892
C42   C     C_3   0.553429 0.764814 0.513514 -0.521330
H15   H     H_    0.551055 0.699250 0.489123 0.236823
H16   H     H_    0.521980 0.797637 0.464483 0.180627
H17   H     H_    0.699210 0.782971 0.536714 0.247178
F1    F     F_    0.427665 0.865174 0.772151 -0.635623
F2    F     F_    0.813868 0.760933 0.851046 -0.604586
F3    F     F_    0.836178 0.637256 0.726588 -0.614481
F4    F     F_    0.944230 0.729341 0.410712 -0.679266
O22   O     O_3   0.379412 0.547981 0.250975 -0.542569
C43   C     C_3   0.280279 0.495522 0.190082 0.120845
H18   H     H_    0.329942 0.507007 0.130374 0.173554
H19   H     H_    0.120060 0.501764 0.195713 0.095729
C44   C     C_3   0.323991 0.409002 0.195209 -0.718681
H20   H     H_    0.268238 0.395937 0.253390 0.212539
H21   H     H_    0.252012 0.367111 0.146223 0.174635
H22   H     H_    0.482241 0.399671 0.190115 0.235451
O23   O     O_3   0.844209 0.856573 0.362728 -0.523494
C45   C     C_3   0.892701 0.935481 0.402593 0.128937
H23   H     H_    0.824810 0.980875 0.372843 0.101291
H24   H     H_    0.052184 0.946858 0.404442 0.101685
C46   C     C_3   0.816360 0.947177 0.488482 -0.679190
H25   H     H_    0.884579 0.903857 0.520600 0.232218
H26   H     H_    0.851609 0.009418 0.519540 0.167640
H27   H     H_    0.657140 0.937906 0.489677 0.212696
O24   O     O_3   0.438549 0.656522 0.146362 -0.551737
C47   C     C_3   0.628892 0.679153 0.169940 0.106057
H28   H     H_    0.675851 0.645845 0.216774 0.155306
H29   H     H_    0.641032 0.745262 0.192945 0.128889
C48   C     C_3   0.764556 0.658808 0.097729 -0.666328
H30   H     H_    0.726371 0.693618 0.051030 0.246734
H31   H     H_    0.915604 0.674189 0.115483 0.182644
H32   H     H_    0.753630 0.593314 0.072795 0.225835

loop_
_geom_bond_atom_site_label_1
_geom_bond_atom_site_label_2
_ccdc_geom_bond_type
C33   C34   A    
C9    F3    S    
C44   H20   S    
O19   C40   A    
C7    C8    A    
C12   C15   A    
C1    O6    A    
C42   H15   S    
C22   C38   S    
C24   H7    S    
O21   C41   S    
O11   V4    S    
O16   V4    S    
C3    C11   S    
C23   C24   A    
C37   O16   A    
C16   C17   A    
C12   C14   A    
C48   H31   S    
O5    C3    A    
C41   H14   S    
C47   H28   S    
C35   C36   A    
O14   V3    S    
C34   H11   S    
O12   V3    S    
C6    C7    A    
C27   C28   A    
C21   C28   A    
O12   C37   A    
O8    V2    S    
O15   C39   A    
O14   C38   A    
C8    F2    S    
O1    V2    S    
C23   H5    S    
C21   C29   A    
O7    V1    S    
C1    C21   S    
C44   H21   S    
O9    C4    A    
C23   C27   A    
O19   V4    S    
C7    C39   S    
O4    V1    S    
C42   H16   S    
C46   H25   S    
O23   C45   S    
C32   C33   A    
C15   H2    S    
C13   C17   A    
C6    F1    S    
C31   H9    S    
C11   C18   A    
C16   C20   A    
C48   H32   S    
C25   C26   A    
O4    C2    A    
C41   H13   S    
C19   O22   S    
C13   C14   A    
C32   H10   S    
C31   C32   A    
C28   H3    S    
C11   C19   A    
O2    C1    A    
V4    O20   S    
C17   C18   A    
O11   C38   A    
C14   H1    S    
C43   H19   S    
C19   C20   A    
O13   V3    S    
C33   C37   S    
C5    O21   S    
C5    C6    A    
O3    C4    A    
C13   O23   S    
C26   C27   A    
C44   H22   S    
C45   H24   S    
C20   O24   S    
O9    V2    S    
C29   C30   A    
V3    O20   S    
C18   F4    S    
O2    V1    S    
C2    C36   S    
C42   H17   S    
C43   C44   S    
O1    C2    A    
C22   C25   A    
O5    V1    S    
O8    C3    A    
C31   C36   A    
O13   C40   A    
O6    V2    S    
C45   C46   S    
O24   C47   S    
C5    C10   A    
C4    C10   S    
C22   C24   A    
C35   H12   S    
O18   C39   A    
O3    V1    S    
V1    O10   S    
C48   H30   S    
O18   V4    S    
C41   C42   S    
C12   C40   S    
C43   H18   S    
O15   V3    S    
C47   H29   S    
C34   C35   A    
O17   V4    S    
O7    V2    S    
O17   V3    S    
C29   H4    S    
C30   H6    S    
C26   C30   A    
C25   H8    S    
C8    C9    A    
C46   H26   S    
C45   H23   S    
C15   C16   A    
C46   H27   S    
O22   C43   S    
C9    C10   A    
V2    O10   S    
C47   C48   S    
