data_mof_unit_22347.cif
_audit_creation_date              2012-12-10T17:53:24-0500
_audit_creation_method            fapswitch 2.2
_symmetry_space_group_name_H-M    P1
_symmetry_Int_Tables_number       1
_space_group_crystal_system       triclinic
_cell_length_a                    23.368442
_cell_length_b                    10.611392
_cell_length_c                    9.936397
_cell_angle_alpha                 92.179758
_cell_angle_beta                  88.874703
_cell_angle_gamma                 93.156044
_cell_volume                      2458.04788812

loop_
_atom_site_label
_atom_site_type_symbol
_atom_type_description
_atom_site_fract_x
_atom_site_fract_y
_atom_site_fract_z
_atom_type_partial_charge
C1    C     C_R   0.508276 0.262584 0.496307 0.889673
C2    C     C_R   0.121495 0.571850 0.495525 0.594998
C3    C     C_R   0.237209 0.463260 0.630527 0.501393
C4    C     C_R   0.389332 0.497517 0.501163 0.918324
C5    C     C_R   0.296903 0.475442 0.627041 -0.293790
C6    C     C_R   0.326827 0.486669 0.503816 -0.114618
C7    C     C_R   0.296754 0.483199 0.383024 -0.116620
C8    C     C_R   0.237471 0.470154 0.385517 -0.113088
C9    C     C_R   0.207628 0.461119 0.508299 0.151670
C10   C     C_R   0.757933 0.407578 0.396337 -0.077470
C11   C     C_R   0.698958 0.418010 0.395303 -0.120753
C12   C     C_R   0.962679 0.232024 0.520592 -0.138512
C13   C     C_R   0.671999 0.487287 0.498793 -0.042053
C14   C     C_R   0.703824 0.540727 0.606712 -0.169500
C15   C     C_R   0.762605 0.529134 0.608355 -0.070694
C16   C     C_R   0.504038 0.741035 0.502258 0.927157
C17   C     C_R   0.789825 0.464353 0.502154 0.286608
C18   C     C_R   0.584271 0.152955 0.689572 -0.211843
C19   C     C_R   0.613168 0.096835 0.790619 0.522046
C20   C     C_R   0.609306 0.965787 0.798816 -0.144188
C21   C     C_R   0.576425 0.891051 0.707152 -0.208189
C22   C     C_R   0.546324 0.946734 0.604581 0.103626
C23   C     C_R   0.022290 0.231482 0.521273 -0.130424
C24   C     C_R   0.550759 0.079281 0.596175 -0.009175
C25   C     C_R   0.526118 0.134157 0.485786 -0.224597
C26   C     C_R   0.513924 0.059230 0.369297 0.371355
C27   C     C_R   0.501328 0.933548 0.384613 -0.225338
C28   C     C_R   0.610389 0.497985 0.499097 0.862618
C29   C     C_R   0.514873 0.876248 0.503274 -0.158174
C30   C     C_R   0.417692 0.348889 0.137775 -0.159095
C31   C     C_R   0.374866 0.278915 0.067482 0.476537
C32   C     C_R   0.375238 0.278349 0.927683 -0.219494
C33   C     C_R   0.417783 0.347793 0.858467 -0.198495
C34   C     C_R   0.055733 0.344962 0.512055 -0.031990
C35   C     C_R   0.458989 0.426501 0.927016 0.172565
C36   C     C_R   0.458824 0.427097 0.071336 0.040240
C37   C     C_R   0.541169 0.567462 0.068937 0.508356
C38   C     C_R   0.539746 0.567720 0.926828 -0.122162
C39   C     C_R   0.882374 0.573164 0.485980 0.513497
C40   C     C_R   0.875797 0.349298 0.510253 0.518952
C41   C     C_R   0.935541 0.345961 0.509808 -0.021715
C42   C     C_R   0.968781 0.460151 0.499293 -0.013939
C43   C     C_R   0.942079 0.574889 0.487188 -0.017678
C44   C     C_R   0.028870 0.459758 0.501145 -0.021222
C45   C     C_R   0.061955 0.574274 0.491947 -0.027354
C46   C     C_R   0.034929 0.688028 0.479775 -0.131405
C47   C     C_R   0.975465 0.688294 0.477054 -0.143398
C48   C     C_R   0.115591 0.347232 0.513379 0.594688
H1    H     H_    0.938001 0.143096 0.528554 0.198891
H2    H     H_    0.420238 0.333502 0.242688 0.237391
H3    H     H_    0.343492 0.220763 0.871723 0.207734
H4    H     H_    0.417913 0.335211 0.751562 0.222627
H5    H     H_    0.572463 0.619375 0.869922 0.190282
H6    H     H_    0.059572 0.777066 0.472382 0.201850
H7    H     H_    0.955802 0.777567 0.467708 0.195655
H8    H     H_    0.319994 0.476451 0.720476 0.205916
H9    H     H_    0.318896 0.490711 0.286647 0.188279
H10   H     H_    0.214387 0.469280 0.291984 0.194965
H11   H     H_    0.778957 0.356696 0.314603 0.167321
H12   H     H_    0.674423 0.370918 0.314936 0.218848
H13   H     H_    0.598102 0.982079 0.173931 0.386810
H14   H     H_    0.735543 0.309590 0.865087 0.386157
H15   H     H_    0.671900 0.773201 0.065979 0.396857
H16   H     H_    0.299437 0.155157 0.362444 0.403049
H17   H     H_    0.124713 0.528583 0.878526 0.388426
H18   H     H_    0.683340 0.592622 0.688632 0.172561
H19   H     H_    0.787271 0.572236 0.690757 0.153882
H20   H     H_    0.591898 0.253509 0.678863 0.189749
H21   H     H_    0.633601 0.921193 0.873019 0.222712
H22   H     H_    0.578258 0.790301 0.713579 0.179317
H23   H     H_    0.484760 0.878996 0.298007 0.224901
H24   H     H_    0.042018 0.142172 0.529702 0.197263
N1    N     N_R   0.850721 0.461804 0.498893 -0.360854
N2    N     N_R   0.146748 0.459737 0.507284 -0.344102
N3    N     N_R   0.499460 0.498800 0.142780 -0.165923
N4    N     N_R   0.499440 0.498720 0.857170 -0.147313
O1    O     O_R   0.500000 0.316780 0.614690 -0.636649
O2    O     O_R   0.583850 0.500050 0.614640 -0.649605
O3    O     O_R   0.583840 0.500030 0.385310 -0.523501
O4    O     O_2   0.855953 0.681729 0.471540 -0.532321
O5    O     O_2   0.472045 0.114926 0.131771 -0.263650
O6    O     O_2   0.563107 0.227575 0.194162 -0.239625
O7    O     O_3   0.563615 0.991435 0.119575 -0.490239
O8    O     O_2   0.626832 0.303924 0.949514 -0.257501
O9    O     O_2   0.677304 0.118499 0.013382 -0.274746
O10   O     O_3   0.716105 0.243026 0.807094 -0.541308
O11   O     O_2   0.594369 0.719645 0.264041 -0.301749
O12   O     O_2   0.842964 0.241643 0.523390 -0.516991
O13   O     O_2   0.645988 0.543877 0.161822 -0.275174
O14   O     O_3   0.635525 0.740830 0.024482 -0.610995
O15   O     O_2   0.264662 0.234285 0.129364 -0.259234
O16   O     O_2   0.323719 0.051218 0.100605 -0.222617
O17   O     O_3   0.335109 0.191278 0.320231 -0.587433
O18   O     O_2   0.176265 0.318568 0.801041 -0.242817
O19   O     O_2   0.241004 0.484051 0.901382 -0.280016
O20   O     O_3   0.146934 0.550883 0.796090 -0.540699
O21   O     O_2   0.142566 0.238496 0.520280 -0.499497
O22   O     O_2   0.154137 0.680462 0.488034 -0.506060
O23   O     O_R   0.500000 0.316750 0.385360 -0.579373
O24   O     O_R   0.416160 0.499970 0.614690 -0.635965
O25   O     O_R   0.416150 0.499950 0.385360 -0.651523
O26   O     O_R   0.500000 0.683250 0.614640 -0.626277
O27   O     O_R   0.500000 0.683220 0.385310 -0.580339
S1    S     S_3+6 0.527833 0.105191 0.201435 0.070139
S2    S     S_3+6 0.658361 0.191890 0.897319 0.062385
S3    S     S_3+6 0.604541 0.643156 0.136972 0.054505
S4    S     S_3+6 0.322598 0.185532 0.153860 0.059765
S5    S     S_3+6 0.200652 0.451613 0.787664 0.059468
Zn1   Zn    Zn3+2 0.500000 0.500020 0.653130 0.962575
Zn2   Zn    Zn3+2 0.500000 0.499980 0.346870 1.066483

loop_
_geom_bond_atom_site_label_1
_geom_bond_atom_site_label_2
_ccdc_geom_bond_type
C17   N1    S    
C22   C29   A    
C27   C29   A    
C1    O1    A    
C41   C42   A    
C5    H8    S    
C35   C36   A    
C1    O23   A    
C12   H1    S    
C7    C8    A    
C38   N4    A    
C45   C46   A    
C33   H4    S    
C48   O21   S    
H14   O10   S    
C12   C23   A    
O18   S5    D    
C26   C27   A    
C37   C38   A    
O27   Zn2   S    
C18   C24   A    
H16   O17   S    
C30   C31   A    
C10   C17   A    
C18   H20   S    
C40   N1    A    
C18   C19   A    
C28   O3    A    
O16   S4    D    
C26   S1    S    
H17   O20   S    
C19   C20   A    
C8    C9    A    
O13   S3    D    
C13   C28   S    
C28   O2    A    
C2    N2    A    
C8    H10   S    
C30   H2    S    
O24   Zn1   S    
C13   C14   A    
C1    C25   S    
C42   C44   A    
O9    S2    D    
C2    C45   A    
C35   N4    A    
O7    S1    S    
C48   N2    A    
C34   C44   A    
C24   C25   A    
O14   S3    S    
C4    C6    S    
H13   O7    S    
N4    Zn1   S    
C39   C43   A    
C16   C29   S    
O23   Zn2   S    
C32   H3    S    
C12   C41   A    
C3    C9    A    
C36   N3    A    
O15   S4    D    
C16   O27   A    
C31   C32   A    
C23   C34   A    
C15   H19   S    
C4    O25   A    
C46   H6    S    
O8    S2    D    
C14   H18   S    
O1    Zn1   S    
O25   Zn2   S    
C38   H5    S    
C19   S2    S    
C16   O26   A    
C40   C41   A    
C10   C11   A    
C4    O24   A    
C22   C24   A    
C20   H21   S    
O10   S2    S    
C34   C48   A    
C42   C43   A    
C11   H12   S    
C27   H23   S    
C44   C45   A    
C47   H7    S    
C15   C17   A    
C46   C47   A    
N3    Zn2   S    
O3    Zn2   S    
C31   S4    S    
C23   H24   S    
C3    C5    A    
C6    C7    A    
C3    S5    S    
C30   C36   A    
C21   H22   S    
C32   C33   A    
C40   O12   S    
C10   H11   S    
C25   C26   A    
C37   S3    S    
C39   O4    S    
C11   C13   A    
C5    C6    A    
O11   S3    D    
H15   O14   S    
C33   C35   A    
O2    Zn1   S    
C39   N1    A    
C37   N3    A    
O19   S5    D    
C20   C21   A    
C2    O22   S    
C9    N2    S    
O6    S1    D    
C14   C15   A    
O20   S5    S    
O26   Zn1   S    
C21   C22   A    
C43   C47   A    
C7    H9    S    
O17   S4    S    
O5    S1    D    
