data_mof_unit_9915.cif
_audit_creation_date              2013-03-05T16:01:27-0500
_audit_creation_method            fapswitch 2.2
_symmetry_space_group_name_H-M    P1
_symmetry_Int_Tables_number       1
_space_group_crystal_system       triclinic
_cell_length_a                    14.848719
_cell_length_b                    14.948663
_cell_length_c                    19.274182
_cell_angle_alpha                 74.479075
_cell_angle_beta                  102.818602
_cell_angle_gamma                 116.01065
_cell_volume                      3677.62941791

loop_
_atom_site_label
_atom_site_type_symbol
_atom_site_description
_atom_site_fract_x
_atom_site_fract_y
_atom_site_fract_z
_atom_type_partial_charge
O1    O     O_R   0.977910 0.338110 0.524620 -0.574642
O2    O     O_R   0.022090 0.661890 0.475380 -0.573645
O3    O     O_R   0.839850 0.379180 0.493080 -0.600298
O4    O     O_R   0.160150 0.620820 0.506920 -0.585404
C1    C     C_R   0.880316 0.312588 0.511283 0.827501
C2    C     C_R   0.119869 0.687541 0.487526 0.849454
O5    O     O_R   0.069040 0.479450 0.615630 -0.574045
O6    O     O_R   0.930960 0.520550 0.384370 -0.587901
O7    O     O_R   0.930990 0.520520 0.584090 -0.616703
O8    O     O_R   0.069010 0.479480 0.415910 -0.529040
C3    C     C_R   0.998017 0.496390 0.632512 0.825539
C4    C     C_R   0.001857 0.503431 0.367496 0.862176
Cu1   Cu    Cu3+1 0.081740 0.475680 0.518680 0.993980
Cu2   Cu    Cu3+1 0.918260 0.524320 0.481320 0.964021
C5    C     C_R   0.010052 0.409481 0.763891 -0.008170
C6    C     C_R   0.989851 0.590174 0.236085 -0.012376
C7    C     C_R   0.010842 0.408744 0.837895 -0.058712
C8    C     C_R   0.989037 0.590803 0.162102 -0.057439
C9    C     C_R   0.991684 0.484570 0.855513 -0.020126
C10   C     C_R   0.007954 0.514779 0.144552 -0.024326
C11   C     C_R   0.970679 0.557911 0.800359 -0.137196
C12   C     C_R   0.028787 0.441379 0.199747 -0.132275
C13   C     C_R   0.971788 0.559712 0.728329 -0.227833
C14   C     C_R   0.027737 0.439718 0.271761 -0.191067
C15   C     C_R   0.993231 0.487780 0.709465 -0.072224
C16   C     C_R   0.006516 0.511843 0.290556 -0.052353
N1    N     N_R   0.927871 0.516922 0.949234 -0.222634
N2    N     N_R   0.071697 0.482295 0.050860 -0.214295
N3    N     N_R   0.932030 0.524807 0.017086 -0.219424
N4    N     N_R   0.067539 0.474412 0.983006 -0.214828
C17   C     C_R   0.004373 0.508228 0.069031 0.380644
C18   C     C_R   0.995203 0.491003 0.931058 0.378020
C19   C     C_R   0.812834 0.204851 0.514784 -0.047622
C20   C     C_R   0.188517 0.795557 0.474179 -0.043259
C21   C     C_R   0.783433 0.027456 0.546324 -0.142832
C22   C     C_R   0.220681 0.970583 0.419864 -0.133615
C23   C     C_R   0.849147 0.128958 0.542662 -0.171375
C24   C     C_R   0.152937 0.870391 0.438719 -0.152479
C25   C     C_R   0.710538 0.178240 0.489857 -0.212820
C26   C     C_R   0.292095 0.822805 0.493331 -0.221994
C27   C     C_R   0.642207 0.076465 0.492001 0.069469
C28   C     C_R   0.362818 0.921859 0.470472 0.080233
C29   C     C_R   0.679752 0.999423 0.520951 0.127900
C30   C     C_R   0.325994 0.997461 0.432763 0.120449
C31   C     C_R   0.537070 0.049890 0.469092 0.066106
C32   C     C_R   0.468787 0.947207 0.484946 0.069817
C33   C     C_R   0.508527 0.872454 0.512161 -0.285379
C34   C     C_R   0.498568 0.122747 0.429801 -0.244580
C35   C     C_R   0.611931 0.896646 0.526430 -0.012353
C36   C     C_R   0.395405 0.097777 0.410104 -0.021539
H1    H     H_    0.072739 0.851498 0.424895 0.169981
H2    H     H_    0.928076 0.147799 0.563142 0.169404
H3    H     H_    0.814671 0.971860 0.571739 0.189273
H4    H     H_    0.188947 0.025893 0.395066 0.189677
H5    H     H_    0.460792 0.793067 0.519313 0.122025
H6    H     H_    0.547882 0.199680 0.409268 0.147534
N5    N     N_R   0.795420 0.560800 0.453240 -0.216907
N6    N     N_R   0.204580 0.439200 0.546760 -0.201998
C37   C     C_R   0.708447 0.652395 0.367420 -0.274981
C38   C     C_R   0.292921 0.349612 0.633411 -0.297943
C39   C     C_R   0.795098 0.634026 0.393875 0.071252
C40   C     C_R   0.205678 0.366909 0.606638 0.049492
C41   C     C_R   0.713456 0.508354 0.491930 0.111352
C42   C     C_R   0.286194 0.491000 0.507510 0.121911
C43   C     C_R   0.629082 0.535527 0.473341 -0.005240
C44   C     C_R   0.371577 0.465455 0.526976 -0.090768
C45   C     C_R   0.624196 0.600728 0.405670 0.152291
C46   C     C_R   0.377154 0.401405 0.595103 0.148334
C47   C     C_R   0.546651 0.495767 0.516182 0.103353
C48   C     C_R   0.454633 0.506382 0.484517 0.036537
C49   C     C_R   0.447863 0.554015 0.410760 -0.227004
C50   C     C_R   0.553907 0.448687 0.590034 -0.152712
C51   C     C_R   0.532827 0.607419 0.374352 -0.173183
C52   C     C_R   0.469028 0.395778 0.626679 -0.168962
H7    H     H_    0.525397 0.649242 0.319516 0.159022
H8    H     H_    0.476648 0.354308 0.681608 0.149801
H9    H     H_    0.377015 0.549680 0.379321 0.193323
H10   H     H_    0.625003 0.451678 0.620829 0.130804
C53   C     C_2   0.017499 0.324287 0.743075 0.363839
H11   H     H_    0.075604 0.297386 0.770321 0.129277
O9    O     O_2   0.957309 0.282456 0.695277 -0.567279
C54   C     C_2   0.982607 0.675503 0.256844 0.380100
H12   H     H_    0.924356 0.702270 0.229756 0.124528
O10   O     O_2   0.043120 0.717573 0.304418 -0.545453
C55   C     C_2   0.298211 0.589475 0.458959 0.425352
H13   H     H_    0.359693 0.657358 0.473144 0.018996
O11   O     O_2   0.247377 0.595683 0.400299 -0.519810
C56   C     C_2   0.704598 0.411792 0.542318 0.366512
H14   H     H_    0.762369 0.407930 0.586682 0.119210
O12   O     O_2   0.629862 0.333961 0.534880 -0.574420
H15   H     H_    0.140919 0.327513 0.636429 0.152122
H16   H     H_    0.860121 0.673604 0.364351 0.148700
H17   H     H_    0.706532 0.705048 0.316601 0.151807
H18   H     H_    0.295346 0.297807 0.684605 0.152919
C57   C     C_2   0.021767 0.324852 0.896602 0.381498
H19   H     H_    0.976527 0.294906 0.941222 0.097507
O13   O     O_2   0.083642 0.291280 0.897548 -0.539309
C58   C     C_2   0.978356 0.674770 0.103351 0.386294
H20   H     H_    0.023420 0.704369 0.058653 0.097274
O14   O     O_2   0.916898 0.708832 0.102473 -0.542025
H21   H     H_    0.955940 0.616147 0.813240 0.162782
H22   H     H_    0.043357 0.383006 0.186912 0.167716
H23   H     H_    0.957863 0.619147 0.687066 0.160127
H24   H     H_    0.041548 0.380259 0.313068 0.157607
C59   C     C_2   0.643702 0.810560 0.546400 0.340557
H25   H     H_    0.594752 0.737186 0.574333 0.071714
O15   O     O_2   0.720507 0.818141 0.527726 -0.549516
C60   C     C_2   0.365680 0.180258 0.364701 0.359054
H26   H     H_    0.410864 0.257984 0.371796 0.093541
O16   O     O_2   0.295496 0.163968 0.316082 -0.527131
H27   H     H_    0.315404 0.764871 0.527159 0.137724
H28   H     H_    0.685402 0.238777 0.471112 0.194010

loop_
_geom_bond_atom_site_label_1
_geom_bond_atom_site_label_2
_geom_bond_distance
_ccdc_geom_bond_type
N6    C40   1.356345 A    
C44   C46   1.412901 A    
C41   C43   1.425569 A    
C41   C56   1.477851 S    
C21   H3    1.079460 S    
C51   H7    1.084078 S    
C57   H19   1.085289 S    
C34   H6    1.077881 S    
C33   C35   1.393825 A    
C31   C32   1.413844 A    
O5    C3    1.308725 A    
C59   O15   1.220658 D    
C19   C25   1.394568 A    
C52   H8    1.084016 S    
O1    C1    1.309174 A    
C9    C11   1.399415 A    
C14   C16   1.396652 A    
C5    C15   1.419799 A    
N1    N3    1.329778 A    
C3    C15   1.469042 S    
C46   C52   1.394054 A    
C60   H26   1.086032 S    
C38   C40   1.391779 A    
C28   C32   1.426939 A    
O4    Cu1   1.937177 S    
C50   H10   1.078658 S    
C37   C45   1.400765 A    
C13   H23   1.083802 S    
C43   C45   1.412850 A    
C1    C19   1.469286 S    
C48   C49   1.412704 A    
C45   C51   1.392243 A    
C21   C29   1.412333 A    
C39   H16   1.081056 S    
C11   H21   1.083637 S    
C34   C36   1.395093 A    
Cu1   Cu2   2.726172 S    
N6    C42   1.382309 A    
C27   C29   1.424666 A    
O2    C2    1.311021 A    
C28   C30   1.424962 A    
C9    C18   1.472709 S    
N5    C41   1.380188 A    
C26   H27   1.074932 S    
C55   O11   1.217904 D    
C6    C16   1.419690 A    
C5    C53   1.487197 S    
C37   C39   1.390938 A    
C25   C27   1.406021 A    
C53   O9    1.221181 D    
C23   H2    1.083246 S    
C29   C35   1.410357 A    
C35   C59   1.487802 S    
C24   H1    1.083216 S    
C55   H13   1.078485 S    
C19   C23   1.395803 A    
C2    C20   1.470691 S    
C4    C16   1.468958 S    
C14   H24   1.083804 S    
C42   C44   1.425085 A    
C47   C50   1.412600 A    
O7    Cu2   1.935357 S    
O6    C4    1.308527 A    
C40   H15   1.080980 S    
C6    C54   1.487023 S    
O7    C3    1.309296 A    
O3    Cu2   1.937176 S    
O8    C4    1.309462 A    
C7    C57   1.488932 S    
C50   C52   1.390902 A    
C25   H28   1.072469 S    
C56   O12   1.221462 D    
C58   H20   1.085280 S    
C54   O10   1.221088 D    
C11   C13   1.384994 A    
C12   C14   1.385004 A    
C22   C30   1.413668 A    
O4    C2    1.310242 A    
O1    Cu1   1.946972 S    
C22   C24   1.391646 A    
C42   C55   1.476813 S    
C49   H9    1.075382 S    
C33   H5    1.071339 S    
C31   C34   1.413896 A    
C30   C36   1.412590 A    
C5    C7    1.420942 A    
Cu2   N5    2.047867 S    
C32   C33   1.413999 A    
O6    Cu2   1.937154 S    
C21   C23   1.390700 A    
N1    C18   1.356566 A    
C20   C24   1.395203 A    
C36   C60   1.486384 S    
N2    C17   1.356554 A    
C10   C12   1.399410 A    
O3    C1    1.311196 A    
O8    Cu1   1.935357 S    
C57   O13   1.220013 D    
N5    C39   1.356206 A    
Cu1   N6    2.047865 S    
C37   H17   1.083709 S    
C59   H25   1.086091 S    
C58   O14   1.220009 D    
C12   H22   1.083639 S    
N2    N4    1.329794 A    
N3    C17   1.356908 A    
N4    C18   1.356931 A    
C44   C48   1.443292 A    
C43   C47   1.442564 A    
C26   C28   1.407764 A    
C7    C9    1.418707 A    
C60   O16   1.220531 D    
C8    C10   1.418713 A    
C13   C15   1.396678 A    
C47   C48   1.425784 A    
O2    Cu2   1.946973 S    
C22   H4    1.079064 S    
C53   H11   1.082656 S    
O5    Cu1   1.937155 S    
C56   H14   1.077915 S    
C38   C46   1.401236 A    
C6    C8    1.420880 A    
C54   H12   1.082678 S    
C49   C51   1.389630 A    
C27   C31   1.426191 A    
C20   C26   1.395255 A    
C8    C58   1.489020 S    
C10   C17   1.472614 S    
C38   H18   1.083697 S    
