data_mof_unit_18434.cif
_audit_creation_date              2012-12-10T20:51:45-0500
_audit_creation_method            fapswitch 2.2
_symmetry_space_group_name_H-M    P1
_symmetry_Int_Tables_number       1
_space_group_crystal_system       triclinic
_cell_length_a                    8.104278
_cell_length_b                    8.9278
_cell_length_c                    16.761778
_cell_angle_alpha                 89.484972
_cell_angle_beta                  94.575797
_cell_angle_gamma                 90.025279
_cell_volume                      1208.85678638

loop_
_atom_site_label
_atom_site_type_symbol
_atom_type_description
_atom_site_fract_x
_atom_site_fract_y
_atom_site_fract_z
_atom_type_partial_charge
C1    C     C_R   0.499955 0.217991 0.500029 0.960154
C2    C     C_R   0.546388 0.677873 0.149828 -0.008676
C3    C     C_R   0.472326 0.507163 0.902073 0.164654
C4    C     C_R   0.424063 0.608231 0.099074 0.173146
C5    C     C_R   0.586568 0.404710 0.873461 -0.073907
C6    C     C_R   0.311041 0.504962 0.129833 -0.070868
C7    C     C_R   0.616734 0.406737 0.791745 -0.116223
C8    C     C_R   0.333184 0.459942 0.210661 -0.126765
C9    C     C_1   0.499947 0.065203 0.499996 -0.144928
C10   C     C_1   0.500038 0.934803 0.499972 -0.155376
C11   C     C_2   0.660184 0.790669 0.118294 0.494258
C12   C     C_R   0.500041 0.782010 0.499960 0.921983
C13   C     C_2   0.251158 0.709162 0.873982 0.472313
C14   C     C_2   0.676545 0.298723 0.930666 0.936757
C15   C     C_2   0.175503 0.439817 0.076092 0.915384
C16   C     C_2   0.736504 0.300782 0.760520 0.420427
C17   C     C_2   0.222565 0.343810 0.242148 0.509024
C18   C     C_R   0.521272 0.497810 0.653883 0.875020
C19   C     C_R   0.478232 0.501423 0.346063 0.940802
C20   C     C_R   0.529035 0.509862 0.740319 -0.087278
C21   C     C_R   0.462043 0.526150 0.260126 -0.095301
C22   C     C_R   0.419989 0.612682 0.769748 -0.176445
C23   C     C_R   0.564848 0.635073 0.229919 -0.204627
C24   C     C_R   0.386085 0.610740 0.849446 -0.028026
H1    H     H_    0.658718 0.688650 0.269690 0.199347
H2    H     H_    0.352274 0.689102 0.728383 0.196742
H3    H     H_    0.644822 0.826565 0.056121 0.090363
H4    H     H_    0.189304 0.685211 0.927418 0.140651
H5    H     H_    0.745607 0.085896 0.957445 0.356683
H6    H     H_    0.063813 0.253547 0.030807 0.376429
H7    H     H_    0.725400 0.181449 0.771050 0.128318
H8    H     H_    0.093677 0.337314 0.219334 0.094337
N1    N     N_1   0.073640 0.500030 0.499990 -0.010267
N2    N     N_1   0.926360 0.499970 0.500010 -0.005466
N3    N     N_2   0.446227 0.499356 0.984080 -0.137340
N4    N     N_2   0.435994 0.623725 0.016101 -0.213779
O1    O     O_R   0.636850 0.285340 0.500000 -0.611598
O2    O     O_2   0.205242 0.818227 0.833630 -0.546304
O3    O     O_2   0.742998 0.345085 0.993734 -0.577381
O4    O     O_R   0.681814 0.145941 0.913561 -0.816493
O5    O     O_2   0.080082 0.522333 0.036396 -0.600147
O6    O     O_R   0.158806 0.284308 0.070251 -0.775985
O7    O     O_2   0.851453 0.346786 0.724350 -0.522570
O8    O     O_2   0.275580 0.251235 0.291805 -0.552846
O9    O     O_R   0.363150 0.714660 0.500000 -0.616643
O10   O     O_R   0.363100 0.285350 0.500000 -0.596214
O11   O     O_R   0.636900 0.714650 0.500000 -0.618382
O12   O     O_R   0.652140 0.498630 0.616140 -0.563687
O13   O     O_R   0.347860 0.501370 0.383860 -0.602782
O14   O     O_R   0.378390 0.498650 0.616130 -0.621200
O15   O     O_R   0.621610 0.501350 0.383870 -0.628937
O16   O     O_2   0.772471 0.845543 0.161431 -0.546710
Zn1   Zn    Zn3+2 0.682780 0.499990 0.500010 1.045864
Zn2   Zn    Zn3+2 0.317220 0.500010 0.499990 1.040499

loop_
_geom_bond_atom_site_label_1
_geom_bond_atom_site_label_2
_ccdc_geom_bond_type
C2    C4    A    
C4    N4    S    
C13   H4    S    
C12   O9    A    
C11   H3    S    
C9    C10   T    
C19   O13   A    
C8    C17   S    
C3    N3    S    
O11   Zn1   S    
O1    Zn1   S    
O10   Zn2   S    
C21   C23   A    
N1    N2    T    
C13   O2    D    
C17   O8    D    
C16   H7    S    
C16   O7    D    
C15   O5    D    
C5    C14   S    
O14   Zn2   S    
C10   C12   S    
C12   O11   A    
C2    C11   S    
C13   C24   S    
H5    O4    S    
C7    C16   S    
C19   C21   S    
C20   C22   A    
O9    Zn2   S    
C8    C21   A    
C18   C20   S    
C23   H1    S    
O12   Zn1   S    
C14   O3    D    
C22   C24   A    
C1    O10   A    
C14   O4    S    
O13   Zn2   S    
C19   O15   A    
C2    C23   A    
C1    C9    S    
C18   O14   A    
N2    Zn1   S    
C4    C6    A    
C7    C20   A    
C22   H2    S    
N1    Zn2   S    
C5    C7    A    
C17   H8    S    
H6    O6    S    
C6    C8    A    
C11   O16   D    
C3    C5    A    
C6    C15   S    
N3    N4    D    
C15   O6    S    
C3    C24   A    
C1    O1    A    
O15   Zn1   S    
C18   O12   A    
