data_mof_unit_56680.cif
_audit_creation_date              2013-03-05T16:43:30-0500
_audit_creation_method            fapswitch 2.2
_symmetry_space_group_name_H-M    P1
_symmetry_Int_Tables_number       1
_space_group_crystal_system       triclinic
_cell_length_a                    10.49089
_cell_length_b                    10.707666
_cell_length_c                    9.902931
_cell_angle_alpha                 89.310806
_cell_angle_beta                  88.753837
_cell_angle_gamma                 90.582157
_cell_volume                      1112.02141737

loop_
_atom_site_label
_atom_site_type_symbol
_atom_site_description
_atom_site_fract_x
_atom_site_fract_y
_atom_site_fract_z
_atom_type_partial_charge
O1    O     O_R   0.500020 0.316790 0.614690 -0.580113
O2    O     O_R   0.500000 0.316760 0.385350 -0.643337
C1    C     C_R   0.502304 0.259975 0.500479 0.931151
O3    O     O_R   0.313960 0.499990 0.614650 -0.620829
O4    O     O_R   0.313940 0.499950 0.385310 -0.628354
C2    C     C_R   0.257437 0.500343 0.501309 0.889823
Zn1   Zn    Zn3+2 0.500010 0.500020 0.653130 1.010487
Zn2   Zn    Zn3+2 0.499990 0.499980 0.346870 1.017879
O5    O     O_R   0.500000 0.683240 0.614650 -0.612697
O6    O     O_R   0.499980 0.683210 0.385310 -0.582813
O7    O     O_R   0.686060 0.500050 0.614690 -0.630097
O8    O     O_R   0.686040 0.500010 0.385350 -0.585335
C3    C     C_R   0.505450 0.739697 0.499213 0.890942
C4    C     C_R   0.742608 0.498144 0.498885 0.885586
C5    C     C_3   0.036566 0.520159 0.627800 -0.125126
C6    C     C_3   0.955096 0.407334 0.584209 -0.136629
H1    H     H_    0.913732 0.333164 0.651714 0.178871
H2    H     H_    0.070144 0.538791 0.731228 0.164504
C7    C     C_3   0.877779 0.496762 0.497577 -0.009785
C8    C     C_3   0.956508 0.609463 0.541229 -0.146344
C9    C     C_3   0.044978 0.589021 0.417062 -0.139574
C10   C     C_3   0.963775 0.476047 0.373647 -0.115288
C11   C     C_3   0.043830 0.386918 0.460219 -0.180163
C12   C     C_3   0.122387 0.499745 0.503532 -0.016936
H3    H     H_    0.916028 0.699967 0.573839 0.176517
H4    H     H_    0.086147 0.663133 0.349353 0.173015
H5    H     H_    0.931382 0.454580 0.270781 0.208623
H6    H     H_    0.084450 0.296487 0.427577 0.179274
C13   C     C_R   0.528045 0.060857 0.620426 -0.007812
C14   C     C_R   0.518482 0.128192 0.499838 -0.079230
C15   C     C_R   0.534248 0.066249 0.376228 -0.183306
H7    H     H_    0.535813 0.116102 0.280338 0.204657
C16   C     C_R   0.537204 0.937124 0.375163 -0.113529
H8    H     H_    0.538631 0.890156 0.278898 0.235424
C17   C     C_R   0.526761 0.870875 0.497886 -0.123640
C18   C     C_R   0.537692 0.934038 0.619129 -0.008189
C19   C     C_3   0.469821 0.916783 0.752967 0.057777
C20   C     C_3   0.456417 0.059103 0.754160 0.489352
H9    H     H_    0.378574 0.863504 0.745765 0.117851
C21   C     C_R   0.389160 0.484601 0.073759 0.165193
N1    N     N_R   0.499140 0.499140 0.142800 -0.166399
C22   C     C_R   0.606025 0.535817 0.067348 0.350983
C23   C     C_R   0.606404 0.530810 0.923917 -0.067313
H10   H     H_    0.691615 0.556364 0.866293 0.201258
N2    N     N_R   0.499140 0.499180 0.857150 -0.130181
C24   C     C_R   0.388564 0.487304 0.931914 0.173304
C25   C     C_3   0.294895 0.382105 0.928988 -0.380073
C26   C     C_3   0.297973 0.377383 0.082556 -0.445956
H11   H     H_    0.201392 0.411847 0.889814 0.200544
H12   H     H_    0.335366 0.299099 0.880068 0.278260
H13   H     H_    0.205780 0.403286 0.131543 0.210698
H14   H     H_    0.342076 0.291176 0.123329 0.238077
N3    N     N_R   0.551925 0.867306 0.858425 0.263398
O9    O     O_R   0.667361 0.830649 0.830344 -0.344737
O10   O     O_R   0.505439 0.850771 0.980233 -0.356313
N4    N     N_R   0.321809 0.094709 0.749222 0.170781
O11   O     O_R   0.247187 0.070630 0.853154 -0.355029
O12   O     O_R   0.273095 0.142611 0.640785 -0.437665
Cl1   Cl    Cl    0.542175 0.139768 0.881991 -0.561393
N5    N     N_R   0.715255 0.588931 0.129701 0.223691
O13   O     O_R   0.700657 0.686449 0.205169 -0.337999
O14   O     O_R   0.828203 0.566793 0.079197 -0.435735

loop_
_geom_bond_atom_site_label_1
_geom_bond_atom_site_label_2
_geom_bond_distance
_ccdc_geom_bond_type
C13   C20   1.508234 S    
C5    C6    1.544000 S    
O4    Zn2   1.980457 S    
Zn1   O7    1.980458 S    
C11   C12   1.526535 S    
C15   C16   1.383447 A    
Zn1   O5    1.994020 S    
C19   C20   1.531969 S    
C5    H2    1.110022 S    
N1    C22   1.384720 A    
C17   C18   1.391441 A    
C14   C15   1.406649 A    
Zn2   O8    1.996796 S    
C19   N3    1.465719 S    
C6    C11   1.543661 S    
C7    C8    1.527455 S    
C16   H8    1.083060 S    
C2    C12   1.416446 S    
Zn2   N1    2.021232 S    
C19   H9    1.113446 S    
C24   C25   1.488239 S    
N3    O9    1.302158 A    
N4    O11   1.301204 A    
N5    O14   1.301208 A    
C21   C24   1.404780 A    
C23   N2    1.359475 A    
C13   C18   1.362918 A    
C13   C14   1.393526 A    
O3    Zn1   1.996796 S    
O4    C2    1.281212 A    
Zn1   N2    2.020130 S    
C1    C14   1.423044 S    
Zn2   O6    2.003044 S    
C18   C19   1.499390 S    
C16   C17   1.401461 A    
C9    H4    1.110631 S    
N4    O12   1.301289 A    
C3    C17   1.419905 S    
C25   H12   1.101819 S    
O2    C1    1.286457 A    
C10   H5    1.106855 S    
N3    O10   1.300678 A    
C23   H10   1.081069 S    
C6    C7    1.528779 S    
C5    C8    1.543591 S    
O7    C4    1.280130 A    
O3    C2    1.280754 A    
C11   H6    1.110686 S    
C8    H3    1.110721 S    
C20   Cl1   1.793892 S    
C25   C26   1.522053 S    
N2    C24   1.366532 A    
C26   H14   1.112214 S    
C7    C10   1.527017 S    
C20   N4    1.468130 S    
C8    C9    1.543458 S    
C25   H11   1.110886 S    
C22   C23   1.421963 A    
C9    C12   1.527381 S    
C22   N5    1.429627 S    
C21   C26   1.487421 S    
O5    C3    1.286615 A    
C10   C11   1.542414 S    
C5    C12   1.528102 S    
C21   N1    1.362401 A    
O1    Zn1   2.003045 S    
C9    C10   1.543182 S    
C4    C7    1.418074 S    
C26   H13   1.111753 S    
O2    Zn2   1.994020 S    
C15   H7    1.083472 S    
C6    H1    1.110640 S    
O8    C4    1.282740 A    
N5    O13   1.299769 A    
O1    C1    1.290562 A    
O6    C3    1.288403 A    
