data_mof_unit_12222.cif
_audit_creation_date              2013-03-05T15:43:55-0500
_audit_creation_method            fapswitch 2.2
_symmetry_space_group_name_H-M    P1
_symmetry_Int_Tables_number       1
_space_group_crystal_system       triclinic
_cell_length_a                    8.302036
_cell_length_b                    15.131715
_cell_length_c                    18.730877
_cell_angle_alpha                 100.272871
_cell_angle_beta                  91.639177
_cell_angle_gamma                 99.693415
_cell_volume                      2278.09792017

loop_
_atom_site_label
_atom_site_type_symbol
_atom_site_description
_atom_site_fract_x
_atom_site_fract_y
_atom_site_fract_z
_atom_type_partial_charge
P1    P     P_3+3 0.038110 0.412300 0.335300 0.506920
O1    O     O_2   0.871030 0.438240 0.324420 -0.383020
O2    O     O_3   0.120590 0.445310 0.413740 -0.340307
O3    O     O_3   0.663040 0.605930 0.370050 -0.385789
O4    O     O_2   0.788821 0.547836 0.244658 -0.424200
O5    O     O_3   0.965737 0.295745 0.332479 -0.541702
O6    O     O_3   0.675578 0.700064 0.252317 -0.559189
C1    C     C_3   0.725595 0.862094 0.297557 -1.019676
H1    H     H_    0.745713 0.913965 0.348462 0.246638
H2    H     H_    0.831791 0.875324 0.264122 0.283955
P2    P     P_3+3 0.679950 0.711710 0.558590 0.466510
P3    P     P_3+3 0.133157 0.774010 0.413836 0.473564
O7    O     O_2   0.855660 0.723510 0.537160 -0.360778
O8    O     O_3   0.086340 0.654970 0.406630 -0.370727
O9    O     O_2   0.008143 0.819111 0.460465 -0.401629
O10   O     O_3   0.697304 0.746376 0.653166 -0.559490
O11   O     O_3   0.109124 0.806330 0.328510 -0.549831
C2    C     C_3   0.119644 0.733621 0.270988 0.506584
H3    H     H_    0.037276 0.670299 0.277773 0.150429
C3    C     C_3   0.066533 0.756979 0.198724 -1.099584
H4    H     H_    0.934507 0.759768 0.196207 0.303551
H5    H     H_    0.136355 0.823962 0.191665 0.269318
C4    C     C_3   0.264630 0.742201 0.628171 0.417651
H6    H     H_    0.363783 0.705802 0.607922 0.099316
H7    H     H_    0.170514 0.737069 0.583577 0.114362
C5    C     C_3   0.337123 0.841989 0.656111 -0.939465
H8    H     H_    0.440023 0.847605 0.696810 0.267290
Ba1   Ba    Ba6+2 0.854120 0.540280 0.465540 1.581584
C6    C     C_3   0.070305 0.239530 0.298617 0.407059
H9    H     H_    0.199260 0.273066 0.308957 0.095879
C7    C     C_3   0.026101 0.212629 0.216716 -1.196329
H10   H     H_    0.891184 0.194303 0.205849 0.282809
H11   H     H_    0.083055 0.153801 0.192181 0.254616
H12   H     H_    0.074480 0.268905 0.188924 0.267056
C8    C     C_3   0.737112 0.676159 0.685836 0.456309
H13   H     H_    0.854829 0.658826 0.666888 0.098671
H14   H     H_    0.638920 0.614951 0.673571 0.117008
C9    C     C_3   0.754987 0.709453 0.767737 -1.023734
H15   H     H_    0.855608 0.769262 0.781594 0.280180
H16   H     H_    0.783459 0.654909 0.795813 0.217950
H17   H     H_    0.639012 0.729577 0.787347 0.257479
P4    P     P_3+3 0.151600 0.587780 0.664700 0.458694
O12   O     O_2   0.318670 0.561790 0.675630 -0.381898
O13   O     O_3   0.069120 0.554770 0.586270 -0.397399
O14   O     O_3   0.526680 0.394150 0.629950 -0.398840
O15   O     O_3   0.192872 0.706873 0.685835 -0.569571
P5    P     P_3+3 0.049551 0.227144 0.589968 0.464820
O16   O     O_3   0.607620 0.388570 0.462320 -0.400906
O17   O     O_3   0.103380 0.345110 0.593380 -0.391854
O18   O     O_2   0.175557 0.182080 0.543682 -0.352038
O19   O     O_3   0.082803 0.200519 0.676587 -0.550116
Ba2   Ba    Ba6+2 0.335710 0.459790 0.534460 1.584034
P6    P     P_3+3 0.643301 0.590897 0.275359 0.446934
C10   C     C_3   0.707191 0.767100 0.316090 0.495530
H18   H     H_    0.612947 0.869331 0.267394 0.247000
O20   O     O_3   0.582100 0.611510 0.537680 -0.408961
C11   C     C_3   0.562541 0.310687 0.305119 0.407762
H19   H     H_    0.558548 0.381970 0.331684 0.123162
H20   H     H_    0.687380 0.295823 0.306198 0.159425
C12   C     C_3   0.504015 0.299593 0.226160 -1.116787
H21   H     H_    0.370706 0.298049 0.220308 0.267727
H22   H     H_    0.565371 0.359721 0.205412 0.233787
H23   H     H_    0.534272 0.236082 0.193973 0.272523
P7    P     P_3+3 0.509073 0.274668 0.432239 0.491088
O21   O     O_2   0.334040 0.276520 0.462890 -0.298160
O22   O     O_3   0.464298 0.247642 0.338207 -0.566743
H24   H     H_    0.087461 0.703500 0.152617 0.234348
C13   C     C_3   0.051534 0.270620 0.732212 0.381688
C14   C     C_3   0.125541 0.259329 0.805330 -0.840269
H25   H     H_    0.260379 0.273137 0.806644 0.264074
H26   H     H_    0.088618 0.308913 0.850420 0.218701
P8    P     P_3+3 0.550177 0.403960 0.723627 0.421731
C15   C     C_3   0.467707 0.229226 0.679943 0.424740
H27   H     H_    0.569613 0.228952 0.643036 -0.000019
O23   O     O_2   0.411931 0.451413 0.757308 -0.410654
O24   O     O_3   0.510413 0.293965 0.744221 -0.542020
C16   C     C_3   0.422521 0.134048 0.698496 -0.665882
H28   H     H_    0.342691 0.136097 0.745103 0.249407
C17   C     C_R   0.994367 0.455537 0.046082 0.013889
C18   C     C_R   0.891029 0.411508 0.092222 0.136859
C19   C     C_R   0.730275 0.370909 0.066728 -0.203999
C20   C     C_R   0.668978 0.378638 0.998494 -0.158815
C21   C     C_R   0.769648 0.423588 0.952616 0.115817
C22   C     C_R   0.933751 0.460997 0.975693 0.007779
C23   C     C_R   0.709250 0.428690 0.883274 -0.143533
C24   C     C_R   0.812257 0.466625 0.833902 -0.037853
C25   C     C_R   0.977547 0.505271 0.856824 -0.022694
C26   C     C_R   0.037078 0.502855 0.928274 -0.016475
C27   C     C_R   0.756742 0.463124 0.761236 0.222662
C28   C     C_R   0.866313 0.494816 0.712291 -0.575385
C29   C     C_R   0.026961 0.537960 0.734375 0.272148
C30   C     C_R   0.083807 0.545063 0.808312 -0.044253
C31   C     C_R   0.158614 0.491948 0.069493 -0.019902
C32   C     C_R   0.218512 0.487609 0.140519 0.006049
C33   C     C_R   0.110703 0.448813 0.189177 -0.044226
C34   C     C_R   0.949192 0.408344 0.162763 -0.168097
H29   H     H_    0.651724 0.331577 0.098585 0.140937
H30   H     H_    0.543419 0.347639 0.980997 0.138225
H31   H     H_    0.824165 0.487773 0.656026 0.183281
H32   H     H_    0.581903 0.400637 0.868036 0.177781
H33   H     H_    0.867332 0.373033 0.196317 0.167070
C35   C     C_R   0.243927 0.588207 0.835208 -0.131781
C36   C     C_R   0.304766 0.582338 0.904819 0.119854
C37   C     C_R   0.201304 0.539424 0.951598 0.010586
C38   C     C_R   0.262462 0.533253 0.021820 0.012073
C39   C     C_R   0.469288 0.617122 0.927893 -0.187093
C40   C     C_R   0.530578 0.609308 0.996453 -0.190337
C41   C     C_R   0.427921 0.568071 0.044022 0.121851
C42   C     C_R   0.385139 0.523821 0.162922 -0.053765
C43   C     C_R   0.488446 0.561872 0.113396 -0.218682
C44   C     C_R   0.442129 0.523870 0.234999 0.278777
C45   C     C_R   0.333650 0.487471 0.282807 -0.381420
C46   C     C_R   0.168904 0.451175 0.262162 0.166067
H34   H     H_    0.325118 0.624587 0.802051 0.165203
H35   H     H_    0.658476 0.636023 0.012425 0.139992
H36   H     H_    0.616838 0.587518 0.128211 0.185065
H37   H     H_    0.376737 0.491634 0.338581 0.167564
C47   C     C_R   0.754191 0.232447 0.517168 -0.393968
C48   C     C_R   0.845197 0.177101 0.546587 0.278807
C49   C     C_R   0.785572 0.083543 0.538698 -0.212500
C50   C     C_R   0.644490 0.041918 0.492947 -0.012494
C51   C     C_R   0.570827 0.098222 0.452636 -0.167171
C52   C     C_R   0.614759 0.194368 0.471494 0.232267
C53   C     C_R   0.404739 0.909419 0.466332 -0.328422
C54   C     C_R   0.339311 0.816924 0.455635 0.325729
C55   C     C_R   0.586240 0.787747 0.510178 0.279896
C56   C     C_R   0.659711 0.879512 0.513891 -0.246512
C57   C     C_R   0.571173 0.942196 0.489572 0.022064
C58   C     C_R   0.430827 0.755961 0.476459 -0.456174
H38   H     H_    0.322212 0.954733 0.457246 0.184740
H39   H     H_    0.852609 0.044738 0.567956 0.168846
H40   H     H_    0.783446 0.900526 0.537152 0.182261
H41   H     H_    0.376746 0.684639 0.470811 0.180833
H42   H     H_    0.797311 0.305399 0.526989 0.166677
H43   H     H_    0.819636 0.760574 0.345540 0.162094
H44   H     H_    0.383170 0.875389 0.610993 0.214665
H45   H     H_    0.241962 0.877917 0.682273 0.292237
C59   C     C_2   0.048201 0.153791 0.330116 0.672669
H46   H     H_    0.091466 0.093994 0.301971 0.034035
O25   O     O_2   0.979820 0.149598 0.386567 -0.571317
H47   H     H_    0.607004 0.760861 0.353295 0.117515
H48   H     H_    0.109302 0.339178 0.723182 0.095718
C60   C     C_2   0.870921 0.266651 0.735469 0.542628
H49   H     H_    0.809639 0.293499 0.694856 -0.071496
O26   O     O_2   0.793650 0.233746 0.781863 -0.560875
H50   H     H_    0.084557 0.188963 0.815153 0.268817
H51   H     H_    0.363724 0.246117 0.650915 0.169313
H52   H     H_    0.535276 0.110090 0.714342 0.200369
C61   C     C_2   0.336437 0.067873 0.634299 0.643050
H53   H     H_    0.396597 0.056831 0.583984 0.005951
O27   O     O_2   0.197674 0.027264 0.637834 -0.543726
H54   H     H_    0.551465 0.649334 0.892490 0.135248
C62   C     C_2   0.291242 0.716936 0.267183 0.377526
H55   H     H_    0.370164 0.739611 0.226344 0.070682
O28   O     O_2   0.344374 0.679018 0.312226 -0.632113
C63   C     C_2   0.470458 0.056728 0.384689 0.558151
H56   H     H_    0.506217 0.000207 0.348205 0.010776
O29   O     O_2   0.341998 0.080693 0.371243 -0.570309

loop_
_geom_bond_atom_site_label_1
_geom_bond_atom_site_label_2
_geom_bond_distance
_ccdc_geom_bond_type
C25   C26   1.422122 A    
C31   C32   1.423302 A    
O3    P6    1.746812 S    
C49   H39   1.078062 S    
Ba1   Ba2   4.587015 S    
C15   H27   1.107831 S    
C3    H24   1.112454 S    
C33   C34   1.412508 A    
C11   O22   1.391834 S    
P8    O24   1.754807 S    
C5    H45   1.109779 S    
C19   C20   1.393669 A    
Ba1   O20   2.926157 S    
P5    O17   1.754760 S    
C35   C36   1.407770 A    
C23   C24   1.409009 A    
C6    C59   1.504663 S    
C5    H8    1.110564 S    
C55   C56   1.408149 A    
P1    C46   1.886608 S    
C15   H51   1.096906 S    
C12   H23   1.110606 S    
O4    P6    1.544653 D    
C63   H56   1.084085 S    
C8    H14   1.110972 S    
C17   C31   1.407774 A    
C42   C44   1.417571 A    
O10   C8    1.396842 S    
C17   C22   1.418885 A    
O12   Ba2   2.834338 S    
C11   H20   1.097308 S    
C39   C40   1.399663 A    
C60   H49   1.077153 S    
C13   C60   1.493959 S    
C12   H22   1.104391 S    
C2    H3    1.108883 S    
P4    O15   1.746847 S    
C4    C5    1.519925 S    
C14   H26   1.111962 S    
C47   C48   1.389136 A    
C45   C46   1.401031 A    
C31   C38   1.411737 A    
C56   H40   1.077575 S    
C8    H13   1.105804 S    
C13   C14   1.533962 S    
P3    O11   1.768257 S    
P1    Ba1   3.399853 S    
C4    H6    1.104925 S    
C7    H11   1.111503 S    
O7    Ba1   2.854380 S    
C13   H48   1.111074 S    
C18   C34   1.405403 A    
C47   H42   1.082263 S    
C30   C35   1.413947 A    
C53   C57   1.415095 A    
P6    C44   1.863704 S    
P5    C48   1.838758 S    
C62   H55   1.085699 S    
C4    O15   1.393839 S    
C34   H33   1.079014 S    
O14   P8    1.736855 S    
C14   H50   1.111210 S    
C20   H30   1.083975 S    
C14   H25   1.102365 S    
P4    O13   1.562712 S    
P8    O23   1.545390 D    
C1    H18   1.110011 S    
C37   C38   1.420617 A    
C26   C37   1.407685 A    
P5    O18   1.546678 D    
C11   H19   1.110720 S    
C38   C41   1.408151 A    
C39   H54   1.082571 S    
Ba2   O20   2.796536 S    
P1    O5    1.755688 S    
P2    C55   1.839716 S    
C5    H44   1.105219 S    
C50   C57   1.518539 S    
C16   C61   1.496579 S    
C29   C30   1.429903 A    
C24   C25   1.419812 A    
C1    H1    1.110380 S    
C11   C12   1.514747 S    
P5    O19   1.765163 S    
P3    C54   1.825277 S    
O14   Ba2   2.775063 S    
C16   H28   1.110254 S    
Ba1   O13   2.794344 S    
C12   H21   1.104929 S    
P1    O2    1.562875 S    
P7    O22   1.749868 S    
C6    H9    1.100592 S    
C35   H34   1.078906 S    
P2    O10   1.750041 S    
C7    H10   1.111370 S    
P3    O9    1.543871 D    
C40   C41   1.404381 A    
O17   Ba2   2.761757 S    
C8    C9    1.521647 S    
O11   C2    1.412050 S    
C7    H12   1.101064 S    
C53   H38   1.077810 S    
C48   C49   1.398675 A    
C47   C52   1.395278 A    
C16   H52   1.110204 S    
C40   H35   1.083752 S    
C50   C51   1.431234 A    
C2    C62   1.489593 S    
C59   O25   1.220869 D    
C9    H17   1.110748 S    
C58   H41   1.082073 S    
C21   C23   1.398544 A    
C3    H5    1.111366 S    
C15   O24   1.404592 S    
C21   C22   1.408091 A    
C62   O28   1.213331 D    
P4    O12   1.522029 D    
O6    P6    1.760298 S    
C1    C10   1.522201 S    
C56   C57   1.420283 A    
C43   H36   1.081270 S    
C28   H31   1.082035 S    
C49   C50   1.415831 A    
C60   O26   1.221979 D    
Ba1   O16   2.796973 S    
C44   C45   1.404053 A    
C51   C63   1.478674 S    
C22   C26   1.409681 A    
P3    O8    1.757392 S    
C18   C19   1.403341 A    
C24   C27   1.413490 A    
O5    C6    1.402584 S    
O2    Ba2   2.794824 S    
P7    C52   1.851396 S    
C32   C42   1.421095 A    
C55   C58   1.389615 A    
C45   H37   1.082072 S    
P7    O21   1.580413 D    
C61   O27   1.220491 D    
C51   C52   1.416000 A    
C6    C7    1.532485 S    
C23   H32   1.080654 S    
C61   H53   1.079100 S    
C9    H16   1.107702 S    
P8    C27   1.851373 S    
P2    O7    1.514037 D    
O13   Ba2   2.932978 S    
C28   C29   1.398213 A    
C9    H15   1.110613 S    
C19   H29   1.074133 S    
P2    Ba1   3.413540 S    
C33   C46   1.429190 A    
C10   H43   1.098407 S    
P1    O1    1.521633 D    
C63   O29   1.216457 D    
C41   C43   1.404205 A    
C36   C39   1.404427 A    
C2    C3    1.529865 S    
O19   C13   1.411447 S    
C4    H7    1.110554 S    
C32   C33   1.427211 A    
O16   P7    1.763456 S    
C59   H46   1.084333 S    
Ba2   O21   2.854451 S    
C17   C18   1.407877 A    
C54   C58   1.388436 A    
O16   Ba2   2.925319 S    
C10   H47   1.102980 S    
C3    H4    1.103970 S    
O2    Ba1   2.932001 S    
C1    H2    1.107449 S    
C20   C21   1.399185 A    
O3    Ba1   2.775711 S    
C42   C43   1.413291 A    
C36   C37   1.409037 A    
C15   C16   1.529612 S    
O1    Ba1   2.833605 S    
O6    C10   1.408890 S    
O8    Ba1   2.761193 S    
C27   C28   1.398413 A    
C25   C30   1.424291 A    
P2    O20   1.570795 S    
P4    C29   1.872902 S    
P4    Ba2   3.400494 S    
C53   C54   1.389902 A    
