data_mof_unit_29761.cif
_audit_creation_date              2012-12-10T20:47:09-0500
_audit_creation_method            fapswitch 2.2
_symmetry_space_group_name_H-M    P1
_symmetry_Int_Tables_number       1
_space_group_crystal_system       triclinic
_cell_length_a                    10.784189
_cell_length_b                    8.920215
_cell_length_c                    8.232738
_cell_angle_alpha                 89.999276
_cell_angle_beta                  90.005862
_cell_angle_gamma                 90.02374
_cell_volume                      791.966967251

loop_
_atom_site_label
_atom_site_type_symbol
_atom_type_description
_atom_site_fract_x
_atom_site_fract_y
_atom_site_fract_z
_atom_type_partial_charge
C1    C     C_R   0.500047 0.218548 0.499976 0.916568
C2    C     C_R   0.060311 0.471871 0.646162 0.017236
C3    C     C_R   0.127114 0.483996 0.500761 -0.303899
C4    C     C_R   0.872892 0.515890 0.500790 -0.303922
C5    C     C_R   0.063300 0.509140 0.356434 0.478849
C6    C     C_R   0.936680 0.490900 0.356426 0.479106
C7    C     C_1   0.500015 0.065340 0.499978 -0.168756
C8    C     C_1   0.499985 0.934660 0.499976 -0.168759
C9    C     C_R   0.499953 0.781452 0.499974 0.916653
C10   C     C_R   0.259903 0.493156 0.500304 0.940404
C11   C     C_R   0.740100 0.506814 0.500316 0.940303
C12   C     C_R   0.107758 0.413337 0.791310 -0.160084
C13   C     C_R   0.892375 0.586472 0.791352 -0.160011
C14   C     C_R   0.048396 0.447187 0.935780 0.014024
C15   C     C_R   0.951916 0.552823 0.935774 0.014384
C16   C     C_R   0.939725 0.527873 0.646195 0.017248
F1    F     F_    0.120694 0.570886 0.226507 -0.683547
F2    F     F_    0.879242 0.429439 0.226366 -0.683448
H1    H     H_    0.188449 0.341293 0.793831 0.159889
H2    H     H_    0.811692 0.658526 0.793900 0.159907
H3    H     H_    0.081198 0.393712 0.044639 0.209475
H4    H     H_    0.919284 0.606489 0.044595 0.209678
N1    N     N_1   0.500000 0.500000 0.073640 -0.011640
N2    N     N_1   0.500000 0.500000 0.926360 -0.026674
O1    O     O_R   0.500000 0.285350 0.636850 -0.621197
O2    O     O_R   0.500000 0.714650 0.636850 -0.621180
O3    O     O_R   0.500000 0.285360 0.363100 -0.613065
O4    O     O_R   0.500000 0.714640 0.363100 -0.613019
O5    O     O_R   0.316770 0.500000 0.636900 -0.635885
O6    O     O_R   0.683230 0.500000 0.636900 -0.635872
O7    O     O_R   0.316780 0.500000 0.363150 -0.554825
O8    O     O_R   0.683220 0.500000 0.363150 -0.554694
Zn1   Zn    Zn3+2 0.500000 0.500000 0.682780 0.994680
Zn2   Zn    Zn3+2 0.500000 0.500000 0.317220 1.052071

loop_
_geom_bond_atom_site_label_1
_geom_bond_atom_site_label_2
_ccdc_geom_bond_type
C4    C16   A    
N1    N2    T    
C2    C16   A    
O2    Zn1   S    
N2    Zn1   S    
C13   H2    S    
N1    Zn2   S    
C2    C12   A    
C2    C3    A    
O7    Zn2   S    
O4    Zn2   S    
C7    C8    T    
C3    C10   S    
C4    C11   S    
C1    O1    A    
C10   O5    A    
C11   O6    A    
C12   H1    S    
C12   C14   A    
C9    O2    A    
C13   C15   A    
O3    Zn2   S    
C5    C6    A    
C6    F2    S    
C5    F1    S    
O5    Zn1   S    
C14   H3    S    
C4    C6    A    
C13   C16   A    
C1    O3    A    
C14   C15   A    
O6    Zn1   S    
C3    C5    A    
C1    C7    S    
C10   O7    A    
C15   H4    S    
C9    O4    A    
O1    Zn1   S    
C8    C9    S    
C11   O8    A    
O8    Zn2   S    
