data_mof_unit_7084.cif
_audit_creation_date              2012-12-10T19:09:02-0500
_audit_creation_method            fapswitch 2.2
_symmetry_space_group_name_H-M    P1
_symmetry_Int_Tables_number       1
_space_group_crystal_system       triclinic
_cell_length_a                    17.56003
_cell_length_b                    10.887773
_cell_length_c                    9.571531
_cell_angle_alpha                 90.698915
_cell_angle_beta                  89.686682
_cell_angle_gamma                 92.000147
_cell_volume                      1828.70309431

loop_
_atom_site_label
_atom_site_type_symbol
_atom_type_description
_atom_site_fract_x
_atom_site_fract_y
_atom_site_fract_z
_atom_type_partial_charge
C1    C     C_R   0.503248 0.262792 0.499102 0.821345
C2    C     C_R   0.883183 0.431736 0.488297 0.091463
C3    C     C_1   0.964843 0.424175 0.487583 -0.030224
C4    C     C_1   0.033433 0.427952 0.488215 0.130624
C5    C     C_R   0.153157 0.451185 0.622027 0.367335
C6    C     C_R   0.228507 0.500643 0.626929 0.269683
C7    C     C_R   0.270164 0.513775 0.500977 -0.282307
C8    C     C_R   0.228540 0.530195 0.377086 0.314766
C9    C     C_R   0.152060 0.489470 0.372832 -0.327594
C10   C     C_R   0.115067 0.445710 0.492823 -0.107651
C11   C     C_R   0.498364 0.065093 0.621337 -0.024044
C12   C     C_R   0.355122 0.508737 0.500352 0.930012
C13   C     C_R   0.509041 0.129715 0.497442 -0.112449
C14   C     C_R   0.521529 0.061979 0.372734 0.074685
C15   C     C_R   0.495737 0.937315 0.370326 0.055832
C16   C     C_R   0.496624 0.872074 0.498534 -0.115508
C17   C     C_R   0.500825 0.938416 0.624420 0.054256
C18   C     C_3   0.443450 0.933723 0.741156 -0.448333
C19   C     C_3   0.437248 0.071788 0.730459 0.294880
C20   C     C_R   0.561637 0.545934 0.073571 0.132978
C21   C     C_R   0.447567 0.428369 0.071327 0.226458
C22   C     C_R   0.448664 0.430144 0.922617 -0.014288
C23   C     C_R   0.496690 0.737672 0.500175 0.840634
C24   C     C_R   0.560677 0.549624 0.927135 0.181318
C25   C     C_3   0.594506 0.678432 0.929208 0.278868
C26   C     C_3   0.601895 0.667382 0.087390 -0.534585
C27   C     C_R   0.644416 0.495627 0.499313 0.816428
C28   C     C_R   0.837521 0.382034 0.597375 0.121389
C29   C     C_R   0.759508 0.405948 0.600614 -0.139044
C30   C     C_R   0.726787 0.476884 0.497102 -0.059363
C31   C     C_R   0.772183 0.522352 0.387350 -0.195089
C32   C     C_R   0.849942 0.500812 0.383794 -0.166062
Cu1   Cu    Cu3+1 0.500000 0.499980 0.640670 1.045357
Cu2   Cu    Cu3+1 0.500000 0.500020 0.359330 0.970658
H1    H     H_    0.390925 0.880718 0.712416 0.284066
H2    H     H_    0.469085 0.905583 0.841109 0.148738
H3    H     H_    0.455345 0.123080 0.826478 0.056929
H4    H     H_    0.408843 0.373148 0.863091 0.192400
H5    H     H_    0.553444 0.748018 0.897513 0.087737
H6    H     H_    0.661122 0.656793 0.124543 0.227904
H7    H     H_    0.723705 0.366887 0.682553 0.153019
H8    H     H_    0.571126 0.735513 0.148192 0.171332
H9    H     H_    0.747751 0.576172 0.305611 0.161225
H10   H     H_    0.884565 0.539901 0.300265 0.164108
H11   H     H_    0.118984 0.502583 0.279255 0.211743
N1    N     N_R   0.500470 0.500930 0.147930 -0.181575
N2    N     N_R   0.500480 0.500890 0.852020 -0.232535
O1    O     O_R   0.500000 0.319640 0.618810 -0.580156
O2    O     O_R   0.500010 0.319680 0.381230 -0.631264
O3    O     O_R   0.391250 0.499990 0.618840 -0.510460
O4    O     O_R   0.391260 0.500020 0.381250 -0.560393
O5    O     O_R   0.499990 0.680320 0.618770 -0.543557
O6    O     O_R   0.500000 0.680360 0.381190 -0.592787
O7    O     O_R   0.608740 0.499980 0.618750 -0.529921
O8    O     O_R   0.608750 0.500010 0.381160 -0.594159
C33   C     C_3   0.869566 0.302811 0.710038 -0.379285
C34   C     C_3   0.883323 0.172844 0.653936 -0.374404
C35   C     C_3   0.903138 0.086261 0.771585 -0.701719
H12   H     H_    0.954382 0.121702 0.828556 0.287616
H13   H     H_    0.854672 0.076477 0.846193 0.247396
H14   H     H_    0.914998 0.994161 0.727167 0.249887
H15   H     H_    0.831122 0.135406 0.600928 0.219225
H16   H     H_    0.930724 0.175868 0.576497 0.245509
H17   H     H_    0.923173 0.345820 0.751081 0.271282
H18   H     H_    0.829174 0.296598 0.799893 0.202669
C36   C     C_3   0.442517 0.888636 0.254269 -0.283578
C37   C     C_3   0.405691 0.986383 0.165076 -0.471477
C38   C     C_3   0.340493 0.931818 0.077006 -0.615277
H19   H     H_    0.359037 0.850477 0.016221 0.285461
H20   H     H_    0.291214 0.905431 0.144092 0.314964
H21   H     H_    0.321841 0.002093 0.003255 0.261323
H22   H     H_    0.383683 0.060214 0.233600 0.265369
H23   H     H_    0.448289 0.025659 0.091000 0.204593
H24   H     H_    0.395449 0.835400 0.305353 0.287939
H25   H     H_    0.470991 0.824980 0.183313 0.183505
S1    S     S_3+6 0.345878 0.112560 0.662734 -0.014212
O9    O     O_2   0.340638 0.249752 0.660885 -0.332916
O10   O     O_2   0.335544 0.062165 0.516856 -0.283818
O11   O     O_3   0.275853 0.053800 0.764761 -0.519809
H26   H     H_    0.228567 0.089330 0.729502 0.399102
C39   C     C_3   0.394679 0.329847 0.135104 -0.446331
C40   C     C_3   0.310323 0.338440 0.096113 -0.290578
C41   C     C_3   0.259049 0.254939 0.186476 -0.772938
H27   H     H_    0.270806 0.157216 0.165485 0.265765
H28   H     H_    0.267969 0.275704 0.299237 0.261002
H29   H     H_    0.198389 0.269395 0.161822 0.257688
H30   H     H_    0.291884 0.433428 0.110500 0.311011
H31   H     H_    0.301866 0.310597 0.985166 0.275544
H32   H     H_    0.413770 0.239783 0.096109 0.145715
H33   H     H_    0.397550 0.326549 0.248046 0.275521
S2    S     S_3+6 0.685443 0.695870 0.844784 0.001608
O12   O     O_2   0.731957 0.795064 0.918582 -0.305567
O13   O     O_2   0.726727 0.577440 0.849968 -0.304569
O14   O     O_3   0.673130 0.737106 0.678002 -0.543153
H34   H     H_    0.725160 0.742961 0.637586 0.363581
S3    S     S_3+6 0.105088 0.399933 0.775543 0.029508
O15   O     O_2   0.044655 0.489235 0.813128 -0.301303
O16   O     O_2   0.067983 0.275905 0.746767 -0.322858
O17   O     O_3   0.165060 0.387728 0.910245 -0.474380
H35   H     H_    0.133911 0.403388 0.994847 0.376522
S4    S     S_3+6 0.255101 0.600001 0.767990 0.090374
O18   O     O_2   0.298925 0.531996 0.873914 -0.238545
O19   O     O_2   0.304488 0.704644 0.714846 -0.315373
O20   O     O_3   0.177867 0.658292 0.845202 -0.404250
H36   H     H_    0.154741 0.709238 0.772795 0.349023
S5    S     S_3+6 0.254972 0.651856 0.263219 -0.006218
O21   O     O_2   0.332170 0.637598 0.198256 -0.273481
O22   O     O_2   0.197545 0.662231 0.148500 -0.226933
O23   O     O_3   0.256351 0.781931 0.359845 -0.530520
H37   H     H_    0.203690 0.788414 0.396106 0.362811
C42   C     C_3   0.565451 0.119757 0.250717 -0.392888
C43   C     C_3   0.612469 0.028814 0.165000 -0.359929
C44   C     C_3   0.658978 0.095379 0.051913 -0.802675
H38   H     H_    0.620588 0.142235 0.979325 0.240155
H39   H     H_    0.699333 0.164400 0.099698 0.251823
H40   H     H_    0.692160 0.028094 0.991063 0.282674
H41   H     H_    0.651752 0.980943 0.235078 0.233546
H42   H     H_    0.574760 0.958973 0.112743 0.218941
H43   H     H_    0.526665 0.168647 0.181732 0.199917
H44   H     H_    0.606782 0.189997 0.293725 0.205596

loop_
_geom_bond_atom_site_label_1
_geom_bond_atom_site_label_2
_ccdc_geom_bond_type
C9    H11   S    
S4    O18   D    
C42   C43   S    
S1    O11   S    
C12   O4    A    
C39   C40   S    
C28   C33   S    
C27   O7    A    
C7    C8    A    
Cu1   O5    S    
C11   C19   S    
Cu2   O4    S    
C31   H9    S    
C41   H27   S    
C2    C32   A    
C19   S1    S    
S1    O10   D    
C37   H22   S    
C5    C6    A    
C27   O8    A    
S5    O21   D    
C35   H13   S    
C33   H18   S    
C36   H24   S    
S3    O17   S    
C33   C34   S    
C42   H43   S    
C18   C19   S    
C6    S4    S    
C43   C44   S    
C19   H3    S    
C38   H19   S    
C11   C17   A    
C20   C24   A    
C8    C9    A    
S3    O16   D    
C33   H17   S    
C34   H16   S    
C37   H23   S    
C9    C10   A    
C44   H40   S    
C39   H32   S    
C35   H14   S    
C22   N2    A    
Cu2   O8    S    
S4    O19   D    
C21   C22   A    
C27   C30   S    
C7    C12   S    
O20   H36   S    
Cu1   Cu2   S    
C14   C42   S    
C25   S2    S    
C15   C16   A    
C37   C38   S    
C34   H15   S    
C24   C25   S    
S2    O12   D    
C16   C17   A    
Cu1   O3    S    
C15   C36   S    
C42   H44   S    
C23   O5    A    
C29   C30   A    
S2    O13   D    
O17   H35   S    
C30   C31   A    
S3    O15   D    
C17   C18   S    
C32   H10   S    
S1    O9    D    
Cu2   N1    S    
C39   H33   S    
C41   H28   S    
C21   C39   S    
C21   N1    A    
S4    O20   S    
Cu1   N2    S    
C35   H12   S    
C1    C13   S    
C4    C10   S    
C3    C4    T    
C5    S3    S    
C26   H8    S    
C44   H38   S    
C18   H1    S    
Cu1   O7    S    
C28   C29   A    
Cu2   O2    S    
C29   H7    S    
C24   N2    A    
C31   C32   A    
C20   C26   S    
C8    S5    S    
C12   O3    A    
C1    O1    A    
C6    C7    A    
C16   C23   S    
C2    C3    S    
C25   C26   S    
C5    C10   A    
O23   H37   S    
C25   H5    S    
S2    O14   S    
C43   H42   S    
C11   C13   A    
C26   H6    S    
C34   C35   S    
C43   H41   S    
S5    O22   D    
C38   H21   S    
C40   H31   S    
C36   H25   S    
C23   O6    A    
C1    O2    A    
C36   C37   S    
O14   H34   S    
O11   H26   S    
C41   H29   S    
Cu2   O6    S    
C38   H20   S    
C40   C41   S    
Cu1   O1    S    
C14   C15   A    
C2    C28   A    
C13   C14   A    
C18   H2    S    
C20   N1    A    
C40   H30   S    
C44   H39   S    
S5    O23   S    
C22   H4    S    
