data_mof_unit_9022.cif
_audit_creation_date              2012-12-10T18:16:23-0500
_audit_creation_method            fapswitch 2.2
_symmetry_space_group_name_H-M    P1
_symmetry_Int_Tables_number       1
_space_group_crystal_system       triclinic
_cell_length_a                    18.35077
_cell_length_b                    18.319437
_cell_length_c                    18.295061
_cell_angle_alpha                 119.968777
_cell_angle_beta                  60.28046
_cell_angle_gamma                 119.712907
_cell_volume                      4368.557683

loop_
_atom_site_label
_atom_site_type_symbol
_atom_type_description
_atom_site_fract_x
_atom_site_fract_y
_atom_site_fract_z
_atom_type_partial_charge
C1    C     C_R   0.389665 0.109529 0.610258 0.525619
C2    C     C_R   0.026741 0.962993 0.906991 -0.150782
C3    C     C_R   0.945717 0.944121 0.051687 0.019610
C4    C     C_R   0.053044 0.055732 0.948230 0.019259
C5    C     C_R   0.973354 0.906605 0.957128 -0.022641
C6    C     C_R   0.025110 0.093165 0.042857 -0.022326
C7    C     C_R   0.031716 0.478557 0.907246 -0.142467
C8    C     C_R   0.969005 0.522236 0.092928 -0.151170
C9    C     C_R   0.978929 0.532628 0.960893 -0.145463
C10   C     C_R   0.022804 0.469174 0.039409 -0.140865
C11   C     C_R   0.946780 0.554196 0.053881 0.041207
C12   C     C_R   0.610375 0.890432 0.389987 0.529881
C13   C     C_R   0.053952 0.446587 0.946286 0.041411
C14   C     C_R   0.028062 0.093839 0.523238 0.211802
C15   C     C_R   0.968114 0.907349 0.480255 0.220641
C16   C     C_R   0.109783 0.390221 0.890186 0.502100
C17   C     C_R   0.890405 0.609985 0.109850 0.499578
C18   C     C_R   0.990679 0.037464 0.454802 0.213416
C19   C     C_R   0.006010 0.963616 0.548770 0.204080
C20   C     C_R   0.953495 0.945289 0.439812 -0.026789
C21   C     C_R   0.043875 0.055639 0.562964 -0.040322
C22   C     C_R   0.534661 0.090202 0.510623 -0.178389
C23   C     C_R   0.004349 0.240907 0.107155 -0.108596
C24   C     C_R   0.465891 0.909946 0.491851 -0.176032
C25   C     C_R   0.590822 0.039170 0.457804 0.241199
C26   C     C_R   0.408878 0.960428 0.543309 0.251642
C27   C     C_R   0.555277 0.947638 0.446775 0.002033
C28   C     C_R   0.444824 0.052230 0.554418 0.001588
C29   C     C_R   0.408052 0.461812 0.512980 0.236637
C30   C     C_R   0.592701 0.533487 0.482155 0.236928
C31   C     C_R   0.463340 0.518577 0.462816 -0.173732
C32   C     C_R   0.536868 0.480595 0.536314 -0.173963
C33   C     C_R   0.555140 0.553724 0.446265 0.002344
C34   C     C_R   0.999105 0.760784 0.887965 -0.114048
C35   C     C_R   0.445052 0.444620 0.552087 0.001991
C36   C     C_R   0.411151 0.452605 0.036021 -0.142676
C37   C     C_R   0.587667 0.551942 0.965282 -0.153021
C38   C     C_R   0.464836 0.506157 0.089399 -0.143194
C39   C     C_R   0.534333 0.497501 0.911489 -0.144394
C40   C     C_R   0.389898 0.390381 0.890296 0.505967
C41   C     C_R   0.610036 0.610297 0.109792 0.504535
C42   C     C_R   0.553558 0.555389 0.053993 0.041363
C43   C     C_R   0.445848 0.447529 0.946662 0.044905
C44   C     C_R   0.105993 0.110409 0.613716 0.534254
C45   C     C_R   0.022843 0.330689 0.161329 -0.072895
C46   C     C_R   0.893764 0.889748 0.386574 0.546123
C47   C     C_R   0.389629 0.389703 0.609461 0.521936
C48   C     C_R   0.610382 0.610289 0.390528 0.527874
C49   C     C_R   0.109736 0.110423 0.890673 0.510305
C50   C     C_R   0.889963 0.889543 0.109326 0.512643
C51   C     C_R   0.130616 0.318986 0.191137 -0.121280
C52   C     C_R   0.854993 0.675388 0.825896 -0.105111
C53   C     C_R   0.112280 0.229314 0.136739 -0.142885
C54   C     C_R   0.877014 0.766661 0.875158 -0.133323
C55   C     C_R   0.049697 0.189989 0.093805 0.050861
C56   C     C_R   0.977073 0.669580 0.838713 -0.080871
C57   C     C_R   0.948624 0.809586 0.907175 0.047464
C58   C     C_3   0.185432 0.509721 0.263575 0.009213
C59   C     C_3   0.186681 0.524205 0.353109 -0.271812
C60   C     C_3   0.281344 0.564755 0.355188 -0.481053
C61   C     C_3   0.800377 0.483528 0.796362 -0.003380
C62   C     C_3   0.793028 0.476567 0.880222 -0.269934
C63   C     C_3   0.705883 0.407358 0.913359 -0.470490
C64   C     C_3   0.969037 0.128195 0.418081 0.023537
C65   C     C_3   0.966277 0.131863 0.338388 -0.382390
C66   C     C_3   0.019244 0.865982 0.585028 0.029396
C67   C     C_R   0.087156 0.371679 0.202610 0.303509
C68   C     C_3   0.031895 0.866050 0.661077 -0.366831
C69   C     C_3   0.726306 0.143596 0.471449 0.018578
C70   C     C_3   0.771768 0.230839 0.451620 -0.269979
C71   C     C_3   0.824661 0.304424 0.514169 -0.477710
C72   C     C_3   0.275295 0.846420 0.529968 0.020858
C73   C     C_3   0.271366 0.867807 0.460935 -0.271235
C74   C     C_3   0.219958 0.784401 0.401744 -0.501091
C75   C     C_3   0.295830 0.366057 0.452467 0.022006
C76   C     C_3   0.211790 0.368489 0.456483 -0.242218
C77   C     C_3   0.189068 0.304854 0.370822 -0.486401
C78   C     C_R   0.903691 0.625556 0.809234 0.299780
C79   C     C_3   0.724628 0.507747 0.420112 0.021093
C80   C     C_3   0.825039 0.554312 0.388564 -0.238321
C81   C     C_3   0.875510 0.487663 0.332812 -0.498328
C82   C     C_3   0.000930 0.223160 0.635096 0.031051
C83   C     C_3   0.922340 0.233533 0.636906 -0.304112
C84   C     C_3   0.872027 0.281191 0.731606 -0.473049
C85   C     C_3   0.025265 0.792162 0.388116 -0.013804
C86   C     C_3   0.026186 0.754319 0.292010 -0.240954
C87   C     C_3   0.104103 0.719588 0.225977 -0.495958
C88   C     C_R   0.971749 0.036699 0.092840 -0.152511
H1    H     H_    0.561725 0.159839 0.516504 0.145002
H2    H     H_    0.801198 0.644225 0.799567 0.099261
H3    H     H_    0.145655 0.189932 0.129414 0.110300
H4    H     H_    0.838907 0.804113 0.887610 0.113452
H5    H     H_    0.953864 0.210717 0.076607 0.107783
H6    H     H_    0.055678 0.793502 0.910735 0.112254
H7    H     H_    0.986210 0.368636 0.172042 0.105441
H8    H     H_    0.017189 0.632817 0.823325 0.113577
H9    H     H_    0.950124 0.066078 0.164968 0.136056
H10   H     H_    0.048323 0.933549 0.834846 0.137637
H11   H     H_    0.055462 0.462355 0.835475 0.133228
H12   H     H_    0.441017 0.841278 0.487946 0.140059
H13   H     H_    0.945156 0.538357 0.164657 0.125862
H14   H     H_    0.963636 0.557814 0.929672 0.124302
H15   H     H_    0.039855 0.445816 0.070883 0.136731
H16   H     H_    0.204104 0.576126 0.260676 0.145151
H17   H     H_    0.237080 0.480859 0.205778 0.119605
H18   H     H_    0.148481 0.569597 0.407910 0.164734
H19   H     H_    0.154147 0.459832 0.365479 0.167880
H20   H     H_    0.318198 0.516911 0.305749 0.143731
H21   H     H_    0.279505 0.579565 0.422688 0.149025
H22   H     H_    0.316856 0.627778 0.339843 0.149904
H23   H     H_    0.433665 0.534644 0.436520 0.149255
H24   H     H_    0.787489 0.415513 0.746138 0.149959
H25   H     H_    0.747964 0.507464 0.811170 0.115131
H26   H     H_    0.849035 0.457592 0.864905 0.161746
H27   H     H_    0.797315 0.542384 0.934306 0.203116
H28   H     H_    0.648300 0.423441 0.927855 0.165181
H29   H     H_    0.702006 0.406764 0.975595 0.150842
H30   H     H_    0.701992 0.339787 0.862507 0.139012
H31   H     H_    0.008975 0.195822 0.450487 0.176173
H32   H     H_    0.899671 0.109382 0.463746 0.115605
H33   H     H_    0.916026 0.070408 0.311794 0.202556
H34   H     H_    0.565618 0.469292 0.567543 0.146561
H35   H     H_    0.947737 0.190156 0.358964 0.082717
H36   H     H_    0.032413 0.138186 0.285289 0.157688
H37   H     H_    0.084428 0.873716 0.530845 0.113072
H38   H     H_    0.969087 0.800854 0.563126 0.177838
H39   H     H_    0.970384 0.866396 0.720217 0.160960
H40   H     H_    0.047056 0.805369 0.639886 0.077930
H41   H     H_    0.088107 0.925690 0.679293 0.201351
H42   H     H_    0.777912 0.120661 0.460106 0.147297
H43   H     H_    0.685448 0.156559 0.543826 0.110232
H44   H     H_    0.817225 0.219658 0.381280 0.173469
H45   H     H_    0.343152 0.414011 0.064059 0.124352
H46   H     H_    0.720776 0.252879 0.459890 0.159950
H47   H     H_    0.779585 0.319216 0.584565 0.146057
H48   H     H_    0.858370 0.366105 0.496719 0.161978
H49   H     H_    0.875836 0.283983 0.507824 0.135233
H50   H     H_    0.206116 0.819717 0.571786 0.148356
H51   H     H_    0.303475 0.791794 0.496682 0.117303
H52   H     H_    0.239125 0.919584 0.496138 0.178059
H53   H     H_    0.339524 0.894323 0.417217 0.156420
H54   H     H_    0.254765 0.734398 0.362446 0.150071
H55   H     H_    0.215812 0.802228 0.354530 0.140188
H56   H     H_    0.655421 0.591218 0.937731 0.123972
H57   H     H_    0.151627 0.754462 0.442780 0.131453
H58   H     H_    0.283109 0.298916 0.449842 0.162863
H59   H     H_    0.349371 0.376587 0.389325 0.100803
H60   H     H_    0.155180 0.349944 0.514380 0.201681
H61   H     H_    0.222094 0.437380 0.465994 0.163418
H62   H     H_    0.243986 0.323868 0.312449 0.133318
H63   H     H_    0.127951 0.308432 0.375996 0.135103
H64   H     H_    0.177429 0.235208 0.360145 0.192320
H65   H     H_    0.703653 0.460645 0.359913 0.121211
H66   H     H_    0.709141 0.469617 0.460868 0.120320
H67   H     H_    0.437385 0.508048 0.157854 0.122297
H68   H     H_    0.840577 0.591960 0.347502 0.198674
H69   H     H_    0.847471 0.602422 0.447381 0.186097
H70   H     H_    0.862546 0.450418 0.373130 0.160015
H71   H     H_    0.947971 0.523954 0.310351 0.171233
H72   H     H_    0.855009 0.439684 0.272904 0.136459
H73   H     H_    0.044228 0.290652 0.664580 0.181210
H74   H     H_    0.975289 0.185110 0.679970 0.129143
H75   H     H_    0.946403 0.273335 0.594584 0.152689
H76   H     H_    0.875772 0.166637 0.611977 0.143560
H77   H     H_    0.844826 0.242253 0.775774 0.148787
H78   H     H_    0.561987 0.495163 0.842817 0.130327
H79   H     H_    0.816104 0.288277 0.730337 0.145037
H80   H     H_    0.916973 0.348487 0.758652 0.153812
H81   H     H_    0.024708 0.739329 0.401994 0.128426
H82   H     H_    0.088810 0.848251 0.393049 0.098795
H83   H     H_    0.963633 0.698529 0.286292 0.203110
H84   H     H_    0.031656 0.807051 0.274281 0.165663
H85   H     H_    0.168074 0.774296 0.229943 0.146340
H86   H     H_    0.103209 0.693366 0.156950 0.161966
H87   H     H_    0.099113 0.664805 0.240408 0.152988
H88   H     H_    0.177493 0.345815 0.224902 0.092211
O1    O     O_3   0.249960 0.250040 0.750040 -0.446488
O2    O     O_R   0.865890 0.634160 0.194850 -0.580964
O3    O     O_R   0.305100 0.073510 0.634200 -0.499906
O4    O     O_R   0.694900 0.926490 0.365800 -0.502823
O5    O     O_R   0.134110 0.365830 0.926590 -0.547653
O6    O     O_R   0.865890 0.634170 0.073410 -0.560068
O7    O     O_R   0.426490 0.365840 0.805130 -0.547584
O8    O     O_R   0.573510 0.634160 0.194870 -0.547711
O9    O     O_R   0.134150 0.194970 0.634230 -0.529825
O10   O     O_R   0.865850 0.805030 0.365770 -0.505730
O11   O     O_R   0.426480 0.365860 0.634240 -0.566777
O12   O     O_3   0.750040 0.749960 0.249960 -0.442584
O13   O     O_R   0.573520 0.634140 0.365760 -0.565087
O14   O     O_R   0.134190 0.073490 0.805100 -0.556582
O15   O     O_R   0.865810 0.926510 0.194900 -0.560202
O16   O     O_R   0.305020 0.365860 0.634250 -0.484629
O17   O     O_R   0.694980 0.634140 0.365750 -0.491620
O18   O     O_R   0.134160 0.194930 0.926560 -0.535367
O19   O     O_R   0.865840 0.805070 0.073440 -0.534222
O20   O     O_3   0.098298 0.460206 0.258913 -0.589618
O21   O     O_3   0.886913 0.536000 0.757023 -0.581097
O22   O     O_3   0.010474 0.066083 0.387449 -0.534349
O23   O     O_R   0.305030 0.365830 0.926580 -0.544449
O24   O     O_3   0.987518 0.936013 0.616533 -0.528303
O25   O     O_3   0.678623 0.077119 0.411495 -0.541023
O26   O     O_3   0.319821 0.923299 0.588458 -0.539927
O27   O     O_3   0.317115 0.430748 0.530709 -0.536303
O28   O     O_3   0.682369 0.573292 0.472300 -0.525385
O29   O     O_3   0.053617 0.185591 0.546275 -0.562085
O30   O     O_3   0.947429 0.815655 0.450835 -0.536953
O31   O     O_R   0.694970 0.634170 0.073420 -0.560395
O32   O     O_R   0.134180 0.073510 0.634210 -0.526725
O33   O     O_R   0.865820 0.926490 0.365790 -0.531743
O34   O     O_R   0.426530 0.194970 0.634210 -0.564166
O35   O     O_R   0.573470 0.805030 0.365790 -0.559816
O36   O     O_R   0.134110 0.365840 0.805150 -0.559727
Zn1   Zn    Zn3+2 0.206570 0.293400 0.880180 0.935732
Zn2   Zn    Zn3+2 0.793430 0.706600 0.119820 0.913178
Zn3   Zn    Zn3+2 0.380110 0.293420 0.706660 0.916805
Zn4   Zn    Zn3+2 0.619890 0.706580 0.293340 0.918509
Zn5   Zn    Zn3+2 0.206560 0.293420 0.706670 0.945755
Zn6   Zn    Zn3+2 0.793440 0.706580 0.293330 0.938472
Zn7   Zn    Zn3+2 0.206610 0.119900 0.706640 0.936929
Zn8   Zn    Zn3+2 0.793390 0.880100 0.293360 0.939151

loop_
_geom_bond_atom_site_label_1
_geom_bond_atom_site_label_2
_ccdc_geom_bond_type
C17   O2    A    
C66   C68   S    
C83   H76   S    
C34   C56   A    
C81   H71   S    
C37   H56   S    
C64   O22   S    
C48   O17   A    
C41   C42   S    
C14   C18   A    
C74   H57   S    
C52   H2    S    
C24   C27   A    
C6    C55   S    
C74   H55   S    
C35   C47   S    
O14   Zn7   S    
C77   H63   S    
O18   Zn1   S    
O12   Zn4   S    
C56   C78   A    
C71   H49   S    
C73   H53   S    
C85   C86   S    
C54   H4    S    
O10   Zn6   S    
C19   O24   S    
C64   H31   S    
O9    Zn5   S    
C23   C45   A    
O16   Zn5   S    
C14   C21   A    
C10   H15   S    
C26   O26   S    
C24   C26   A    
C62   H26   S    
C25   O25   S    
C8    C11   A    
C71   H47   S    
C63   H29   S    
O8    Zn4   S    
C49   O18   A    
O34   Zn3   S    
C20   C46   S    
C44   O32   A    
C6    C88   A    
C82   H73   S    
C56   H8    S    
C73   C74   S    
C65   H36   S    
C58   O20   S    
C47   O16   A    
O1    Zn3   S    
O19   Zn2   S    
C60   H21   S    
C68   H41   S    
C72   H51   S    
C69   H42   S    
C22   C25   A    
C53   H3    S    
C1    C28   S    
C31   C33   A    
C41   O8    A    
C70   C71   S    
C84   H77   S    
C78   O21   S    
C65   H33   S    
C8    H13   S    
C68   H40   S    
C88   H9    S    
C60   H20   S    
C44   O9    A    
C72   C73   S    
C40   O7    A    
O6    Zn2   S    
O32   Zn7   S    
C72   H50   S    
O35   Zn4   S    
C1    O34   A    
C59   C60   S    
C81   H72   S    
C22   C28   A    
C36   H45   S    
C69   C70   S    
C38   H67   S    
O1    Zn7   S    
C52   C78   A    
C17   O6    A    
C77   H64   S    
C3    C50   S    
C52   C54   A    
C85   O30   S    
C80   H68   S    
C29   O27   S    
O12   Zn8   S    
C75   H58   S    
O7    Zn3   S    
C69   O25   S    
C87   H85   S    
O11   Zn3   S    
C59   H18   S    
C12   C27   S    
C86   H83   S    
C32   C35   A    
O1    Zn1   S    
C16   O36   A    
C76   C77   S    
C4    C6    A    
C61   O21   S    
C71   H48   S    
C63   H30   S    
O12   Zn2   S    
C86   C87   S    
C9    H14   S    
C39   C43   A    
O17   Zn6   S    
C82   H74   S    
C75   H59   S    
C58   C59   S    
O31   Zn2   S    
C59   H19   S    
C23   H5    S    
C15   C20   A    
C51   C53   A    
O15   Zn8   S    
C15   C19   A    
C75   C76   S    
C18   O22   S    
C62   C63   S    
C84   H80   S    
O13   Zn4   S    
C32   H34   S    
C79   H65   S    
C21   C44   S    
C50   O19   A    
C83   C84   S    
C69   H43   S    
C40   C43   S    
C37   C42   A    
C70   H44   S    
C51   C67   A    
C46   O10   A    
C23   C55   A    
C50   O15   A    
C9    C11   A    
C68   H39   S    
C76   H60   S    
C48   O13   A    
C7    H11   S    
C63   H28   S    
C8    C10   A    
C12   O4    A    
C79   O28   S    
C51   H88   S    
C61   H25   S    
C86   H84   S    
O4    Zn8   S    
C2    C5    A    
C58   H16   S    
C53   C55   A    
C47   O11   A    
C67   O20   S    
C45   H7    S    
C87   H87   S    
C72   O26   S    
C7    C9    A    
C87   H86   S    
C83   H75   S    
C11   C17   S    
C75   O27   S    
C81   H70   S    
C30   C33   A    
O3    Zn7   S    
C3    C88   A    
C24   H12   S    
O33   Zn8   S    
O2    Zn6   S    
C34   H6    S    
C12   O35   A    
O1    Zn5   S    
C80   C81   S    
C3    C5    A    
C10   C13   A    
C77   H62   S    
C38   C42   A    
C45   C67   A    
C49   O14   A    
C40   O23   A    
O12   Zn6   S    
C25   C27   A    
C46   O33   A    
C30   O28   S    
C29   C35   A    
C26   C28   A    
C85   H82   S    
C64   H32   S    
C66   H37   S    
C5    C57   S    
C4    C49   S    
C58   H17   S    
C64   C65   S    
C16   O5    A    
C39   H78   S    
O23   Zn1   S    
C13   C16   S    
C62   H27   S    
C29   C31   A    
C84   H79   S    
C79   H66   S    
C30   C32   A    
C1    O3    A    
C73   H52   S    
C80   H69   S    
C76   H61   S    
C34   C57   A    
C2    C4    A    
C36   C38   A    
C22   H1    S    
C18   C20   A    
C65   H35   S    
C74   H54   S    
C61   C62   S    
C85   H81   S    
C15   O30   S    
C60   H22   S    
C79   C80   S    
C66   H38   S    
C7    C13   A    
C2    H10   S    
C37   C39   A    
C82   C83   S    
O36   Zn5   S    
C14   O29   S    
C70   H46   S    
C33   C48   S    
C31   H23   S    
C36   C43   A    
O5    Zn1   S    
C41   O31   A    
C61   H24   S    
C82   O29   S    
C66   O24   S    
C19   C21   A    
C54   C57   A    
