data_mof_unit_19736.cif
_audit_creation_date              2012-10-26T19:24:18-0400
_audit_creation_method            fapswitch 2.2
_symmetry_space_group_name_H-M    P1
_symmetry_Int_Tables_number       1
_space_group_crystal_system       triclinic
_cell_length_a                    27.794492
_cell_length_b                    10.810267
_cell_length_c                    9.612073
_cell_angle_alpha                 87.639981
_cell_angle_beta                  90.229011
_cell_angle_gamma                 93.501443
_cell_volume                      2880.26036734

loop_
_atom_site_label
_atom_site_type_symbol
_atom_type_description
_atom_site_fract_x
_atom_site_fract_y
_atom_site_fract_z
_atom_type_partial_charge
Br1   Br    Br    0.574772 0.165790 0.274947 -0.404833
Br2   Br    Br    0.531323 0.184464 0.858678 -0.413817
Br3   Br    Br    0.422691 0.309597 0.165970 -0.485508
C1    C     C_R   0.503741 0.262950 0.503979 0.603876
C2    C     C_R   0.971276 0.383347 0.521457 -0.027614
C3    C     C_R   0.977143 0.608840 0.466782 0.029810
C4    C     C_R   0.407535 0.499310 0.499777 0.553553
C5    C     C_R   0.948886 0.496357 0.494411 0.019058
C6    C     C_R   0.941622 0.275233 0.554008 -0.132582
C7    C     C_R   0.891305 0.275003 0.551622 0.277970
C8    C     C_R   0.868934 0.387550 0.527885 0.023828
C9    C     C_R   0.897715 0.497455 0.496303 -0.073718
C10   C     C_R   0.875221 0.609058 0.466703 0.033671
C11   C     C_R   0.824861 0.609734 0.469882 0.386328
C12   C     C_R   0.279008 0.508937 0.372609 -0.051427
C13   C     C_R   0.818372 0.393997 0.533767 0.407257
C14   C     C_R   0.720724 0.493457 0.628341 -0.078017
C15   C     C_R   0.670560 0.491514 0.627593 -0.154547
C16   C     C_R   0.499360 0.737557 0.497661 0.536445
C17   C     C_R   0.671177 0.515375 0.375412 -0.150370
C18   C     C_R   0.721336 0.517077 0.376458 -0.073160
C19   C     C_R   0.746214 0.505681 0.502795 0.237124
C20   C     C_R   0.022418 0.381866 0.516161 0.021795
C21   C     C_R   0.050600 0.495203 0.495045 0.038224
C22   C     C_R   0.028245 0.609078 0.473040 0.019623
C23   C     C_R   0.253521 0.493804 0.498011 0.243085
C24   C     C_R   0.046637 0.270418 0.529949 -0.141883
C25   C     C_R   0.107936 0.718385 0.461773 -0.110199
C26   C     C_R   0.953103 0.717712 0.432926 -0.140595
C27   C     C_R   0.903257 0.717560 0.433303 -0.117859
C28   C     C_R   0.592416 0.500482 0.500292 0.532991
C29   C     C_R   0.058041 0.719951 0.459479 -0.142515
C30   C     C_R   0.480689 0.093424 0.762148 0.195880
C31   C     C_R   0.446147 0.028859 0.847300 -0.071078
C32   C     C_R   0.422839 0.919603 0.803105 -0.131480
C33   C     C_R   0.438161 0.867585 0.681754 -0.080276
C34   C     C_R   0.101770 0.494702 0.495827 -0.028031
C35   C     C_R   0.474240 0.930785 0.597950 -0.041153
C36   C     C_R   0.488118 0.054329 0.625263 -0.008275
C37   C     C_R   0.510330 0.129272 0.515746 -0.028757
C38   C     C_R   0.534759 0.072009 0.410351 0.173222
C39   C     C_R   0.533849 0.942893 0.411476 0.276713
C40   C     C_R   0.175184 0.384044 0.514402 0.401110
C41   C     C_R   0.499846 0.872348 0.495273 -0.021629
C42   C     C_R   0.564616 0.663336 0.136907 -0.113040
C43   C     C_R   0.596631 0.744185 0.062793 -0.109408
C44   C     C_R   0.597546 0.744536 0.918999 0.231592
C45   C     C_R   0.124608 0.382374 0.513784 0.023703
C46   C     C_R   0.565715 0.663836 0.849572 -0.060495
C47   C     C_R   0.532445 0.579754 0.921891 0.113243
C48   C     C_R   0.532136 0.579831 0.071143 0.112292
C49   C     C_R   0.468697 0.424581 0.075328 0.286297
C50   C     C_R   0.468525 0.426295 0.928033 0.062763
C51   C     C_R   0.180673 0.604096 0.479777 0.398618
C52   C     C_R   0.278419 0.480500 0.624034 -0.053937
C53   C     C_R   0.328643 0.482745 0.624850 -0.143110
C54   C     C_R   0.329206 0.510576 0.373003 -0.120055
C55   C     C_3   0.606991 0.855290 0.421323 -0.003551
C56   C     C_R   0.096634 0.271023 0.529387 -0.111272
C57   C     C_3   0.652883 0.933049 0.377060 -0.262636
C58   C     C_3   0.697788 0.858925 0.393047 -0.459495
C59   C     C_3   0.673341 0.793044 0.837128 -0.011376
C60   C     C_3   0.707409 0.903053 0.790180 -0.244560
C61   C     C_3   0.758595 0.863528 0.769069 -0.473172
C62   C     C_3   0.866989 0.081267 0.475660 0.014095
C63   C     C_3   0.831895 0.111007 0.356874 -0.249287
C64   C     C_3   0.833757 0.018417 0.241716 -0.492200
C65   C     C_R   0.130243 0.606574 0.478631 0.024035
C66   C     C_R   0.354512 0.497721 0.499227 0.009164
C67   C     C_R   0.645342 0.502298 0.501062 0.007768
Cu1   Cu    Cu3+1 0.500000 0.499990 0.640660 0.962504
Cu2   Cu    Cu3+1 0.500000 0.500010 0.359340 1.038512
H1    H     H_    0.348133 0.522510 0.274657 0.156664
H2    H     H_    0.259848 0.519462 0.274937 0.130905
H3    H     H_    0.396160 0.869477 0.869043 0.131138
H4    H     H_    0.422529 0.777264 0.655766 0.143560
H5    H     H_    0.565714 0.670717 0.245697 0.208904
H6    H     H_    0.620618 0.808173 0.117194 0.161197
H7    H     H_    0.568564 0.672345 0.739470 0.183027
H8    H     H_    0.443035 0.365405 0.874195 0.144162
H9    H     H_    0.113303 0.183141 0.540906 0.165625
H10   H     H_    0.651592 0.481413 0.726005 0.142711
H11   H     H_    0.739835 0.484893 0.726321 0.127347
H12   H     H_    0.258806 0.469135 0.721286 0.131555
H13   H     H_    0.956242 0.188431 0.585121 0.113853
H14   H     H_    0.028122 0.180059 0.538799 0.101811
H15   H     H_    0.347138 0.472344 0.723641 0.134424
H16   H     H_    0.612628 0.755743 0.409474 0.124319
H17   H     H_    0.601071 0.864928 0.535315 0.138755
H18   H     H_    0.650265 0.966236 0.266524 0.219956
H19   H     H_    0.656921 0.015972 0.441726 0.181095
H20   H     H_    0.698970 0.811944 0.497672 0.166493
H21   H     H_    0.730603 0.921866 0.378562 0.172280
H22   H     H_    0.697636 0.787614 0.313087 0.156499
H23   H     H_    0.129017 0.805888 0.450542 0.171163
H24   H     H_    0.674245 0.719741 0.759562 0.126737
H25   H     H_    0.686433 0.756017 0.939699 0.120714
H26   H     H_    0.694088 0.945368 0.691190 0.186203
H27   H     H_    0.707971 0.974537 0.870171 0.191861
H28   H     H_    0.773377 0.826675 0.868908 0.147020
H29   H     H_    0.782058 0.944794 0.731496 0.190765
H30   H     H_    0.758950 0.790944 0.690678 0.181144
H31   H     H_    0.856433 0.987215 0.520454 0.164968
H32   H     H_    0.904218 0.076601 0.434450 0.100841
H33   H     H_    0.794571 0.108134 0.398298 0.208898
H34   H     H_    0.971638 0.805036 0.403089 0.100344
H35   H     H_    0.841173 0.205570 0.311412 0.166163
H36   H     H_    0.870784 0.018983 0.198533 0.152222
H37   H     H_    0.808689 0.044113 0.156549 0.159235
H38   H     H_    0.822600 0.923586 0.282571 0.189759
H39   H     H_    0.652725 0.524546 0.276415 0.135352
H40   H     H_    0.886769 0.803625 0.407036 0.136029
H41   H     H_    0.740930 0.526399 0.279076 0.122119
H42   H     H_    0.044088 0.810599 0.449555 0.106452
H43   H     H_    0.439777 0.058544 0.951502 0.173711
N1    N     N_R   0.201990 0.493899 0.497480 -0.400247
N2    N     N_R   0.797695 0.503344 0.503022 -0.403930
N3    N     N_R   0.500460 0.501210 0.147910 -0.224605
N4    N     N_R   0.500480 0.501290 0.852040 -0.251119
O1    O     O_R   0.500000 0.319640 0.618810 -0.471562
O2    O     O_R   0.569730 0.499970 0.618800 -0.519031
O3    O     O_R   0.569740 0.499990 0.381230 -0.518994
O4    O     O_2   0.197423 0.276872 0.531112 -0.481194
O5    O     O_3   0.567577 0.886625 0.334580 -0.552548
O6    O     O_3   0.626076 0.833175 0.845002 -0.552970
O7    O     O_3   0.864124 0.165663 0.584073 -0.525203
O8    O     O_2   0.789852 0.292374 0.569716 -0.458155
O9    O     O_2   0.208239 0.710913 0.463924 -0.485469
O10   O     O_2   0.803106 0.716120 0.441392 -0.560806
O11   O     O_R   0.500000 0.319660 0.381240 -0.412661
O12   O     O_R   0.430260 0.500010 0.618770 -0.524648
O13   O     O_R   0.430270 0.500030 0.381200 -0.468774
O14   O     O_R   0.500000 0.680340 0.618760 -0.538242
O15   O     O_R   0.500000 0.680360 0.381190 -0.497049

loop_
_geom_bond_atom_site_label_1
_geom_bond_atom_site_label_2
_ccdc_geom_bond_type
C15   C67   A    
C19   N2    S    
C52   C53   A    
C59   H24   S    
C38   C39   A    
C32   C33   A    
C63   H35   S    
C23   C52   A    
C39   O5    S    
C44   C46   A    
C42   C43   A    
C16   C41   S    
C16   O15   A    
C61   H30   S    
C32   H3    S    
C26   C27   A    
Cu1   O1    S    
C25   H23   S    
C25   C65   A    
C60   H26   S    
C35   C36   A    
C58   H21   S    
C64   H36   S    
C3    C22   A    
C51   C65   A    
C42   C48   A    
C55   C57   S    
C59   H25   S    
C34   C65   A    
C48   N3    A    
C14   C15   A    
C31   C32   A    
C54   H1    S    
C60   H27   S    
C33   H4    S    
C6    H13   S    
C64   H37   S    
C28   C67   S    
C1    C37   S    
C51   N1    A    
C20   C21   A    
C44   O6    S    
C20   C24   A    
C40   C45   A    
C4    O12   A    
C58   H20   S    
C22   C29   A    
C63   C64   S    
C18   C19   A    
C12   C54   A    
C17   C67   A    
C39   C41   A    
C13   O8    S    
C35   C41   A    
Cu2   O13   S    
C61   H29   S    
C47   N4    A    
C10   C27   A    
C25   C29   A    
C50   H8    S    
C21   C22   A    
C28   O2    A    
C18   H41   S    
C36   C37   A    
C43   H6    S    
C58   H22   S    
C12   C23   A    
C3    C5    A    
C47   C48   A    
C31   H43   S    
C51   O9    S    
C46   H7    S    
C27   H40   S    
C57   C58   S    
C14   H11   S    
C24   H14   S    
C2    C6    A    
C59   C60   S    
C40   N1    A    
C59   O6    S    
C17   H39   S    
C8    C13   A    
C64   H38   S    
Cu2   O15   S    
C2    C20   A    
C5    C9    A    
C11   N2    A    
C12   H2    S    
C21   C34   A    
C30   C36   A    
C9    C10   A    
C34   C45   A    
C4    O13   A    
Br2   C30   S    
Br1   C38   S    
C37   C38   A    
C53   C66   A    
C26   H34   S    
C62   H31   S    
C63   H33   S    
C40   O4    S    
C49   C50   A    
C45   C56   A    
C6    C7    A    
C57   H19   S    
C7    O7    S    
C43   C44   A    
Cu2   O3    S    
Cu1   O2    S    
C56   H9    S    
C28   O3    A    
C53   H15   S    
C55   H16   S    
Cu1   O14   S    
C2    C5    A    
C1    O11   A    
Br3   C49   S    
C50   N4    A    
Cu2   O11   S    
C57   H18   S    
C16   O14   A    
C55   O5    S    
C14   C19   A    
Cu1   N4    S    
C29   H42   S    
C62   O7    S    
C33   C35   A    
C4    C66   S    
Cu1   Cu2   S    
C24   C56   A    
C13   N2    A    
C15   H10   S    
C30   C31   A    
C62   C63   S    
C55   H17   S    
C23   N1    S    
C7    C8    A    
Cu1   O12   S    
C60   C61   S    
C61   H28   S    
C3    C26   A    
C17   C18   A    
C46   C47   A    
Cu2   N3    S    
C1    O1    A    
C42   H5    S    
C62   H32   S    
C54   C66   A    
C52   H12   S    
C10   C11   A    
C8    C9    A    
C11   O10   S    
C49   N3    A    
