data_mof_unit_12687.cif
_audit_creation_date              2012-12-10T20:31:05-0500
_audit_creation_method            fapswitch 2.2
_symmetry_space_group_name_H-M    P1
_symmetry_Int_Tables_number       1
_space_group_crystal_system       triclinic
_cell_length_a                    14.956683
_cell_length_b                    10.718913
_cell_length_c                    9.933561
_cell_angle_alpha                 88.84698
_cell_angle_beta                  87.936239
_cell_angle_gamma                 90.512799
_cell_volume                      1591.11256525

loop_
_atom_site_label
_atom_site_type_symbol
_atom_type_description
_atom_site_fract_x
_atom_site_fract_y
_atom_site_fract_z
_atom_type_partial_charge
C1    C     C_R   0.508223 0.261051 0.500275 0.880213
C2    C     C_R   0.905288 0.609199 0.546747 -0.078487
C3    C     C_R   0.950669 0.294203 0.404293 -0.190038
C4    C     C_R   0.043072 0.290271 0.407261 -0.129712
C5    C     C_R   0.091884 0.390537 0.458569 0.098874
C6    C     C_R   0.045606 0.498554 0.502245 0.004068
C7    C     C_R   0.092640 0.603293 0.547235 -0.044369
C8    C     C_R   0.046573 0.710222 0.586920 -0.186478
C9    C     C_R   0.953721 0.710861 0.598433 -0.025118
C10   C     C_R   0.185820 0.387908 0.462969 -0.145305
C11   C     C_R   0.231034 0.494738 0.506322 -0.253530
C12   C     C_R   0.327081 0.498743 0.502159 0.972196
C13   C     C_R   0.185419 0.598901 0.554717 0.413361
C14   C     C_R   0.527258 0.058489 0.614366 0.066641
C15   C     C_R   0.529583 0.130986 0.497301 -0.226403
C16   C     C_R   0.552095 0.071702 0.373398 -0.077723
C17   C     C_R   0.541867 0.940426 0.367738 -0.056612
C18   C     C_R   0.525956 0.871355 0.491009 -0.170620
C19   C     C_R   0.535565 0.934182 0.610051 -0.004319
C20   C     C_3   0.525153 0.915479 0.758480 -0.308985
C21   C     C_3   0.510908 0.058014 0.764369 0.341370
C22   C     C_R   0.421687 0.497436 0.075031 0.210290
C23   C     C_R   0.506212 0.739834 0.497616 0.917819
C24   C     C_R   0.576939 0.518035 0.066885 -0.152870
C25   C     C_R   0.577936 0.502891 0.925047 0.457023
C26   C     C_R   0.421500 0.501149 0.932971 0.083752
C27   C     C_3   0.350208 0.403461 0.932647 -0.466226
C28   C     C_3   0.351234 0.398763 0.085498 -0.487556
C29   C     C_R   0.672583 0.501313 0.497612 0.907288
C30   C     C_R   0.812080 0.612022 0.534256 0.399582
C31   C     C_R   0.767589 0.505305 0.492107 -0.136654
C32   C     C_R   0.812854 0.400639 0.448400 -0.323713
C33   C     C_R   0.905104 0.398805 0.450386 0.136744
C34   C     C_R   0.952024 0.502384 0.499793 0.028277
H1    H     H_    0.466020 0.858698 0.790014 0.166072
H2    H     H_    0.561572 0.114353 0.816493 0.110515
H3    H     H_    0.286301 0.438353 0.894821 0.199891
H4    H     H_    0.374694 0.318828 0.882051 0.246495
H5    H     H_    0.288278 0.432883 0.134268 0.202940
H6    H     H_    0.775793 0.320241 0.414540 0.150185
H7    H     H_    0.376197 0.309588 0.128060 0.209517
H8    H     H_    0.914723 0.215319 0.365060 0.155522
H9    H     H_    0.075284 0.208822 0.366409 0.192897
H10   H     H_    0.082986 0.792731 0.615160 0.224302
N1    N     N_R   0.499390 0.499140 0.142800 -0.177795
N2    N     N_R   0.499390 0.499180 0.857150 -0.179586
O1    O     O_R   0.500010 0.316790 0.614690 -0.614834
O2    O     O_R   0.500000 0.316760 0.385350 -0.640085
O3    O     O_R   0.367850 0.499990 0.614680 -0.596633
O4    O     O_R   0.367840 0.499950 0.385340 -0.633312
O5    O     O_R   0.500000 0.683240 0.614650 -0.626083
O6    O     O_R   0.499990 0.683210 0.385310 -0.662235
O7    O     O_R   0.632160 0.500050 0.614660 -0.559898
O8    O     O_R   0.632150 0.500010 0.385320 -0.670805
Zn1   Zn    Zn3+2 0.500010 0.500020 0.653130 0.970249
Zn2   Zn    Zn3+2 0.499990 0.499980 0.346870 0.926848
O9    O     O_3   0.764617 0.720847 0.553940 -0.661656
C35   C     C_3   0.758629 0.785971 0.429135 0.106091
H11   H     H_    0.693221 0.763376 0.386535 0.167656
H12   H     H_    0.812268 0.762567 0.352716 0.157496
C36   C     C_3   0.764022 0.926009 0.451304 -0.797531
H13   H     H_    0.833166 0.953589 0.475354 0.263210
H14   H     H_    0.745906 0.977339 0.358196 0.234151
H15   H     H_    0.717834 0.952894 0.535379 0.258886
C37   C     C_2   0.549967 0.878648 0.235677 0.471147
H16   H     H_    0.492185 0.833500 0.194146 0.058321
O10   O     O_2   0.621550 0.877865 0.172778 -0.552958
C38   C     C_2   0.610521 0.868182 0.816377 0.399030
H17   H     H_    0.631277 0.773379 0.796439 0.140839
O11   O     O_2   0.656705 0.933948 0.885476 -0.514130
O12   O     O_3   0.420953 0.086056 0.799495 -0.591351
C39   C     C_3   0.407864 0.074025 0.941055 0.103183
H18   H     H_    0.441063 0.153093 0.990198 0.181174
H19   H     H_    0.435402 0.985427 0.982131 0.160571
C40   C     C_3   0.308194 0.075058 0.978875 -0.820840
H20   H     H_    0.275463 0.988452 0.945609 0.255902
H21   H     H_    0.298645 0.080658 0.089975 0.217676
H22   H     H_    0.275040 0.155795 0.931024 0.274877
C41   C     C_2   0.657827 0.566856 0.128355 0.557049
H23   H     H_    0.651382 0.640838 0.200199 0.091202
O13   O     O_2   0.732144 0.527954 0.098102 -0.574864
O14   O     O_3   0.659236 0.488328 0.857875 -0.561251
C42   C     C_3   0.680650 0.359745 0.861654 0.182076
H24   H     H_    0.643330 0.310040 0.783875 0.137230
H25   H     H_    0.664762 0.314074 0.961842 0.155204
C43   C     C_3   0.780412 0.344009 0.832244 -0.745001
H26   H     H_    0.819263 0.386400 0.913038 0.279916
H27   H     H_    0.796455 0.243213 0.827278 0.222888
H28   H     H_    0.800523 0.389788 0.734917 0.246485
C44   C     C_2   0.237868 0.273706 0.429982 0.382452
H29   H     H_    0.299905 0.280792 0.370373 0.082295
O15   O     O_2   0.214385 0.171481 0.475561 -0.539362
O16   O     O_3   0.232952 0.696422 0.608837 -0.605088
C45   C     C_3   0.223530 0.689036 0.751344 0.129472
H30   H     H_    0.218564 0.591518 0.791207 0.123018
H31   H     H_    0.163155 0.739261 0.787775 0.149864
C46   C     C_3   0.303610 0.750960 0.811280 -0.816994
H32   H     H_    0.310272 0.848218 0.771504 0.288117
H33   H     H_    0.295599 0.751364 0.922853 0.193604
H34   H     H_    0.364520 0.698547 0.782937 0.274921
C47   C     C_2   0.911351 0.812599 0.677226 0.454300
H35   H     H_    0.848452 0.796891 0.732854 0.152047
O17   O     O_2   0.947896 0.914479 0.684746 -0.575697
C48   C     C_2   0.591573 0.145576 0.256275 0.491286
H36   H     H_    0.635695 0.224007 0.274302 0.062149
O18   O     O_2   0.574107 0.122574 0.140357 -0.596003

loop_
_geom_bond_atom_site_label_1
_geom_bond_atom_site_label_2
_ccdc_geom_bond_type
C8    C9    A    
C3    H8    S    
O16   C45   S    
C19   C20   S    
C48   O18   D    
C12   O3    A    
C44   H29   S    
C7    C8    A    
C21   H2    S    
C26   C27   S    
C47   H35   S    
C21   O12   S    
C24   N1    A    
C14   C21   S    
C5    C6    A    
C43   H27   S    
C29   O8    A    
C3    C33   A    
C27   H4    S    
C35   H12   S    
C15   C16   A    
C30   O9    S    
C46   H32   S    
C28   H7    S    
C18   C19   A    
C36   H14   S    
C38   H17   S    
C20   H1    S    
C23   O5    A    
C16   C48   S    
C31   C32   A    
N1    Zn2   S    
C16   C17   A    
C37   O10   D    
N2    Zn1   S    
C1    C15   S    
C2    C34   A    
C35   C36   S    
C47   O17   D    
C22   C28   S    
C45   H30   S    
C39   C40   S    
C48   H36   S    
C46   H33   S    
C33   C34   A    
O9    C35   S    
O7    Zn1   S    
O8    Zn2   S    
C18   C23   S    
C24   C25   A    
C39   H19   S    
C41   O13   D    
C43   H26   S    
C4    C5    A    
C28   H5    S    
C35   H11   S    
O3    Zn1   S    
O4    Zn2   S    
C6    C34   A    
C13   O16   S    
C36   H15   S    
C40   H20   S    
C24   C41   S    
C44   O15   D    
C42   H24   S    
C7    C13   A    
C42   C43   S    
C17   C18   A    
C45   H31   S    
C40   H21   S    
C9    C47   S    
C42   H25   S    
O14   C42   S    
C25   O14   S    
C3    C4    A    
C46   H34   S    
O1    Zn1   S    
O2    Zn2   S    
C14   C19   A    
C20   C38   S    
C1    O1    A    
C8    H10   S    
C39   H18   S    
C43   H28   S    
C12   O4    A    
C11   C12   S    
C1    O2    A    
C6    C7    A    
C4    H9    S    
C17   C37   S    
C45   C46   S    
C2    C30   A    
C32   C33   A    
C5    C10   A    
C29   C31   S    
C11   C13   A    
C23   O6    A    
C30   C31   A    
C29   O7    A    
C27   H3    S    
O5    Zn1   S    
C32   H6    S    
C36   H13   S    
C40   H22   S    
C10   C11   A    
C26   N2    A    
C41   H23   S    
O12   C39   S    
C22   N1    A    
C20   C21   S    
C10   C44   S    
C38   O11   D    
C37   H16   S    
C22   C26   A    
C27   C28   S    
C14   C15   A    
C2    C9    A    
C25   N2    A    
O6    Zn2   S    
