data_mof_unit_68613.cif
_audit_creation_date              2012-12-10T19:44:27-0500
_audit_creation_method            fapswitch 2.2
_symmetry_space_group_name_H-M    P1
_symmetry_Int_Tables_number       1
_space_group_crystal_system       triclinic
_cell_length_a                    11.049965
_cell_length_b                    12.474541
_cell_length_c                    13.706241
_cell_angle_alpha                 118.491266
_cell_angle_beta                  73.368234
_cell_angle_gamma                 98.090342
_cell_volume                      1591.00940751

loop_
_atom_site_label
_atom_site_type_symbol
_atom_type_description
_atom_site_fract_x
_atom_site_fract_y
_atom_site_fract_z
_atom_type_partial_charge
C1    C     C_R   0.526859 0.853636 0.286976 0.810308
C2    C     C_R   0.781719 0.613341 0.588078 0.076837
C3    C     C_R   0.052925 0.891247 0.490448 0.095965
C4    C     C_R   0.132540 0.989043 0.483637 -0.127175
C5    C     C_R   0.081390 0.076893 0.468664 -0.013564
C6    C     C_R   0.952957 0.076982 0.477419 -0.212372
C7    C     C_R   0.871056 0.989518 0.495639 -0.081752
C8    C     C_R   0.922079 0.894235 0.500216 0.008622
C9    C     C_R   0.125646 0.286808 0.492332 -0.216503
C10   C     C_R   0.180796 0.367629 0.449038 -0.051744
C11   C     C_R   0.266377 0.324151 0.341846 0.195902
C12   C     C_R   0.736636 0.996816 0.499152 0.816622
C13   C     C_R   0.294435 0.200465 0.275908 -0.165831
C14   C     C_R   0.236721 0.118477 0.317323 0.200478
C15   C     C_R   0.156692 0.162174 0.429013 0.104052
C16   C     C_R   0.273325 0.343370 0.997270 -0.178138
C17   C     C_R   0.446586 0.236505 0.834377 -0.027049
C18   C     C_R   0.695187 0.770719 0.102040 0.055148
C19   C     C_R   0.742290 0.675201 0.992337 0.255728
C20   C     C_R   0.670433 0.570273 0.949294 -0.202233
C21   C     C_R   0.546154 0.560086 0.009354 0.047389
C22   C     C_R   0.492732 0.662862 0.113971 0.062264
C23   C     C_R   0.480469 0.146220 0.712646 0.781157
C24   C     C_R   0.473734 0.450316 0.970228 0.118639
C25   C     C_R   0.345584 0.450658 0.030297 0.153012
C26   C     C_R   0.290526 0.557791 0.123612 -0.184689
C27   C     C_R   0.363948 0.660607 0.167614 -0.092455
C28   C     C_R   0.522909 0.340517 0.872551 -0.205412
C29   C     C_R   0.323455 0.237517 0.899926 -0.198845
C30   C     C_R   0.569208 0.765473 0.163909 -0.166710
C31   C     C_R   0.690170 0.310667 0.300369 -0.262244
C32   C     C_R   0.342581 0.773256 0.663359 0.400136
C33   C     C_R   0.349718 0.703136 0.714820 -0.282816
C34   C     C_R   0.264716 0.997185 0.494090 0.787261
C35   C     C_R   0.433682 0.607662 0.655672 -0.167728
C36   C     C_R   0.488217 0.565505 0.539795 0.024367
C37   C     C_R   0.498599 0.649028 0.496555 0.202020
C38   C     C_R   0.543449 0.448626 0.471806 -0.076748
C39   C     C_R   0.624264 0.420725 0.362568 0.029978
C40   C     C_R   0.638620 0.504630 0.319271 0.200639
C41   C     C_R   0.583833 0.620514 0.388967 -0.189748
C42   C     C_R   0.504272 0.353406 0.502781 0.647958
C43   C     C_R   0.668430 0.228106 0.343861 0.035832
C44   C     C_R   0.750658 0.733846 0.670419 0.366134
C45   C     C_R   0.787439 0.827448 0.636767 0.309152
C46   C     C_R   0.842866 0.797408 0.519865 -0.107772
C47   C     C_R   0.855742 0.672092 0.434170 0.404045
C48   C     C_R   0.831100 0.583923 0.472873 -0.268327
Cu1   Cu    Cu3+1 0.529370 0.098270 0.475420 0.976440
Cu2   Cu    Cu3+1 0.470630 0.901730 0.524580 0.982104
H1    H     H_    0.355928 0.167439 0.190168 0.178921
H2    H     H_    0.261103 0.161299 0.870050 0.175367
H3    H     H_    0.192506 0.559061 0.169145 0.193110
H4    H     H_    0.175716 0.343025 0.043552 0.162583
H5    H     H_    0.617440 0.334493 0.819559 0.152705
H6    H     H_    0.715608 0.497625 0.868518 0.183831
H7    H     H_    0.318657 0.738180 0.245192 0.180692
H8    H     H_    0.720716 0.144941 0.297651 0.184725
H9    H     H_    0.760675 0.288913 0.220423 0.195560
H10   H     H_    0.466134 0.572135 0.700207 0.187744
H11   H     H_    0.297372 0.727429 0.802358 0.189474
H12   H     H_    0.612773 0.684768 0.356559 0.197314
H13   H     H_    0.856317 0.490159 0.411789 0.217725
H14   H     H_    0.917501 0.145599 0.465571 0.197578
H15   H     H_    0.056678 0.320883 0.574574 0.165311
H16   H     H_    0.156759 0.463454 0.498492 0.192561
N1    N     N_R   0.573890 0.246290 0.438210 -0.229918
N2    N     N_R   0.426890 0.754320 0.561170 -0.211824
O1    O     O_R   0.536940 0.972510 0.318130 -0.546747
O2    O     O_R   0.487330 0.806530 0.359650 -0.581808
O3    O     O_R   0.705160 0.082990 0.479250 -0.572264
O4    O     O_R   0.655550 0.917010 0.520760 -0.589736
O5    O     O_R   0.512670 0.193470 0.640350 -0.594763
O6    O     O_R   0.463060 0.027490 0.681870 -0.554969
O7    O     O_R   0.344450 0.082990 0.479240 -0.589161
O8    O     O_R   0.294840 0.917010 0.520750 -0.524111
I1    I     I_    0.761362 0.470754 0.633499 -0.418041
I2    I     I_    0.344478 0.442515 0.275197 -0.353212
I3    I     I_    0.252716 0.931237 0.198632 -0.466555
I4    I     I_    0.823520 0.911407 0.175868 -0.395554
I5    I     I_    0.927095 0.676525 0.888181 -0.303478
O9    O     O_3   0.701519 0.757526 0.784238 -0.553674
C49   C     C_3   0.598798 0.839500 0.839650 0.123178
H17   H     H_    0.548880 0.838449 0.779275 0.152844
H18   H     H_    0.632197 0.933848 0.887292 0.193927
C50   C     C_3   0.504739 0.807546 0.927189 -0.767438
H19   H     H_    0.543431 0.834525 0.001932 0.264753
H20   H     H_    0.415801 0.858014 0.956759 0.234642
H21   H     H_    0.484090 0.708256 0.889457 0.253904
I6    I     I_    0.715570 0.449586 0.141612 -0.428727
O10   O     O_3   0.373169 0.354871 0.551504 -0.604332
C51   C     C_3   0.320223 0.335993 0.650160 0.159389
H22   H     H_    0.335179 0.248002 0.639665 0.187698
H23   H     H_    0.216621 0.334391 0.663439 0.153709
C52   C     C_3   0.340618 0.432658 0.764919 -0.913783
H24   H     H_    0.294973 0.519641 0.792720 0.259489
H25   H     H_    0.289896 0.403382 0.830246 0.228024
H26   H     H_    0.442151 0.442154 0.763806 0.262142
I7    I     I_    0.205477 0.911606 0.758203 -0.370058
O11   O     O_3   0.773043 0.949424 0.717433 -0.591393
C53   C     C_3   0.869614 0.985351 0.776121 0.067533
H27   H     H_    0.964525 0.970781 0.715825 0.182329
H28   H     H_    0.863504 0.934505 0.825532 0.210995
C54   C     C_3   0.856397 0.120734 0.859645 -0.749610
H29   H     H_    0.763149 0.138859 0.923064 0.261015
H30   H     H_    0.932128 0.150419 0.905997 0.220609
H31   H     H_    0.864483 0.174106 0.812307 0.252904
O12   O     O_3   0.915215 0.626383 0.316484 -0.564216
C55   C     C_3   0.931594 0.708617 0.270005 0.112654
H32   H     H_    0.012287 0.769918 0.292748 0.185517
H33   H     H_    0.843654 0.760443 0.298027 0.143825
C56   C     C_3   0.971035 0.639928 0.139074 -0.696052
H34   H     H_    0.889259 0.627854 0.103589 0.257782
H35   H     H_    0.043595 0.692687 0.104286 0.242287
H36   H     H_    0.010542 0.549027 0.108319 0.256632
I8    I     I_    0.125905 0.724564 0.469984 -0.319889

loop_
_geom_bond_atom_site_label_1
_geom_bond_atom_site_label_2
_ccdc_geom_bond_type
C53   H27   S    
C17   C29   A    
C52   H24   S    
C20   H6    S    
C54   H30   S    
C52   H26   S    
C7    C8    A    
C18   I4    S    
C45   C46   A    
C26   C27   A    
C17   C23   S    
C31   C43   A    
C1    C30   S    
C36   C37   A    
C38   C42   A    
C44   O9    S    
C3    I8    S    
Cu2   O6    S    
C5    C6    A    
C50   H20   S    
C31   H9    S    
C37   N2    A    
O12   C55   S    
C18   C19   A    
C6    H14   S    
Cu2   O4    S    
C56   H34   S    
C43   H8    S    
C13   H1    S    
C49   H17   S    
C2    C44   A    
Cu1   O7    S    
C18   C30   A    
Cu1   N1    S    
C9    C10   A    
C34   O7    A    
C32   N2    A    
C12   O4    A    
C53   H28   S    
Cu1   O1    S    
C13   C14   A    
C37   C41   A    
C41   H12   S    
C23   O5    A    
C56   H35   S    
C54   H29   S    
C28   H5    S    
C16   H4    S    
C10   H16   S    
C7    C12   S    
C4    C34   S    
C38   C39   A    
C24   C25   A    
C3    C8    A    
C27   H7    S    
C55   C56   S    
C39   C40   A    
C50   H19   S    
C48   H13   S    
C2    C48   A    
C16   C29   A    
C50   H21   S    
C51   C52   S    
C1    O1    A    
C35   H10   S    
C35   C36   A    
C11   I2    S    
Cu2   O8    S    
C47   C48   A    
C9    H15   S    
C51   H23   S    
C14   I3    S    
C43   N1    A    
C40   C41   A    
C49   H18   S    
C12   O3    A    
C47   O12   S    
C53   C54   S    
C22   C27   A    
C42   N1    A    
Cu1   O5    S    
C23   O6    A    
C3    C4    A    
C26   H3    S    
O10   C51   S    
C44   C45   A    
C16   C25   A    
C46   C47   A    
C22   C30   A    
C17   C28   A    
C24   C28   A    
C4    C5    A    
C45   O11   S    
C52   H25   S    
C6    C7    A    
C1    O2    A    
C32   I7    S    
C40   I6    S    
C32   C33   A    
C19   C20   A    
C36   C38   A    
C25   C26   A    
C2    I1    S    
C19   I5    S    
C55   H32   S    
C11   C13   A    
Cu2   O2    S    
C55   H33   S    
C51   H22   S    
C33   C35   A    
C31   C39   A    
C56   H36   S    
C9    C15   A    
C8    C46   S    
C5    C15   S    
C10   C11   A    
C49   C50   S    
C20   C21   A    
C33   H11   S    
Cu1   Cu2   S    
Cu1   O3    S    
C21   C24   A    
C14   C15   A    
O11   C53   S    
O9    C49   S    
C21   C22   A    
Cu2   N2    S    
C54   H31   S    
C42   O10   S    
C34   O8    A    
C29   H2    S    
