data_mof_unit_5323.cif
_audit_creation_date              2012-12-11T14:44:35-0500
_audit_creation_method            fapswitch 2.2
_symmetry_space_group_name_H-M    P1
_symmetry_Int_Tables_number       1
_space_group_crystal_system       triclinic
_cell_length_a                    19.914301
_cell_length_b                    7.207648
_cell_length_c                    19.843704
_cell_angle_alpha                 89.467929
_cell_angle_beta                  98.40989
_cell_angle_gamma                 89.45558
_cell_volume                      2817.35298568

loop_
_atom_site_label
_atom_site_type_symbol
_atom_type_description
_atom_site_fract_x
_atom_site_fract_y
_atom_site_fract_z
_atom_type_partial_charge
O1    O     O_R   0.673210 0.377390 0.686390 -0.528116
O2    O     O_R   0.326790 0.622610 0.313610 -0.528820
O3    O     O_R   0.826790 0.877390 0.813610 -0.519411
O4    O     O_R   0.173210 0.122610 0.186390 -0.519983
O5    O     O_R   0.810750 0.706450 0.681250 -0.543735
O6    O     O_R   0.189250 0.293550 0.318750 -0.547268
O7    O     O_R   0.689250 0.206450 0.818750 -0.539038
O8    O     O_R   0.310750 0.793550 0.181250 -0.542782
C1    C     C_R   0.832676 0.537953 0.667052 0.718232
C2    C     C_R   0.167210 0.462079 0.332822 0.719859
C3    C     C_R   0.667282 0.038146 0.832867 0.715578
C4    C     C_R   0.332817 0.961875 0.167244 0.716483
O9    O     O_R   0.672750 0.707060 0.678240 -0.546819
O10   O     O_R   0.327250 0.292940 0.321760 -0.545331
O11   O     O_R   0.827250 0.207060 0.821760 -0.543162
O12   O     O_R   0.172750 0.792940 0.178240 -0.541955
O13   O     O_R   0.687800 0.877990 0.810580 -0.533191
O14   O     O_R   0.312200 0.122010 0.189420 -0.530200
O15   O     O_R   0.812200 0.377990 0.689420 -0.532163
O16   O     O_R   0.187800 0.622010 0.310580 -0.529050
C5    C     C_R   0.649210 0.540112 0.660417 0.712678
C6    C     C_R   0.350790 0.459890 0.339581 0.711658
C7    C     C_R   0.850900 0.037275 0.839093 0.718314
C8    C     C_R   0.149094 0.962721 0.160915 0.718036
O17   O     O_3   0.755100 0.544060 0.793420 -0.368122
O18   O     O_3   0.244900 0.455940 0.206580 -0.367965
O19   O     O_3   0.744900 0.044060 0.706580 -0.372986
O20   O     O_3   0.255100 0.955940 0.293420 -0.372671
V1    V     V_3+5 0.749050 0.818670 0.741950 1.478777
V2    V     V_3+5 0.250950 0.181330 0.258050 1.472611
V3    V     V_3+5 0.750950 0.318670 0.758050 1.495654
V4    V     V_3+5 0.249050 0.681330 0.241950 1.488919
C9    C     C_R   0.088217 0.975232 0.107927 -0.101356
C10   C     C_R   0.911774 0.024747 0.892088 -0.103408
C11   C     C_R   0.410594 0.459482 0.394348 -0.132919
C12   C     C_R   0.589408 0.540533 0.605644 -0.132994
C13   C     C_R   0.034856 0.028260 0.918645 -0.114216
C14   C     C_R   0.965135 0.971685 0.081375 -0.113906
C15   C     C_R   0.485644 0.699642 0.554688 -0.115882
C16   C     C_R   0.514364 0.300395 0.445296 -0.116090
C17   C     C_R   0.975695 0.036413 0.871360 -0.196732
C18   C     C_R   0.024296 0.963569 0.128660 -0.197201
C19   C     C_R   0.541281 0.683683 0.605668 -0.134766
C20   C     C_R   0.458728 0.316357 0.394315 -0.139236
C21   C     C_R   0.906979 0.006618 0.962420 -0.046737
C22   C     C_R   0.093010 0.993308 0.037594 -0.048083
C23   C     C_R   0.580597 0.408466 0.552564 -0.066555
C24   C     C_R   0.419403 0.591546 0.447430 -0.065873
C25   C     C_R   0.967588 0.995261 0.011108 0.073785
C26   C     C_R   0.032401 0.004671 0.988908 0.073316
C27   C     C_R   0.523864 0.425853 0.499664 0.068222
C28   C     C_R   0.476140 0.574170 0.500326 0.067497
H1    H     H_    0.020110 0.946827 0.182206 0.131669
H2    H     H_    0.979881 0.053183 0.817816 0.139626
H3    H     H_    0.453381 0.214810 0.354047 0.139208
H4    H     H_    0.546631 0.785254 0.645930 0.139055
H5    H     H_    0.082523 0.041916 0.899196 0.162527
H6    H     H_    0.917469 0.958025 0.100826 0.162199
H7    H     H_    0.450239 0.812218 0.558682 0.152784
H8    H     H_    0.549772 0.187829 0.441300 0.152554
C29   C     C_R   0.564066 0.890845 0.872700 0.233997
C30   C     C_R   0.436319 0.109277 0.128030 0.209203
C31   C     C_R   0.935852 0.387269 0.627211 0.233433
C32   C     C_R   0.063683 0.612904 0.371956 0.208457
C33   C     C_R   0.615835 0.025948 0.880254 -0.158256
C34   C     C_R   0.384333 0.974617 0.119934 -0.132540
C35   C     C_R   0.884134 0.525590 0.619704 -0.135591
C36   C     C_R   0.115613 0.474957 0.380027 -0.110620
C37   C     C_R   0.618678 0.152152 0.933301 -0.188446
C38   C     C_R   0.381130 0.850075 0.066417 -0.209788
C39   C     C_R   0.881388 0.655035 0.566783 -0.175001
C40   C     C_R   0.118621 0.346943 0.433351 -0.194203
C41   C     C_R   0.571231 0.150097 0.979416 -0.024604
C42   C     C_R   0.428132 0.854051 0.019945 0.018832
C43   C     C_R   0.928740 0.652721 0.520579 -0.027395
C44   C     C_R   0.071622 0.350928 0.479816 0.015843
C45   C     C_R   0.522413 0.007189 0.975362 -0.051780
C46   C     C_R   0.477287 0.996473 0.024574 -0.019494
C47   C     C_R   0.977491 0.506913 0.524548 -0.049682
C48   C     C_R   0.022549 0.496347 0.475274 -0.017987
C49   C     C_R   0.518977 0.874835 0.922104 0.142653
C50   C     C_R   0.481138 0.127967 0.078314 0.101439
C51   C     C_R   0.980927 0.371528 0.577786 0.143256
C52   C     C_R   0.018724 0.630982 0.421570 0.101923
C53   C     C_R   0.572888 0.286630 0.030312 -0.031677
C54   C     C_R   0.425709 0.719572 0.968188 -0.071074
C55   C     C_R   0.926978 0.791806 0.469621 -0.035865
C56   C     C_R   0.074022 0.213509 0.531524 -0.074534
C57   C     C_R   0.528648 0.276055 0.079368 0.165962
C58   C     C_R   0.471322 0.728386 0.920160 0.166583
C59   C     C_R   0.971122 0.781408 0.420487 0.170107
C60   C     C_R   0.028516 0.222366 0.579647 0.170854
H9    H     H_    0.659633 0.250785 0.938708 0.176206
H10   H     H_    0.340491 0.750360 0.061142 0.175679
H11   H     H_    0.840573 0.756511 0.561534 0.162849
H12   H     H_    0.159142 0.244484 0.438509 0.162674
C61   C     C_2   0.161353 0.996992 0.016043 0.713222
O21   O     O_2   0.176571 0.883537 0.975244 -0.546528
O22   O     O_R   0.208654 0.128076 0.043549 -0.652374
H13   H     H_    0.253362 0.116572 0.025104 0.304943
C62   C     C_2   0.838636 0.002874 0.983965 0.711869
O23   O     O_2   0.823411 0.116276 0.024777 -0.548831
O24   O     O_R   0.791341 0.871801 0.956436 -0.652174
H14   H     H_    0.746626 0.883277 0.974872 0.303362
C63   C     C_2   0.368417 0.742538 0.448746 0.752919
O25   O     O_2   0.309204 0.704653 0.451836 -0.549954
O26   O     O_R   0.388192 0.927653 0.445703 -0.665261
H15   H     H_    0.348951 0.017885 0.446492 0.303283
C64   C     C_2   0.631572 0.257447 0.551258 0.752405
O27   O     O_2   0.690792 0.295296 0.548189 -0.551075
O28   O     O_R   0.611778 0.072343 0.554286 -0.665239
H16   H     H_    0.651016 0.982091 0.553513 0.302499
N1    N     N_3   0.554376 0.777483 0.812943 -0.620837
H17   H     H_    0.553571 0.861091 0.769498 0.203231
H18   H     H_    0.593516 0.678943 0.815778 0.265876
N2    N     N_3   0.446662 0.217286 0.189014 -0.702957
H19   H     H_    0.407585 0.315393 0.187979 0.253943
H20   H     H_    0.448082 0.129851 0.231541 0.217695
N3    N     N_3   0.945393 0.269792 0.686846 -0.629669
H21   H     H_    0.946153 0.350455 0.730482 0.208559
H22   H     H_    0.906251 0.173394 0.683775 0.264296
N4    N     N_3   0.053763 0.725791 0.311249 -0.709959
H23   H     H_    0.092889 0.821837 0.312843 0.252807
H24   H     H_    0.052520 0.641799 0.268403 0.223500
C65   C     C_2   0.619658 0.447437 0.032461 0.817220
O29   O     O_2   0.620871 0.543700 0.981595 -0.573181
O30   O     O_R   0.661105 0.490682 0.093259 -0.629354
H25   H     H_    0.690047 0.603703 0.088499 0.311048
C66   C     C_2   0.376783 0.563994 0.964519 0.744509
O31   O     O_2   0.379015 0.453968 0.012075 -0.573582
O32   O     O_R   0.328334 0.543884 0.906646 -0.648015
H26   H     H_    0.298096 0.432889 0.910185 0.315392
C67   C     C_2   0.880094 0.954891 0.467396 0.808767
O33   O     O_2   0.879115 0.049448 0.518086 -0.564989
O34   O     O_R   0.838256 0.002146 0.406712 -0.635545
H27   H     H_    0.809245 0.116354 0.411381 0.313854
C68   C     C_2   0.122846 0.054959 0.535082 0.736708
O35   O     O_2   0.120583 0.947833 0.487412 -0.564793
O36   O     O_R   0.171220 0.028710 0.592991 -0.656500
H28   H     H_    0.201383 0.916198 0.589378 0.316158
N5    N     N_3   0.530429 0.426943 0.126441 -0.629121
H29   H     H_    0.548949 0.380298 0.175711 0.282760
H30   H     H_    0.482429 0.489083 0.123298 0.268138
N6    N     N_3   0.472085 0.580871 0.871985 -0.606479
H31   H     H_    0.479401 0.454076 0.898211 0.238976
H32   H     H_    0.425696 0.579808 0.839706 0.269255
N7    N     N_3   0.969023 0.934417 0.373211 -0.629016
H33   H     H_    0.950730 0.890588 0.323972 0.280247
H34   H     H_    0.016843 0.994933 0.376398 0.267223
N8    N     N_3   0.027801 0.072462 0.627851 -0.609641
H35   H     H_    0.020471 0.947339 0.601659 0.239656
H36   H     H_    0.074193 0.067394 0.660128 0.268821

loop_
_geom_bond_atom_site_label_1
_geom_bond_atom_site_label_2
_ccdc_geom_bond_type
O17   V3    S    
C47   C51   A    
O1    C5    A    
C62   O23   D    
C16   H8    S    
C55   C59   A    
O19   V1    S    
O13   V1    S    
C55   C67   S    
C53   C65   S    
O28   H16   S    
C40   C44   A    
O15   V3    S    
C59   N7    S    
C61   O21   D    
O34   H27   S    
C5    C12   S    
C34   C38   A    
C45   C46   A    
O7    C3    A    
C51   C60   A    
C63   O26   S    
C50   C57   A    
C9    C18   A    
C32   C36   A    
O9    V1    S    
C38   H10   S    
C14   C18   A    
C37   H9    S    
C64   O28   S    
C18   H1    S    
O4    C8    A    
C57   N5    S    
C39   H11   S    
O1    V3    S    
N2    H19   S    
C12   C23   A    
O2    V4    S    
O3    V1    S    
C32   C52   A    
N7    H33   S    
C14   H6    S    
O3    C7    A    
C1    O15   A    
C56   C60   A    
C2    O16   A    
C38   C42   A    
O26   H15   S    
C37   C41   A    
O14   V2    S    
C52   C59   A    
C45   C49   A    
C44   C56   A    
C16   C20   A    
C48   C52   A    
O11   C7    A    
C15   C28   A    
C30   C50   A    
C68   O35   D    
C62   O24   S    
C9    C22   A    
C10   C17   A    
O10   V2    S    
C11   C24   A    
C61   O22   S    
O5    V1    S    
N3    H22   S    
C17   H2    S    
O36   H28   S    
C31   C35   A    
O7    V3    S    
C30   C34   A    
C27   C28   A    
O8    V4    S    
N6    H32   S    
C54   C58   A    
C14   C25   A    
C53   C57   A    
O18   V4    S    
C23   C27   A    
C23   C64   S    
C4    C34   S    
O4    V2    S    
C31   C51   A    
C36   C40   A    
C1    C35   S    
O5    C1    A    
C6    C11   S    
C31   N3    S    
C46   C50   A    
C24   C63   S    
C21   C25   A    
O8    C4    A    
C7    C10   S    
C15   H7    S    
O9    C5    A    
C10   C21   A    
C42   C54   A    
C11   C20   A    
C68   O36   S    
C41   C53   A    
C21   C62   S    
C49   C58   A    
C43   C55   A    
O6    V2    S    
C22   C61   S    
C60   N8    S    
C67   O33   D    
N8    H36   S    
N4    H24   S    
O32   H26   S    
C67   O34   S    
N1    H17   S    
O16   V4    S    
C33   C37   A    
C3    O13   A    
N7    H34   S    
C3    C33   S    
C44   C48   A    
N6    H31   S    
O6    C2    A    
C15   C19   A    
N3    H21   S    
C54   C66   S    
O11   V3    S    
C2    C36   S    
O12   V4    S    
C16   C27   A    
C63   O25   D    
C22   C26   A    
C8    C9    S    
O22   H13   S    
O10   C6    A    
N5    H30   S    
C66   O31   D    
C29   C49   A    
N5    H29   S    
C39   C43   A    
C13   C26   A    
C20   H3    S    
C65   O29   D    
C32   N4    S    
O20   V2    S    
O2    C6    A    
N2    H20   S    
C35   C39   A    
C13   C17   A    
C13   H5    S    
C56   C68   S    
C30   N2    S    
C29   N1    S    
C47   C48   A    
C40   H12   S    
C29   C33   A    
C19   H4    S    
C24   C28   A    
O12   C8    A    
C25   C26   A    
C42   C46   A    
C4    O14   A    
O24   H14   S    
C65   O30   S    
C41   C45   A    
N8    H35   S    
C12   C19   A    
C66   O32   S    
N4    H23   S    
C64   O27   D    
C43   C47   A    
C58   N6    S    
O30   H25   S    
N1    H18   S    
