data_mof_unit_9529.cif
_audit_creation_date              2012-12-10T18:42:35-0500
_audit_creation_method            fapswitch 2.2
_symmetry_space_group_name_H-M    P1
_symmetry_Int_Tables_number       1
_space_group_crystal_system       triclinic
_cell_length_a                    8.709981
_cell_length_b                    10.723832
_cell_length_c                    9.812205
_cell_angle_alpha                 88.630282
_cell_angle_beta                  98.967685
_cell_angle_gamma                 91.134819
_cell_volume                      904.921243912

loop_
_atom_site_label
_atom_site_type_symbol
_atom_type_description
_atom_site_fract_x
_atom_site_fract_y
_atom_site_fract_z
_atom_type_partial_charge
C1    C     C_R   0.509554 0.259481 0.502929 0.963341
C2    C     C_R   0.468618 0.059794 0.621187 0.462351
C3    C     C_R   0.462673 0.872263 0.492519 -0.288888
C4    C     C_R   0.513185 0.125438 0.506891 -0.315332
C5    C     C_R   0.602198 0.573950 0.084337 -0.361737
C6    C     C_R   0.402789 0.421781 0.916329 -0.324557
C7    C     C_R   0.602011 0.576279 0.938013 0.611641
C8    C     C_R   0.402002 0.420632 0.062258 0.601567
C9    C     C_3   0.966760 0.433131 0.219943 -0.191989
C10   C     C_3   0.032972 0.549840 0.782430 -0.190420
C11   C     C_3   0.523393 0.870242 0.158874 -0.189450
C12   C     C_R   0.481963 0.739274 0.496491 0.943726
C13   C     C_3   0.594758 0.118315 0.829846 -0.245580
C14   C     C_3   0.804145 0.728218 0.956440 -0.388100
C15   C     C_3   0.246341 0.238801 0.055317 -0.296722
C16   C     C_R   0.201401 0.496800 0.464000 0.888103
C17   C     C_R   0.798729 0.500401 0.535939 0.875888
C18   C     C_2   0.036775 0.499821 0.443479 0.209212
C19   C     C_2   0.963218 0.491764 0.555628 0.201975
C20   C     C_R   0.538171 0.062953 0.388044 0.052093
C21   C     C_R   0.437015 0.933544 0.611758 0.072691
C22   C     C_R   0.491094 0.938824 0.374188 0.456983
H1    H     H_    0.681752 0.630996 0.152770 0.197828
H2    H     H_    0.641530 0.846550 0.213656 0.143384
H3    H     H_    0.528827 0.948376 0.083902 0.191285
H4    H     H_    0.583977 0.172686 0.922325 0.192671
H5    H     H_    0.688984 0.163456 0.780396 0.163111
H6    H     H_    0.627969 0.021720 0.864677 0.167555
H7    H     H_    0.883635 0.671435 0.032078 0.186810
H8    H     H_    0.741694 0.797991 0.007390 0.167758
H9    H     H_    0.877383 0.781387 0.891742 0.209177
H10   H     H_    0.193840 0.174711 0.126307 0.215516
H11   H     H_    0.341790 0.187545 0.019336 0.207874
H12   H     H_    0.324977 0.362533 0.848745 0.224101
H13   H     H_    0.153117 0.262979 0.968459 0.171755
H14   H     H_    0.009907 0.343132 0.269813 0.164787
H15   H     H_    0.040530 0.462553 0.142072 0.198526
H16   H     H_    0.848217 0.414650 0.164044 0.184529
H17   H     H_    0.954568 0.518405 0.855682 0.195124
H18   H     H_    0.995913 0.642546 0.735990 0.158796
H19   H     H_    0.150047 0.563933 0.842841 0.182654
H20   H     H_    0.475844 0.789952 0.096510 0.198044
I1    I     I_    0.679294 0.144571 0.246668 -0.475973
I2    I     I_    0.325225 0.847641 0.771233 -0.374030
N1    N     N_R   0.499960 0.499970 0.857200 -0.126357
N2    N     N_R   0.500040 0.500030 0.142800 -0.116834
O1    O     O_R   0.499990 0.316750 0.614620 -0.588425
O2    O     O_3   0.039342 0.455143 0.685600 -0.626774
O3    O     O_3   0.417151 0.896865 0.247688 -0.577575
O4    O     O_3   0.450461 0.119125 0.741211 -0.573013
O5    O     O_3   0.699172 0.652186 0.869749 -0.574292
O6    O     O_3   0.301611 0.346477 0.128383 -0.596750
O7    O     O_R   0.500010 0.683250 0.385380 -0.603682
O8    O     O_R   0.499990 0.316780 0.385290 -0.555175
O9    O     O_R   0.500010 0.683220 0.614710 -0.560368
O10   O     O_R   0.271750 0.499990 0.587840 -0.589561
O11   O     O_R   0.728250 0.500010 0.412160 -0.587624
O12   O     O_R   0.271750 0.500010 0.358510 -0.578046
O13   O     O_R   0.728250 0.499990 0.641490 -0.588697
O14   O     O_3   0.960745 0.531953 0.312079 -0.629661
Zn1   Zn    Zn3+2 0.500000 0.499980 0.653120 1.027645
Zn2   Zn    Zn3+2 0.500000 0.500020 0.346880 1.027108

loop_
_geom_bond_atom_site_label_1
_geom_bond_atom_site_label_2
_ccdc_geom_bond_type
C17   O11   A    
O1    Zn1   S    
C9    H14   S    
C2    C4    A    
C1    O8    A    
C16   O10   A    
C13   H6    S    
O12   Zn2   S    
C11   O3    S    
C6    N1    A    
C21   I2    S    
C2    O4    S    
C5    N2    A    
C8    O6    S    
C14   O5    S    
C5    H1    S    
C14   H9    S    
C9    O14   S    
C6    H12   S    
C1    C4    S    
C2    C21   A    
C9    H15   S    
C17   O13   A    
C7    O5    S    
O11   Zn2   S    
C16   O12   A    
C15   O6    S    
C10   H19   S    
N2    Zn2   S    
C22   O3    S    
C7    N1    A    
C18   O14   S    
C9    H16   S    
C17   C19   S    
C14   H8    S    
C5    C7    A    
C10   O2    S    
C8    N2    A    
C13   H4    S    
C3    C21   A    
C12   O9    A    
O13   Zn1   S    
C11   H3    S    
C14   H7    S    
C13   O4    S    
C4    C20   A    
O9    Zn1   S    
C11   H2    S    
C15   H10   S    
C20   I1    S    
C11   H20   S    
C16   C18   S    
C18   C19   D    
O7    Zn2   S    
N1    Zn1   S    
C15   H13   S    
C19   O2    S    
C13   H5    S    
C10   H18   S    
C6    C8    A    
C3    C12   S    
O8    Zn2   S    
O10   Zn1   S    
C15   H11   S    
C1    O1    A    
C12   O7    A    
C20   C22   A    
C10   H17   S    
C3    C22   A    
