data_mof_unit_36394.cif
_audit_creation_date              2012-12-10T19:20:00-0500
_audit_creation_method            fapswitch 2.2
_symmetry_space_group_name_H-M    P1
_symmetry_Int_Tables_number       1
_space_group_crystal_system       triclinic
_cell_length_a                    15.984636
_cell_length_b                    14.743648
_cell_length_c                    27.859072
_cell_angle_alpha                 90.140582
_cell_angle_beta                  90.06821
_cell_angle_gamma                 89.975389
_cell_volume                      6565.57392926

loop_
_atom_site_label
_atom_site_type_symbol
_atom_type_description
_atom_site_fract_x
_atom_site_fract_y
_atom_site_fract_z
_atom_type_partial_charge
C1    C     C_R   0.340813 0.500018 0.500090 0.799575
C2    C     C_R   0.659184 0.499981 0.499991 0.799721
C3    C     C_R   0.504601 0.495322 0.101428 -0.213163
C4    C     C_R   0.499851 0.499910 0.898785 -0.217097
C5    C     C_R   0.429241 0.482783 0.126942 -0.236112
C6    C     C_R   0.574330 0.483104 0.873066 -0.231184
C7    C     C_R   0.354453 0.467759 0.101504 0.556865
C8    C     C_R   0.648162 0.462383 0.898279 0.548604
C9    C     C_R   0.580762 0.506779 0.126594 -0.148393
C10   C     C_R   0.424442 0.516993 0.873825 -0.143373
C11   C     C_R   0.500384 0.499520 0.353945 -0.340700
C12   C     C_R   0.500183 0.501016 0.646055 -0.334433
C13   C     C_R   0.425694 0.509126 0.975466 -0.004032
C14   C     C_R   0.579200 0.502896 0.024888 -0.016797
C15   C     C_R   0.577743 0.489561 0.974437 -0.100740
C16   C     C_R   0.426348 0.493016 0.025682 -0.114915
C17   C     C_R   0.500985 0.499142 0.949581 -0.071806
C18   C     C_R   0.503484 0.496526 0.050640 -0.073345
C19   C     C_R   0.353851 0.539506 0.950591 0.382475
C20   C     C_R   0.652793 0.526820 0.050223 0.371289
C21   C     C_R   0.350477 0.534909 0.900088 0.344838
C22   C     C_R   0.655683 0.520564 0.100588 0.354529
C23   C     C_R   0.499791 0.499944 0.407108 0.896185
C24   C     C_R   0.500146 0.500226 0.592891 0.897238
C25   C     C_R   0.353306 0.471198 0.051626 0.559531
C26   C     C_R   0.649427 0.463895 0.948188 0.547604
C27   C     C_R   0.956311 0.582203 0.499948 -0.177636
C28   C     C_R   0.043694 0.417632 0.500772 -0.175802
C29   C     C_R   0.043548 0.582245 0.500581 -0.178439
C30   C     C_R   0.956418 0.417592 0.500337 -0.175616
C31   C     C_R   0.912761 0.499891 0.499904 0.156993
C32   C     C_R   0.087228 0.499973 0.500869 0.156580
C33   C     C_1   0.823318 0.499886 0.499727 -0.088844
C34   C     C_1   0.176676 0.500023 0.500825 -0.088702
C35   C     C_1   0.251724 0.500033 0.500519 -0.170953
C36   C     C_1   0.748271 0.499914 0.499806 -0.170315
C37   C     C_R   0.555770 0.951747 0.529731 0.334128
C38   C     C_R   0.443373 0.047718 0.470761 0.336582
C39   C     C_R   0.444030 0.951535 0.470424 0.336058
C40   C     C_R   0.556512 0.047923 0.529336 0.337129
C41   C     C_R   0.499926 0.902744 0.500059 -0.300901
C42   C     C_R   0.499979 0.097047 0.500027 -0.303701
C43   C     C_1   0.499957 0.802604 0.500029 0.271436
C44   C     C_1   0.500001 0.197299 0.500011 0.261563
C45   C     C_R   0.431083 0.483830 0.177298 0.674655
C46   C     C_R   0.572397 0.485174 0.822719 0.668414
C47   C     C_R   0.578917 0.506668 0.177235 0.635447
C48   C     C_R   0.426091 0.517680 0.823171 0.643005
C49   C     C_R   0.524835 0.576012 0.277709 0.318670
C50   C     C_R   0.480317 0.581461 0.721999 0.336278
C51   C     C_R   0.528495 0.576237 0.328139 0.267803
C52   C     C_R   0.473767 0.579057 0.671526 0.242085
C53   C     C_R   0.472940 0.421899 0.328515 0.246954
C54   C     C_R   0.527055 0.423924 0.671829 0.246230
C55   C     C_R   0.482530 0.417559 0.278286 0.330225
C56   C     C_R   0.518190 0.421584 0.722123 0.324236
C57   C     C_R   0.504892 0.495837 0.252876 0.037581
C58   C     C_R   0.498743 0.501528 0.747232 0.046162
Cu1   Cu    Cu3+1 0.500000 0.589220 0.500000 0.965888
Cu2   Cu    Cu3+1 0.500000 0.410780 0.500000 0.985027
H1    H     H_    0.076753 0.646215 0.500834 0.141791
H2    H     H_    0.923105 0.353657 0.500282 0.139757
H3    H     H_    0.922997 0.646138 0.499457 0.141432
H4    H     H_    0.077103 0.353726 0.501039 0.139758
N1    N     N_R   0.505104 0.494850 0.201224 -0.427818
N2    N     N_R   0.499079 0.501694 0.798936 -0.426694
N3    N     N_1   0.500000 0.276710 0.500000 -0.162348
N4    N     N_1   0.500000 0.723290 0.500000 -0.174512
O1    O     O_R   0.380310 0.575320 0.500010 -0.587610
O2    O     O_R   0.619690 0.424680 0.499990 -0.587617
O3    O     O_R   0.619690 0.575320 0.499990 -0.588204
O4    O     O_R   0.380310 0.424680 0.500010 -0.587162
O5    O     O_R   0.500010 0.575330 0.430260 -0.546242
O6    O     O_R   0.499990 0.424670 0.569740 -0.537216
O7    O     O_R   0.499990 0.575330 0.569740 -0.544981
O8    O     O_R   0.500010 0.424670 0.430260 -0.536235
O9    O     O_2   0.359370 0.475494 0.202423 -0.464252
O10   O     O_2   0.643387 0.471882 0.797476 -0.466371
O11   O     O_2   0.355558 0.533944 0.798031 -0.507170
O12   O     O_2   0.649949 0.518571 0.202627 -0.508775
O13   O     O_3   0.438537 0.349005 0.352861 -0.575343
C59   C     C_3   0.351337 0.343824 0.343710 0.129900
H5    H     H_    0.334850 0.271122 0.339325 0.161582
H6    H     H_    0.330881 0.378255 0.310005 0.176123
C60   C     C_3   0.302413 0.382596 0.386246 -0.369178
H7    H     H_    0.316569 0.342291 0.418910 0.244875
H8    H     H_    0.321786 0.453938 0.392737 0.207501
C61   C     C_3   0.208339 0.380589 0.376799 -0.911630
H9    H     H_    0.192463 0.425405 0.346118 0.270179
H10   H     H_    0.174366 0.405016 0.409035 0.267187
H11   H     H_    0.187269 0.310522 0.368573 0.260453
O14   O     O_3   0.559673 0.349451 0.647800 -0.574677
C62   C     C_3   0.646929 0.342752 0.656499 0.130678
H12   H     H_    0.662654 0.269698 0.659919 0.161465
H13   H     H_    0.668040 0.375569 0.690594 0.177619
C63   C     C_3   0.695908 0.382291 0.614268 -0.370572
H14   H     H_    0.681816 0.342549 0.581302 0.244909
H15   H     H_    0.676566 0.453754 0.608277 0.206926
C64   C     C_3   0.789974 0.380160 0.623736 -0.913023
H16   H     H_    0.805779 0.424690 0.654655 0.269751
H17   H     H_    0.823961 0.404899 0.591639 0.267076
H18   H     H_    0.811102 0.310035 0.631618 0.260592
O15   O     O_3   0.610803 0.092740 0.559965 -0.564371
C65   C     C_3   0.680883 0.123583 0.533693 0.075679
H19   H     H_    0.666062 0.190088 0.517001 0.154548
H20   H     H_    0.700391 0.075120 0.504903 0.103578
C66   C     C_3   0.754570 0.135873 0.568035 -0.308841
H21   H     H_    0.734884 0.178362 0.598933 0.228068
H22   H     H_    0.774281 0.068648 0.582034 0.217141
C67   C     C_3   0.828572 0.181022 0.543131 -0.955854
H23   H     H_    0.850076 0.138987 0.512384 0.256763
H24   H     H_    0.881091 0.188735 0.568935 0.261512
H25   H     H_    0.810404 0.249331 0.529986 0.262317
O16   O     O_3   0.393695 0.905811 0.437963 -0.562485
C68   C     C_3   0.322530 0.870502 0.461597 0.061458
H26   H     H_    0.271433 0.921560 0.460335 0.145014
H27   H     H_    0.334101 0.852770 0.499994 0.118349
C69   C     C_3   0.294191 0.784812 0.435219 -0.289996
H28   H     H_    0.277023 0.802213 0.397674 0.222456
H29   H     H_    0.346567 0.735196 0.434199 0.244116
C70   C     C_3   0.219289 0.741006 0.459816 -0.942317
H30   H     H_    0.236030 0.720481 0.496940 0.264794
H31   H     H_    0.200072 0.679617 0.439441 0.264952
H32   H     H_    0.165754 0.789009 0.461026 0.250603
O17   O     O_3   0.389134 0.092307 0.440100 -0.563713
C71   C     C_3   0.319079 0.123616 0.466340 0.076148
H33   H     H_    0.334039 0.190138 0.483128 0.154352
H34   H     H_    0.299360 0.075374 0.495049 0.103291
C72   C     C_3   0.245532 0.136082 0.431938 -0.308136
H35   H     H_    0.265373 0.178534 0.401168 0.228336
H36   H     H_    0.225795 0.068893 0.417751 0.217871
C73   C     C_3   0.171493 0.181398 0.456875 -0.956323
H37   H     H_    0.149839 0.139416 0.487489 0.256652
H38   H     H_    0.119068 0.189215 0.431033 0.261887
H39   H     H_    0.189680 0.249671 0.470213 0.262268
O18   O     O_3   0.605703 0.906316 0.562412 -0.564821
C74   C     C_3   0.677010 0.870403 0.539071 0.063270
H40   H     H_    0.728048 0.921507 0.540135 0.144836
H41   H     H_    0.665598 0.851604 0.500758 0.119074
C75   C     C_3   0.705307 0.785457 0.565942 -0.294246
H42   H     H_    0.722242 0.803891 0.603429 0.219966
H43   H     H_    0.652976 0.735851 0.567116 0.243138
C76   C     C_3   0.780390 0.741009 0.541703 -0.941145
H44   H     H_    0.763862 0.719584 0.504644 0.265212
H45   H     H_    0.799520 0.680109 0.562370 0.264346
H46   H     H_    0.833906 0.788964 0.540385 0.250481
O19   O     O_3   0.460135 0.340098 0.253121 -0.573996
C77   C     C_3   0.520831 0.271325 0.259738 0.108947
H47   H     H_    0.488655 0.205092 0.255135 0.175540
H48   H     H_    0.548833 0.270642 0.296430 0.155763
C78   C     C_3   0.589839 0.279000 0.221860 -0.394100
H49   H     H_    0.561230 0.283946 0.185564 0.237765
H50   H     H_    0.627062 0.341274 0.228645 0.229719
C79   C     C_3   0.648289 0.197233 0.223276 -0.902703
H51   H     H_    0.679357 0.192579 0.258873 0.258297
H52   H     H_    0.697044 0.204480 0.195233 0.263282
H53   H     H_    0.612841 0.133784 0.216236 0.261235
O20   O     O_3   0.538201 0.343902 0.747575 -0.571416
C80   C     C_3   0.474872 0.277734 0.741679 0.109513
H54   H     H_    0.504405 0.210304 0.747094 0.174865
H55   H     H_    0.447067 0.276534 0.704942 0.155189
C81   C     C_3   0.406065 0.290507 0.779338 -0.397067
H56   H     H_    0.434696 0.295725 0.815631 0.237690
H57   H     H_    0.371414 0.354198 0.771851 0.227659
C82   C     C_3   0.344361 0.211614 0.778639 -0.901450
H58   H     H_    0.313296 0.206838 0.743035 0.257703
H59   H     H_    0.295813 0.222500 0.806501 0.263849
H60   H     H_    0.377170 0.146848 0.786394 0.261190
F1    F     F_    0.281939 0.447725 0.124527 -0.572618
F2    F     F_    0.719484 0.438448 0.875000 -0.582434
O21   O     O_3   0.447054 0.655441 0.646956 -0.581563
C83   C     C_3   0.360059 0.669148 0.653680 0.117722
H61   H     H_    0.350174 0.742136 0.661921 0.164497
H62   H     H_    0.332371 0.630112 0.684102 0.162664
C84   C     C_3   0.313283 0.645605 0.607393 -0.344203
H63   H     H_    0.339565 0.685683 0.577217 0.243672
H64   H     H_    0.321752 0.572325 0.599401 0.207858
C85   C     C_3   0.219970 0.665821 0.611694 -0.934749
H65   H     H_    0.192018 0.625449 0.641214 0.268209
H66   H     H_    0.187993 0.647591 0.577629 0.262200
H67   H     H_    0.209768 0.739153 0.618810 0.255713
O22   O     O_3   0.552666 0.654341 0.352229 -0.570612
C86   C     C_3   0.639728 0.669525 0.346746 0.127445
H68   H     H_    0.648857 0.742727 0.338969 0.167829
H69   H     H_    0.669171 0.631235 0.316507 0.163065
C87   C     C_3   0.685153 0.646416 0.393478 -0.353097
H70   H     H_    0.657414 0.686113 0.423476 0.245397
H71   H     H_    0.677257 0.573011 0.401122 0.208234
C88   C     C_3   0.778373 0.667756 0.390271 -0.933703
H72   H     H_    0.807700 0.628036 0.360829 0.268944
H73   H     H_    0.809478 0.649500 0.424547 0.262035
H74   H     H_    0.788006 0.741278 0.383671 0.255604
O23   O     O_3   0.460345 0.659547 0.747306 -0.572419
C89   C     C_3   0.524833 0.724727 0.742634 0.090699
H75   H     H_    0.495914 0.792641 0.747548 0.172109
H76   H     H_    0.554622 0.725234 0.706455 0.160629
C90   C     C_3   0.591524 0.711222 0.781511 -0.385403
H77   H     H_    0.560996 0.705855 0.817233 0.231806
H78   H     H_    0.626207 0.647457 0.774273 0.239991
C91   C     C_3   0.653825 0.789555 0.782388 -0.883337
H79   H     H_    0.685711 0.795430 0.747121 0.258711
H80   H     H_    0.701729 0.777029 0.810507 0.263580
H81   H     H_    0.621292 0.854291 0.790709 0.257434
O24   O     O_3   0.546316 0.653137 0.252445 -0.572414
C92   C     C_3   0.472785 0.701566 0.240885 0.080622
H82   H     H_    0.450957 0.739819 0.273015 0.169361
H83   H     H_    0.421349 0.656162 0.228300 0.147687
C93   C     C_3   0.492600 0.768229 0.200575 -0.328380
H84   H     H_    0.541128 0.816929 0.213001 0.229476
H85   H     H_    0.517698 0.730279 0.169181 0.226213
C94   C     C_3   0.414851 0.820604 0.185004 -0.912777
H86   H     H_    0.366486 0.773220 0.171084 0.264584
H87   H     H_    0.431644 0.868805 0.156011 0.257973
H88   H     H_    0.388834 0.859581 0.215726 0.264502
O25   O     O_3   0.277050 0.558292 0.876492 -0.564633
C95   C     C_3   0.214079 0.492358 0.884756 0.133676
H89   H     H_    0.152531 0.526435 0.880499 0.170064
H90   H     H_    0.214833 0.463966 0.921781 0.188406
C96   C     C_3   0.219746 0.415141 0.847971 -0.378119
H91   H     H_    0.214159 0.443243 0.811138 0.263061
H92   H     H_    0.281276 0.380667 0.851370 0.217035
C97   C     C_3   0.150400 0.345570 0.855563 -0.882033
H93   H     H_    0.156295 0.314127 0.891604 0.271524
H94   H     H_    0.155173 0.291454 0.827926 0.257382
H95   H     H_    0.088066 0.378345 0.852327 0.271159
O26   O     O_3   0.730050 0.539025 0.124462 -0.559841
C98   C     C_3   0.789646 0.469592 0.115700 0.142624
H96   H     H_    0.852797 0.499907 0.120159 0.173849
H97   H     H_    0.787460 0.441849 0.078477 0.185811
C99   C     C_3   0.780157 0.392276 0.151957 -0.381716
H98   H     H_    0.786995 0.419483 0.188981 0.264036
H99   H     H_    0.717052 0.361448 0.148302 0.216847
C100  C     C_3   0.846080 0.318930 0.143923 -0.883292
H100  H     H_    0.838742 0.288382 0.107674 0.270384
H101  H     H_    0.838688 0.264775 0.171198 0.257119
H102  H     H_    0.909896 0.348036 0.147388 0.272275
O27   O     O_3   0.287774 0.578884 0.975168 -0.559112
C101  C     C_3   0.296546 0.674504 0.975362 0.105301
H103  H     H_    0.232585 0.703939 0.976415 0.180577
H104  H     H_    0.326750 0.701680 0.942257 0.131614
C102  C     C_3   0.344408 0.706184 0.020117 -0.392507
H105  H     H_    0.315601 0.676049 0.052683 0.242748
H106  H     H_    0.410505 0.683367 0.017940 0.205993
C103  C     C_3   0.343379 0.809278 0.024799 -0.886964
H107  H     H_    0.372929 0.840861 0.992878 0.256419
H108  H     H_    0.379006 0.829804 0.057304 0.259149
H109  H     H_    0.278109 0.834291 0.028314 0.263930
O28   O     O_3   0.720941 0.563596 0.026627 -0.536147
C104  C     C_3   0.705928 0.657026 0.019293 0.081188
H110  H     H_    0.701666 0.692928 0.054451 0.124912
H111  H     H_    0.646740 0.668704 0.998979 0.112376
C105  C     C_3   0.778298 0.698623 0.991077 -0.350849
H112  H     H_    0.768637 0.773138 0.988675 0.170339
H113  H     H_    0.838079 0.686298 0.010422 0.232959
C106  C     C_3   0.784280 0.659706 0.940327 -0.685186
H114  H     H_    0.799897 0.586392 0.941595 0.315786
H115  H     H_    0.834471 0.695290 0.920314 0.222376
H116  H     H_    0.724234 0.669096 0.920820 0.217313
F3    F     F_    0.282030 0.444823 0.029011 -0.597399
F4    F     F_    0.718924 0.431659 0.970448 -0.609394

loop_
_geom_bond_atom_site_label_1
_geom_bond_atom_site_label_2
_ccdc_geom_bond_type
C76   H44   S    
C76   H46   S    
C89   H76   S    
O21   C83   S    
C106  H115  S    
C82   H58   S    
C93   H85   S    
C27   C29   A    
C8    C26   A    
C14   C18   A    
O19   C77   S    
C77   C78   S    
C23   O8    A    
O25   C95   S    
C51   O22   S    
C65   H20   S    
C85   H65   S    
C91   H81   S    
C39   C41   A    
C60   H7    S    
C83   H61   S    
C90   C91   S    
O23   C89   S    
C74   H41   S    
C101  C102  S    
C104  H110  S    
C62   H12   S    
O17   C71   S    
C30   H2    S    
C3    C18   A    
C48   O11   S    
C19   C21   A    
C75   H43   S    
C38   C42   A    
C37   C40   A    
C19   O27   S    
C80   H54   S    
C38   C39   A    
C34   C35   T    
C50   O23   S    
C9    C22   A    
C92   C93   S    
C89   C90   S    
C96   C97   S    
Cu2   O4    S    
C68   H26   S    
C71   H34   S    
C63   C64   S    
C106  H114  S    
C33   C36   T    
C49   C57   A    
C103  H107  S    
C99   C100  S    
C53   O13   S    
C102  H105  S    
C78   C79   S    
C11   C23   S    
C90   H78   S    
C69   H28   S    
C70   H32   S    
C56   O20   S    
C67   H24   S    
C67   H23   S    
C58   N2    S    
C98   H96   S    
Cu2   N3    S    
C8    F2    S    
C91   H79   S    
C68   H27   S    
C63   H15   S    
C64   H18   S    
C50   C52   A    
C78   H49   S    
C95   C96   S    
C56   C58   A    
C100  H100  S    
Cu1   O5    S    
C79   H52   S    
C11   C53   A    
C83   C84   S    
C72   C73   S    
C61   H9    S    
C39   O16   S    
C40   C42   A    
C89   H75   S    
C49   O24   S    
Cu1   Cu2   S    
C62   H13   S    
O27   C101  S    
C66   H22   S    
C99   H98   S    
C42   C44   S    
C47   O12   S    
C23   O5    A    
C52   O21   S    
C65   H19   S    
C12   C52   A    
C83   H62   S    
O13   C59   S    
C84   C85   S    
C29   H1    S    
C53   C55   A    
C10   C21   A    
C28   C30   A    
C74   C75   S    
C101  H104  S    
C104  H111  S    
C1    O4    A    
C70   H31   S    
C13   C19   A    
C60   H8    S    
C27   C31   A    
C84   H63   S    
C50   C58   A    
C14   C20   A    
C28   C32   A    
C75   H42   S    
C79   H53   S    
C84   H64   S    
C46   O10   S    
O16   C68   S    
C57   N1    S    
C96   H91   S    
C5    C7    A    
C93   H84   S    
C15   C26   A    
C6    C8    A    
C97   H95   S    
C49   C51   A    
C9    C47   A    
C92   H82   S    
C5    C45   A    
Cu2   O8    S    
C1    O1    A    
C102  H106  S    
C69   C70   S    
C32   C34   S    
C88   H74   S    
C97   H94   S    
C86   H68   S    
C7    F1    S    
C54   O14   S    
C3    C9    A    
Cu1   N4    S    
C96   H92   S    
C81   C82   S    
C46   N2    A    
C55   O19   S    
C94   H86   S    
C61   H11   S    
Cu2   O2    S    
C66   H21   S    
C68   C69   S    
C63   H14   S    
C98   C99   S    
C31   C33   S    
C70   H30   S    
C80   C81   S    
C88   H72   S    
C24   O7    A    
C16   C18   A    
C95   H89   S    
C75   C76   S    
C99   H99   S    
C100  H101  S    
C67   H25   S    
C79   H51   S    
C27   H3    S    
Cu1   O1    S    
C105  C106  S    
C4    C17   A    
C28   H4    S    
C91   H80   S    
C64   H17   S    
C61   H10   S    
C59   H5    S    
C82   H60   S    
C59   H6    S    
C55   C57   A    
C10   C48   A    
O20   C80   S    
C66   C67   S    
C86   C87   S    
C4    C6    A    
C20   C22   A    
C4    C10   A    
C2    O3    A    
Cu1   O7    S    
C38   O17   S    
O28   C104  S    
C1    C35   S    
C105  H113  S    
C81   H56   S    
C60   C61   S    
C2    C36   S    
C16   C25   A    
C76   H45   S    
C101  H103  S    
C104  C105  S    
C37   O18   S    
C6    C46   A    
C94   H87   S    
C41   C43   S    
C77   H48   S    
O18   C74   S    
C3    C5    A    
C95   H90   S    
C7    C25   A    
C21   O25   S    
C85   H66   S    
C54   C56   A    
C15   C17   A    
C71   H33   S    
C22   O26   S    
C62   C63   S    
C59   C60   S    
C74   H40   S    
C12   C24   S    
C71   C72   S    
C103  H109  S    
C13   C17   A    
C102  C103  S    
C48   N2    A    
C87   C88   S    
C86   H69   S    
C80   H55   S    
C72   H35   S    
C29   C32   A    
C81   H57   S    
C64   H16   S    
C40   O15   S    
C45   N1    A    
C24   O6    A    
C30   C31   A    
C73   H39   S    
C73   H38   S    
Cu2   O6    S    
O14   C62   S    
C103  H108  S    
C73   H37   S    
C77   H47   S    
C78   H50   S    
C37   C41   A    
C90   H77   S    
C100  H102  S    
C69   H29   S    
C106  H116  S    
C85   H67   S    
C11   C51   A    
C25   F3    S    
C20   O28   S    
C94   H88   S    
C26   F4    S    
O24   C92   S    
C82   H59   S    
O26   C98   S    
C93   C94   S    
C13   C16   A    
O15   C65   S    
C14   C15   A    
C44   N3    T    
C45   O9    S    
C98   H97   S    
C88   H73   S    
C87   H70   S    
C2    O2    A    
C92   H83   S    
C87   H71   S    
C97   H93   S    
C47   N1    A    
C65   C66   S    
C12   C54   A    
O22   C86   S    
Cu1   O3    S    
C105  H112  S    
C72   H36   S    
C43   N4    T    
