data_mof_unit_33187.cif
_audit_creation_date              2013-03-05T15:51:55-0500
_audit_creation_method            fapswitch 2.2
_symmetry_space_group_name_H-M    P1
_symmetry_Int_Tables_number       1
_space_group_crystal_system       triclinic
_cell_length_a                    9.631383
_cell_length_b                    10.924937
_cell_length_c                    17.324356
_cell_angle_alpha                 94.415157
_cell_angle_beta                  85.919899
_cell_angle_gamma                 87.108119
_cell_volume                      1810.02270994

loop_
_atom_site_label
_atom_site_type_symbol
_atom_site_description
_atom_site_fract_x
_atom_site_fract_y
_atom_site_fract_z
_atom_type_partial_charge
O1    O     O_R   0.381190 0.680360 0.500010 -0.480572
O2    O     O_R   0.618760 0.680340 0.500000 -0.583904
C1    C     C_R   0.495159 0.739306 0.511438 0.836178
O3    O     O_R   0.367440 0.500030 0.613600 -0.552034
O4    O     O_R   0.605010 0.500010 0.613590 -0.605915
C2    C     C_R   0.481606 0.502476 0.650373 0.796488
Cu1   Cu    Cu3+1 0.359340 0.500010 0.500010 1.056268
Cu2   Cu    Cu3+1 0.640660 0.499990 0.499990 1.011828
O5    O     O_R   0.381240 0.319660 0.500000 -0.628358
O6    O     O_R   0.618810 0.319640 0.499990 -0.536534
O7    O     O_R   0.394990 0.499990 0.386410 -0.569275
O8    O     O_R   0.632560 0.499970 0.386400 -0.599088
C3    C     C_R   0.502300 0.264538 0.508546 0.817071
C4    C     C_R   0.517348 0.506987 0.350671 0.829757
C5    C     C_R   0.474937 0.519122 0.736188 -0.148685
C6    C     C_R   0.602445 0.525840 0.771199 -0.210015
C7    C     C_R   0.605392 0.557829 0.849978 -0.144154
C8    C     C_R   0.481104 0.584992 0.895722 0.050166
C9    C     C_R   0.353428 0.577365 0.862712 -0.194849
C10   C     C_R   0.348324 0.541701 0.783675 0.384017
C11   C     C_R   0.412007 0.563518 0.149918 -0.169242
C12   C     C_R   0.406438 0.566610 0.230688 0.310688
C13   C     C_R   0.646907 0.482682 0.221054 -0.203857
C14   C     C_R   0.652511 0.484857 0.140786 -0.125917
C15   C     C_R   0.535552 0.526019 0.104984 0.106865
C16   C     C_2   0.483551 0.609043 0.979720 -0.049086
C17   C     C_2   0.541520 0.521628 0.019950 -0.238629
C18   C     C_R   0.523948 0.520747 0.266778 -0.144191
H1    H     H_    0.701555 0.508013 0.737612 0.191208
H2    H     H_    0.738430 0.449459 0.247060 0.167097
H3    H     H_    0.594206 0.440281 0.988543 0.167249
H4    H     H_    0.257327 0.593540 0.899447 0.173171
H5    H     H_    0.319600 0.591755 0.122331 0.174988
H6    H     H_    0.704849 0.561768 0.875388 0.169266
H7    H     H_    0.748052 0.453835 0.106492 0.151804
C19   C     C_R   0.236966 0.921510 0.588233 0.392235
C20   C     C_R   0.132255 0.006109 0.622496 -0.118222
H8    H     H_    0.033260 0.974779 0.644639 0.186314
C21   C     C_R   0.155573 0.128980 0.632655 -0.143314
H9    H     H_    0.076889 0.192871 0.663067 0.208571
C22   C     C_R   0.281358 0.169256 0.604968 -0.119940
H10   H     H_    0.299505 0.264392 0.619639 0.205872
C23   C     C_R   0.384175 0.088238 0.562820 -0.002383
C24   C     C_R   0.369042 0.958695 0.558425 -0.021994
C25   C     C_R   0.490445 0.878076 0.531187 -0.203228
C26   C     C_R   0.620996 0.934329 0.529314 -0.144358
C27   C     C_R   0.628968 0.060257 0.521606 0.308682
C28   C     C_R   0.505661 0.135629 0.529429 -0.191341
H11   H     H_    0.852585 0.574804 0.615433 0.145647
C29   C     C_R   0.889760 0.371352 0.369350 -0.042073
C30   C     C_R   0.980074 0.340986 0.302925 -0.232238
H12   H     H_    0.941360 0.299944 0.249988 0.147999
C31   C     C_R   0.121624 0.334713 0.309032 0.009804
C32   C     C_R   0.171461 0.369976 0.379518 -0.128986
H13   H     H_    0.274651 0.335838 0.387555 0.185940
C33   C     C_R   0.087508 0.440252 0.438311 0.206361
C34   C     C_R   0.937951 0.439130 0.436847 0.189033
N1    N     N_R   0.852190 0.498790 0.499250 -0.204913
C35   C     C_R   0.915330 0.539409 0.563569 0.012233
H14   H     H_    0.106248 0.559388 0.617903 0.231403
C36   C     C_R   0.062267 0.533346 0.564489 0.102625
N2    N     N_R   0.148060 0.498710 0.499220 -0.193954
C37   C     C_1   0.745942 0.870079 0.550178 0.404117
N3    N     N_1   0.845185 0.819611 0.568302 -0.217392
N4    N     N_R   0.202823 0.798785 0.586873 0.097846
O9    O     O_R   0.212708 0.742271 0.649694 -0.391071
O10   O     O_R   0.120820 0.761490 0.534682 -0.327773
N5    N     N_R   0.763557 0.111533 0.514145 0.120879
O11   O     O_R   0.802705 0.184182 0.570670 -0.377125
O12   O     O_R   0.856622 0.065132 0.460265 -0.339449
C38   C     C_1   0.774115 0.292968 0.366653 0.405039
N6    N     N_1   0.685020 0.226878 0.358399 -0.282148
N7    N     N_R   0.283877 0.621974 0.274611 0.132855
O13   O     O_R   0.161303 0.606195 0.249558 -0.355045
O14   O     O_R   0.296200 0.706880 0.330269 -0.301963
C39   C     C_1   0.214833 0.278903 0.245834 0.278793
N8    N     N_1   0.289870 0.234353 0.195128 -0.246095
N9    N     N_R   0.214625 0.523851 0.754652 0.126336
O15   O     O_R   0.187914 0.415606 0.724737 -0.425789
O16   O     O_R   0.110659 0.602142 0.777284 -0.351038
C40   C     C_1   0.422891 0.725474 0.015681 0.283243
N10   N     N_1   0.374473 0.818602 0.044277 -0.229800

loop_
_geom_bond_atom_site_label_1
_geom_bond_atom_site_label_2
_geom_bond_distance
_ccdc_geom_bond_type
C22   C23   1.416472 A    
C22   H10   1.076745 S    
C9    C10   1.399458 A    
C8    C16   1.460791 S    
C29   C38   1.439992 S    
C40   N10   1.157442 T    
Cu1   Cu2   2.709464 S    
C21   C22   1.376580 A    
C31   C32   1.378253 A    
Cu1   O7    1.973544 S    
C16   C17   1.346684 D    
C19   C20   1.399984 A    
O4    C2    1.306064 A    
O7    C4    1.300215 A    
N9    O16   1.301560 A    
C11   H5    1.082227 S    
C5    C6    1.410562 A    
C33   C34   1.443122 A    
C8    C9    1.396138 A    
N7    O13   1.301445 A    
O5    C3    1.308243 A    
Cu2   N1    2.035829 S    
C2    C5    1.480218 S    
C26   C27   1.397824 A    
C6    C7    1.385162 A    
N4    O10   1.297963 A    
C13   C14   1.389888 A    
C23   C28   1.408084 A    
C12   C18   1.419368 A    
C11   C12   1.394240 A    
N7    O14   1.301512 A    
O3    Cu1   1.974940 S    
C9    H4    1.084119 S    
C29   C30   1.400223 A    
C5    C10   1.421397 A    
C32   C33   1.407283 A    
C35   C36   1.414704 A    
C14   H7    1.083659 S    
C17   H3    1.088163 S    
C30   H12   1.087831 S    
C13   H2    1.077569 S    
C14   C15   1.395391 A    
O3    C2    1.309838 A    
C21   H9    1.082734 S    
C19   N4    1.395365 S    
N5    O11   1.301588 A    
N1    C35   1.362308 A    
C25   C26   1.426535 A    
C1    C25   1.525942 S    
H14   C36   1.069606 S    
C30   C31   1.373595 A    
C23   C24   1.426808 A    
Cu1   N2    2.036697 S    
C20   H8    1.083737 S    
C3    C28   1.480149 S    
C27   C28   1.402885 A    
Cu2   O8    1.974940 S    
C7    C8    1.393565 A    
C13   C18   1.403207 A    
C39   N8    1.157240 T    
Cu2   O6    1.992048 S    
O8    C4    1.310265 A    
C16   C40   1.448670 S    
C33   N2    1.372174 A    
C19   C24   1.428581 A    
C31   C39   1.441708 S    
C7    H6    1.083731 S    
C27   N5    1.439246 S    
C24   C25   1.455741 A    
Cu1   O5    1.970946 S    
C11   C15   1.399852 A    
C32   H13   1.066084 S    
O1    Cu1   1.992048 S    
C29   C34   1.452479 A    
O2    Cu2   1.970946 S    
O6    C3    1.304538 A    
O4    Cu2   1.973544 S    
C15   C17   1.467174 S    
H11   C35   1.080602 S    
C10   N9    1.432272 S    
C26   C37   1.444734 S    
C4    C18   1.469853 S    
O2    C1    1.319400 A    
C6    H1    1.082807 S    
C38   N6    1.158541 T    
C20   C21   1.372228 A    
N9    O15   1.299445 A    
C34   N1    1.409241 A    
C36   N2    1.369008 A    
C37   N3    1.154305 T    
N5    O12   1.301526 A    
N4    O9    1.298840 A    
C12   N7    1.437901 S    
O1    C1    1.319641 A    
