data_mof_unit_60488.cif
_audit_creation_date              2012-12-10T17:25:22-0500
_audit_creation_method            fapswitch 2.2
_symmetry_space_group_name_H-M    P1
_symmetry_Int_Tables_number       1
_space_group_crystal_system       triclinic
_cell_length_a                    18.798451
_cell_length_b                    18.84224
_cell_length_c                    18.756145
_cell_angle_alpha                 109.417511
_cell_angle_beta                  109.346117
_cell_angle_gamma                 109.644289
_cell_volume                      5114.51748771

loop_
_atom_site_label
_atom_site_type_symbol
_atom_type_description
_atom_site_fract_x
_atom_site_fract_y
_atom_site_fract_z
_atom_type_partial_charge
C1    C     C_R   0.618940 0.618808 0.499935 0.758320
C2    C     C_R   0.186375 0.165183 0.202196 -0.438937
C3    C     C_R   0.177029 0.422182 0.178163 -0.190821
C4    C     C_R   0.185535 0.501952 0.187898 -0.075502
C5    C     C_R   0.257181 0.580571 0.261828 0.007543
C6    C     C_R   0.320557 0.577751 0.323850 -0.227979
C7    C     C_R   0.312671 0.497986 0.313645 -0.079829
C8    C     C_R   0.239932 0.419322 0.240559 -0.000774
C9    C     C_R   0.329899 0.727533 0.278045 -0.138918
C10   C     C_R   0.338067 0.809333 0.298187 -0.165703
C11   C     C_R   0.281384 0.830444 0.321517 0.058465
C12   C     C_R   0.380077 0.498761 0.380963 0.793260
C13   C     C_R   0.216370 0.769341 0.324359 -0.163466
C14   C     C_R   0.207082 0.687014 0.302637 -0.162582
C15   C     C_R   0.264010 0.665795 0.279662 0.116256
C16   C     C_R   0.757649 0.756974 0.579050 -0.164233
C17   C     C_R   0.822458 0.820368 0.579014 -0.161181
C18   C     C_R   0.814186 0.813908 0.499797 -0.006265
C19   C     C_R   0.741814 0.743093 0.420582 -0.145104
C20   C     C_R   0.678495 0.678164 0.420586 -0.157637
C21   C     C_R   0.685959 0.685504 0.499837 -0.012442
C22   C     C_R   0.681689 0.501295 0.756050 -0.211783
C23   C     C_R   0.382128 0.381274 0.501016 0.767539
C24   C     C_R   0.743496 0.497285 0.817760 -0.208706
C25   C     C_R   0.814532 0.496087 0.809843 -0.210112
C26   C     C_R   0.823062 0.497346 0.737927 0.413454
C27   C     C_R   0.762603 0.504722 0.677596 0.416949
C28   C     C_R   0.690138 0.504255 0.685647 -0.206177
C29   C     C_R   0.240422 0.316066 0.491377 -0.197058
C30   C     C_R   0.174936 0.251452 0.489247 -0.149918
C31   C     C_R   0.186460 0.185484 0.500100 -0.103054
C32   C     C_R   0.263640 0.184212 0.513071 -0.121735
C33   C     C_R   0.329892 0.248428 0.515297 0.421004
C34   C     C_R   0.620361 0.501585 0.618905 0.775379
C35   C     C_R   0.317388 0.314606 0.503316 -0.134575
C36   C     C_R   0.999557 0.618960 0.118616 0.802213
C37   C     C_R   0.118843 0.501170 0.120011 0.794806
C38   C     C_R   0.001174 0.381298 0.882145 0.774365
C39   C     C_R   0.881174 0.498445 0.879505 0.792067
C40   C     C_R   0.000059 0.881463 0.381198 0.791814
C41   C     C_R   0.881069 0.880928 0.499843 0.781091
C42   C     C_R   0.001330 0.119888 0.618963 0.778100
C43   C     C_R   0.119003 0.118770 0.499876 0.815302
C44   C     C_R   0.035339 0.771228 0.200168 -0.211055
C45   C     C_R   0.241353 0.205929 0.175551 0.461700
C46   C     C_R   0.036066 0.835735 0.264456 -0.041100
C47   C     C_R   0.999766 0.814607 0.314205 -0.097261
C48   C     C_R   0.963212 0.729020 0.299429 -0.033954
C49   C     C_R   0.962589 0.665062 0.234672 -0.211706
C50   C     C_R   0.998759 0.685903 0.185113 -0.061830
C51   C     C_R   0.084172 0.322871 0.826057 -0.061602
C52   C     C_R   0.084317 0.259552 0.760256 -0.064323
C53   C     C_R   0.004171 0.188846 0.686889 -0.068950
C54   C     C_R   0.925371 0.182400 0.679155 -0.172656
C55   C     C_R   0.925257 0.244808 0.744206 -0.176329
C56   C     C_R   0.259582 0.289031 0.188012 0.435385
C57   C     C_R   0.003968 0.315199 0.817164 -0.066028
C58   C     C_R   0.224465 0.333002 0.230317 -0.209482
C59   C     C_R   0.169784 0.291345 0.258099 0.345013
C60   C     C_R   0.150092 0.206888 0.241907 -0.042737
Cu1   Cu    Cu3+1 0.500020 0.438210 0.438220 1.041184
Cu2   Cu    Cu3+1 0.499980 0.561790 0.561780 0.971864
Cu3   Cu    Cu3+1 0.938210 0.438200 0.999980 0.977216
Cu4   Cu    Cu3+1 0.061840 0.561770 0.999960 1.005385
Cu5   Cu    Cu3+1 0.061800 0.999890 0.561700 1.008199
Cu6   Cu    Cu3+1 0.938200 0.999930 0.438120 0.996371
H1    H     H_    0.170989 0.100262 0.191032 0.185454
H2    H     H_    0.173195 0.785484 0.343800 0.151908
H3    H     H_    0.156545 0.640343 0.305147 0.131108
H4    H     H_    0.764016 0.762844 0.640601 0.144596
H5    H     H_    0.878140 0.875110 0.640559 0.146015
H6    H     H_    0.735240 0.737426 0.359034 0.146411
H7    H     H_    0.623041 0.623156 0.359057 0.148116
H8    H     H_    0.626357 0.500787 0.762530 0.176119
H9    H     H_    0.736539 0.496353 0.872590 0.176589
H10   H     H_    0.230479 0.366482 0.482144 0.183389
H11   H     H_    0.115628 0.253253 0.479743 0.173017
H12   H     H_    0.272659 0.133195 0.521789 0.174738
H13   H     H_    0.063757 0.787749 0.162227 0.165860
H14   H     H_    0.934740 0.599244 0.223638 0.166183
H15   H     H_    0.863707 0.128139 0.623174 0.152901
H16   H     H_    0.863582 0.238896 0.737031 0.152459
H17   H     H_    0.121097 0.361845 0.121741 0.161915
H18   H     H_    0.375738 0.638048 0.381005 0.156633
H19   H     H_    0.374700 0.712223 0.261103 0.139618
H20   H     H_    0.388928 0.856281 0.296252 0.143074
O1    O     O_R   0.590200 0.537990 0.447840 -0.573032
O2    O     O_R   0.052220 0.642350 0.090110 -0.583901
O3    O     O_R   0.038000 0.447810 0.090170 -0.586322
O4    O     O_R   0.142390 0.552170 0.090150 -0.566976
O5    O     O_R   0.947830 0.357620 0.909840 -0.584810
O6    O     O_R   0.052230 0.461980 0.909820 -0.575883
O7    O     O_R   0.857660 0.447800 0.909790 -0.578813
O8    O     O_R   0.962050 0.552160 0.909780 -0.569090
O9    O     O_R   0.052180 0.909730 0.461910 -0.580074
O10   O     O_R   0.947800 0.909770 0.357550 -0.575658
O11   O     O_R   0.962000 0.909720 0.552080 -0.573317
O12   O     O_R   0.590170 0.642360 0.552180 -0.587912
O13   O     O_R   0.857620 0.909750 0.447720 -0.592107
O14   O     O_R   0.052200 0.090060 0.642270 -0.576001
O15   O     O_R   0.947820 0.090090 0.537910 -0.584660
O16   O     O_R   0.142380 0.090070 0.552100 -0.584234
O17   O     O_R   0.038000 0.090100 0.447740 -0.566824
O18   O     O_R   0.409840 0.447810 0.357640 -0.569526
O19   O     O_R   0.409810 0.552180 0.461990 -0.585447
O20   O     O_R   0.409830 0.357640 0.447820 -0.568982
O21   O     O_R   0.409800 0.462010 0.552160 -0.579706
O22   O     O_R   0.590190 0.447820 0.538010 -0.564526
O23   O     O_R   0.590160 0.552190 0.642360 -0.582083
O24   O     O_R   0.947830 0.537990 0.090130 -0.590206
C61   C     C_1   0.290381 0.914973 0.343292 0.213473
N1    N     N_1   0.297636 0.982936 0.360849 -0.236117
O25   O     O_3   0.889287 0.491737 0.724173 -0.661090
H21   H     H_    0.911500 0.463000 0.754010 0.315891
O26   O     O_3   0.277345 0.165341 0.135614 -0.661960
H22   H     H_    0.258585 0.107575 0.131542 0.323213
O27   O     O_3   0.776707 0.511900 0.611882 -0.657636
H23   H     H_    0.746027 0.539887 0.589428 0.316524
O28   O     O_3   0.405371 0.244666 0.531049 -0.707485
H24   H     H_    0.452858 0.301278 0.548353 0.324594
C62   C     C_1   0.076777 0.923601 0.280141 0.247394
N2    N     N_1   0.109679 0.993975 0.292833 -0.270948
C63   C     C_1   0.925203 0.705327 0.349287 0.231201
N3    N     N_1   0.894794 0.686383 0.389217 -0.260655
C64   C     C_1   0.165871 0.393667 0.903694 0.265040
N4    N     N_1   0.230970 0.450042 0.965669 -0.257258
O29   O     O_3   0.311788 0.324222 0.157527 -0.663355
H25   H     H_    0.320195 0.382394 0.169094 0.332313
C65   C     C_1   0.166444 0.268894 0.766779 0.267186
N5    N     N_1   0.231921 0.276397 0.771921 -0.248210
O30   O     O_3   0.133113 0.329753 0.299519 -0.729937
H26   H     H_    0.158445 0.391702 0.315719 0.338926
C66   C     C_1   0.090152 0.161096 0.264026 0.390933
N6    N     N_1   0.041605 0.124243 0.281290 -0.254790

loop_
_geom_bond_atom_site_label_1
_geom_bond_atom_site_label_2
_ccdc_geom_bond_type
C1    O1    A    
C40   C47   S    
C1    C21   S    
C16   C21   A    
C54   C55   A    
C19   C20   A    
Cu4   O4    S    
C48   C63   S    
C63   N3    T    
C29   H10   S    
C53   C54   A    
C36   O2    A    
C59   O30   S    
C26   C27   A    
C31   C43   S    
C37   O4    A    
C5    C6    A    
C52   C65   S    
C12   O18   A    
C42   C53   S    
C30   C31   A    
C2    C60   A    
O26   H22   S    
C38   O6    A    
C18   C19   A    
C56   O29   S    
Cu1   O22   S    
C39   O7    A    
Cu1   O1    S    
C8    C58   S    
Cu2   O12   S    
C30   H11   S    
C47   C48   A    
C45   C56   A    
C16   C17   A    
C41   O13   A    
C46   C62   S    
C51   C57   A    
C9    C10   A    
C9    H19   S    
C64   N4    T    
C28   C34   S    
C59   C60   A    
C22   C28   A    
C13   C14   A    
Cu4   O8    S    
Cu6   O15   S    
C19   H6    S    
Cu5   O16   S    
C40   O10   A    
C44   C46   A    
C27   O27   S    
C2    C45   A    
C7    C12   S    
C6    H18   S    
C11   C61   S    
C51   C52   A    
C51   C64   S    
C7    C8    A    
Cu1   O18   S    
C16   H4    S    
C24   C25   A    
C3    C8    A    
C18   C41   S    
Cu2   O19   S    
C65   N5    T    
Cu2   O21   S    
C58   C59   A    
C23   O20   A    
C38   O5    A    
C3    C4    A    
Cu6   O13   S    
C39   O8    A    
C29   C30   A    
C42   O14   A    
C38   C57   S    
C45   O26   S    
C31   C32   A    
C23   O21   A    
Cu3   O3    S    
C17   C18   A    
C4    C37   S    
C55   H16   S    
Cu1   O20   S    
C62   N2    T    
C48   C49   A    
C2    H1    S    
C23   C35   S    
C55   C57   A    
C3    H17   S    
C66   N6    T    
C14   H3    S    
C22   C24   A    
C22   H8    S    
C40   O9    A    
O30   H26   S    
C42   O15   A    
C36   C50   S    
C52   C53   A    
Cu6   O10   S    
O25   H21   S    
C44   C50   A    
Cu3   O7    S    
C46   C47   A    
C10   H20   S    
C61   N1    T    
Cu6   O17   S    
C44   H13   S    
Cu5   O14   S    
C4    C5    A    
C1    O12   A    
O28   H24   S    
C24   H9    S    
C17   H5    S    
C6    C7    A    
C29   C35   A    
C49   H14   S    
C37   O3    A    
C34   O22   A    
C32   C33   A    
Cu3   O24   S    
C25   C26   A    
C43   O16   A    
Cu5   O11   S    
O27   H23   S    
C25   C39   S    
C36   O24   A    
C11   C13   A    
C12   O19   A    
Cu2   O23   S    
C33   C35   A    
C56   C58   A    
C20   H7    S    
C41   O11   A    
Cu5   Cu6   S    
C9    C15   A    
Cu1   Cu2   S    
C43   O17   A    
C5    C15   S    
C10   C11   A    
C32   H12   S    
Cu3   Cu4   S    
Cu5   O9    S    
C20   C21   A    
C33   O28   S    
C49   C50   A    
Cu3   O5    S    
C27   C28   A    
C34   O23   A    
Cu4   O6    S    
C14   C15   A    
C26   O25   S    
C60   C66   S    
Cu4   O2    S    
C54   H15   S    
O29   H25   S    
C13   H2    S    
