data_mof_unit_66521.cif
_audit_creation_date              2012-12-10T21:03:14-0500
_audit_creation_method            fapswitch 2.2
_symmetry_space_group_name_H-M    P1
_symmetry_Int_Tables_number       1
_space_group_crystal_system       triclinic
_cell_length_a                    25.892701
_cell_length_b                    43.014841
_cell_length_c                    25.102146
_cell_angle_alpha                 89.999427
_cell_angle_beta                  121.083481
_cell_angle_gamma                 90.000229
_cell_volume                      23943.7013655

loop_
_atom_site_label
_atom_site_type_symbol
_atom_type_description
_atom_site_fract_x
_atom_site_fract_y
_atom_site_fract_z
_atom_type_partial_charge
C1    C     C_R   0.999998 0.165847 0.499999 0.799922
C2    C     C_R   0.618499 0.249977 0.737050 -0.011380
C3    C     C_R   0.591726 0.145694 0.422552 -0.161961
C4    C     C_R   0.266809 0.277511 0.480203 -0.067971
C5    C     C_R   0.694488 0.755492 0.443466 -0.068137
C6    C     C_R   0.733217 0.277496 0.519842 -0.067938
C7    C     C_R   0.305511 0.755493 0.556533 -0.068132
C8    C     C_R   0.805421 0.744285 0.556443 -0.066835
C9    C     C_R   0.231951 0.222572 0.517463 -0.060237
C10   C     C_R   0.194579 0.744283 0.443558 -0.066826
C11   C     C_R   0.767998 0.222578 0.482436 -0.060344
C12   C     C_R   0.303105 0.250460 0.498717 -0.154731
C13   C     C_R   0.618358 0.750089 0.737014 -0.005697
C14   C     C_R   0.696171 0.750471 0.499910 -0.162519
C15   C     C_R   0.696889 0.250457 0.501269 -0.154770
C16   C     C_R   0.303829 0.750471 0.500090 -0.162525
C17   C     C_R   0.803764 0.749466 0.500027 -0.161472
C18   C     C_R   0.196468 0.249820 0.500493 -0.156207
C19   C     C_R   0.196236 0.749466 0.499973 -0.161481
C20   C     C_R   0.803528 0.249814 0.499497 -0.156186
C21   C     C_R   0.285761 0.223019 0.516315 -0.060509
C22   C     C_R   0.750991 0.745055 0.556244 -0.054525
C23   C     C_R   0.714189 0.223027 0.483594 -0.060414
C24   C     C_R   0.381502 0.249977 0.262950 -0.011395
C25   C     C_R   0.249009 0.745054 0.443757 -0.054529
C26   C     C_R   0.748910 0.754855 0.443692 -0.053438
C27   C     C_R   0.213528 0.277206 0.482500 -0.048475
C28   C     C_R   0.251089 0.754857 0.556307 -0.053434
C29   C     C_R   0.786502 0.277189 0.517556 -0.048420
C30   C     C_R   0.050914 0.115026 0.508227 0.109800
C31   C     C_R   0.949400 0.884971 0.492575 0.114257
C32   C     C_R   0.949075 0.115027 0.491770 0.110016
C33   C     C_R   0.050593 0.884973 0.507419 0.114250
C34   C     C_R   0.540509 0.614382 0.488243 0.128727
C35   C     C_R   0.718512 0.250081 0.936825 0.291897
C36   C     C_R   0.520331 0.385509 0.556310 0.141496
C37   C     C_R   0.459493 0.614382 0.511760 0.128730
C38   C     C_R   0.479671 0.385510 0.443690 0.141500
C39   C     C_R   0.050286 0.082459 0.508160 -0.149533
C40   C     C_R   0.949991 0.917537 0.492586 -0.148572
C41   C     C_R   0.949700 0.082461 0.491837 -0.149529
C42   C     C_R   0.049998 0.917539 0.507408 -0.148573
C43   C     C_R   0.539290 0.581834 0.487631 -0.148215
C44   C     C_R   0.519231 0.418058 0.555248 -0.150084
C45   C     C_R   0.460713 0.581834 0.512372 -0.148213
C46   C     C_R   0.281534 0.750006 0.063179 0.293673
C47   C     C_R   0.480771 0.418059 0.444752 -0.150087
C48   C     C_R   0.999993 0.065971 0.499999 -0.009365
C49   C     C_R   0.999994 0.934028 0.499997 -0.011315
C50   C     C_R   0.500001 0.565550 0.500001 -0.006704
C51   C     C_R   0.500001 0.434344 0.500000 -0.006962
C52   C     C_R   0.999996 0.131572 0.499998 -0.013451
C53   C     C_R   0.999998 0.868428 0.499998 -0.018044
C54   C     C_R   0.500001 0.631167 0.500001 -0.039760
C55   C     C_R   0.500001 0.368761 0.500000 -0.033684
C56   C     C_R   0.859736 0.249785 0.499510 0.776202
C57   C     C_R   0.281488 0.250081 0.063175 0.291897
C58   C     C_R   0.140123 0.749969 0.500147 0.774814
C59   C     C_R   0.140262 0.249788 0.500486 0.776243
C60   C     C_R   0.859877 0.749969 0.499853 0.774817
C61   C     C_R   0.359929 0.750055 0.499928 0.774590
C62   C     C_R   0.640448 0.250375 0.500828 0.781123
C63   C     C_R   0.640071 0.750055 0.500072 0.774590
C64   C     C_R   0.359552 0.250374 0.499171 0.781153
C65   C     C_R   0.500001 0.468472 0.500000 0.308404
C66   C     C_R   0.500001 0.531422 0.500001 0.307641
C67   C     C_R   0.999993 0.968414 0.499997 0.315659
C68   C     C_R   0.718465 0.750006 0.936820 0.293675
C69   C     C_R   0.999992 0.031585 0.499998 0.315414
C70   C     C_R   0.084206 0.250041 0.668509 0.783311
C71   C     C_R   0.915792 0.749970 0.331506 0.794661
C72   C     C_R   0.915794 0.250041 0.331491 0.783316
C73   C     C_R   0.084208 0.749969 0.668494 0.794658
C74   C     C_R   0.584208 0.750033 0.668496 0.795824
C75   C     C_R   0.415775 0.249974 0.331493 0.787472
C76   C     C_R   0.415792 0.750034 0.331504 0.795822
C77   C     C_R   0.584225 0.249974 0.668507 0.787500
C78   C     C_R   0.898339 0.230307 0.229919 -0.184548
C79   C     C_R   0.218491 0.750039 0.936812 0.293565
C80   C     C_R   0.108541 0.773201 0.769996 -0.176995
C81   C     C_R   0.101660 0.230307 0.770082 -0.184574
C82   C     C_R   0.891457 0.773202 0.230003 -0.176998
C83   C     C_R   0.391958 0.727029 0.229984 -0.176899
C84   C     C_R   0.602059 0.269970 0.770053 -0.187140
C85   C     C_R   0.608045 0.727028 0.770017 -0.176903
C86   C     C_R   0.397943 0.269970 0.229946 -0.187153
C87   C     C_R   0.865949 0.230334 0.165041 -0.158710
C88   C     C_R   0.141121 0.773270 0.834884 -0.157273
C89   C     C_R   0.134051 0.230334 0.834959 -0.158717
C90   C     C_R   0.781784 0.250157 0.063163 0.291865
C91   C     C_R   0.858877 0.773271 0.165115 -0.157272
C92   C     C_R   0.359382 0.726970 0.165098 -0.156891
C93   C     C_R   0.634524 0.270001 0.834932 -0.159493
C94   C     C_R   0.640621 0.726968 0.834903 -0.156892
C95   C     C_R   0.365478 0.270001 0.165068 -0.159490
C96   C     C_R   0.816156 0.250169 0.131872 0.078905
C97   C     C_R   0.184109 0.750023 0.868076 0.079919
C98   C     C_R   0.183842 0.250170 0.868128 0.078907
C99   C     C_R   0.815891 0.750023 0.131924 0.079919
C100  C     C_R   0.315910 0.750017 0.131916 0.080053
C101  C     C_R   0.781509 0.750040 0.063188 0.293568
C102  C     C_R   0.684099 0.250037 0.868117 0.078817
C103  C     C_R   0.684089 0.750017 0.868084 0.080053
C104  C     C_R   0.315902 0.250037 0.131883 0.078813
C105  C     C_R   0.799501 0.269994 0.165002 -0.159223
C106  C     C_R   0.193751 0.726698 0.834935 -0.166601
C107  C     C_R   0.200497 0.269994 0.834997 -0.159230
C108  C     C_R   0.806251 0.726698 0.165066 -0.166605
C109  C     C_R   0.305763 0.773127 0.165066 -0.167449
C110  C     C_R   0.700478 0.230034 0.835003 -0.158220
C111  C     C_R   0.694233 0.773128 0.834933 -0.167446
C112  C     C_R   1.000000 0.834152 0.500000 0.803525
C113  C     C_R   0.218215 0.250157 0.936837 0.291859
C114  C     C_R   0.299523 0.230034 0.164997 -0.158217
C115  C     C_R   0.831901 0.269957 0.229883 -0.186065
C116  C     C_R   0.161089 0.726623 0.770055 -0.205140
C117  C     C_R   0.168097 0.269958 0.770116 -0.186085
C118  C     C_R   0.838914 0.726622 0.229946 -0.205138
C119  C     C_R   0.338402 0.773188 0.229948 -0.205016
C120  C     C_R   0.667998 0.230007 0.770124 -0.182370
C121  C     C_R   0.661595 0.773189 0.770051 -0.205015
C122  C     C_R   0.332002 0.230007 0.229877 -0.182368
C123  C     C_2   0.245825 0.329446 0.571867 0.397332
C124  C     C_R   0.948116 0.385018 0.457345 -0.209695
C125  C     C_2   0.755640 0.819766 0.407588 0.351235
C126  C     C_2   0.754274 0.329477 0.428299 0.397319
C127  C     C_2   0.244355 0.819769 0.592399 0.351245
C128  C     C_2   0.736231 0.680623 0.588925 0.347720
C129  C     C_2   0.269756 0.172644 0.428014 0.445365
C130  C     C_2   0.263774 0.680622 0.411075 0.347726
C131  C     C_2   0.730235 0.172601 0.571811 0.444879
C132  C     C_2   0.284292 0.305299 0.456835 0.381134
C133  C     C_2   0.635905 0.763007 0.385642 0.441564
C134  C     C_2   0.715761 0.305275 0.543255 0.381070
C135  C     C_R   0.052810 0.614911 0.540401 -0.184664
C136  C     C_2   0.364094 0.763011 0.614355 0.441555
C137  C     C_2   0.863933 0.736382 0.614053 0.439134
C138  C     C_2   0.213481 0.194663 0.539367 0.410285
C139  C     C_2   0.136067 0.736378 0.385950 0.439134
C140  C     C_2   0.786430 0.194684 0.460444 0.409901
C141  C     C_3   0.106874 0.131595 0.518957 -0.795472
C142  C     C_3   0.893800 0.868382 0.482738 -0.806550
C143  C     C_3   0.893115 0.131598 0.481036 -0.795856
C144  C     C_3   0.106195 0.868386 0.517257 -0.806549
C145  C     C_3   0.586647 0.630331 0.478017 -0.792639
C146  C     C_R   0.051876 0.385018 0.542673 -0.209741
C147  C     C_3   0.545139 0.369490 0.618372 -0.835971
C148  C     C_3   0.413356 0.630330 0.521987 -0.792645
C149  C     C_3   0.454863 0.369491 0.381628 -0.835995
C150  C     C_R   0.947188 0.614911 0.459605 -0.184663
C151  C     C_R   0.447484 0.885094 0.458810 -0.184071
C152  C     C_R   0.550462 0.114996 0.545284 -0.210020
C153  C     C_R   0.552518 0.885094 0.541186 -0.184071
C154  C     C_R   0.449546 0.114996 0.454704 -0.210080
C155  C     C_R   0.948055 0.417442 0.457425 -0.166387
C156  C     C_R   0.500000 0.665694 0.500000 0.807515
C157  C     C_R   0.052809 0.582475 0.540433 -0.156964
C158  C     C_R   0.051935 0.417442 0.542599 -0.166432
C159  C     C_R   0.947187 0.582475 0.459578 -0.156963
C160  C     C_R   0.447494 0.917531 0.458756 -0.156763
C161  C     C_R   0.550537 0.082570 0.545215 -0.162219
C162  C     C_R   0.552509 0.917531 0.541237 -0.156763
C163  C     C_R   0.449472 0.082570 0.454770 -0.162246
C164  C     C_R   0.999995 0.434018 0.500013 0.079939
C165  C     C_R   0.999998 0.565895 0.500007 0.080416
C166  C     C_R   0.500002 0.934111 0.499995 0.080317
C167  C     C_R   0.500000 0.334280 0.500000 0.804084
C168  C     C_R   0.500005 0.065993 0.499992 0.077614
C169  C     C_R   0.999997 0.368511 0.500006 -0.017927
C170  C     C_R   1.000000 0.631437 0.500002 -0.006643
C171  C     C_R   0.500000 0.868566 0.499999 -0.006507
C172  C     C_R   0.500002 0.131499 0.499996 -0.021760
C173  C     C_R   0.500004 0.031636 0.499992 0.291033
C174  C     C_R   0.500003 0.968473 0.499994 0.292577
C175  C     C_R   0.999996 0.531534 0.500010 0.292702
C176  C     C_R   0.999995 0.468373 0.500013 0.291513
C177  C     C_R   0.082415 0.332186 0.392787 -0.145297
C178  C     C_R   0.881599 0.250102 0.262943 -0.011299
C179  C     C_R   0.745496 0.743105 0.292735 -0.112399
C180  C     C_R   0.917690 0.332113 0.607384 -0.145328
C181  C     C_R   0.254502 0.743113 0.707264 -0.112401
C182  C     C_R   0.756102 0.757295 0.707945 -0.113037
C183  C     C_R   0.415057 0.169236 0.618597 -0.141052
C184  C     C_R   0.243896 0.757297 0.292055 -0.113038
C185  C     C_R   0.584790 0.169307 0.381285 -0.141091
C186  C     C_R   0.120966 0.306689 0.408691 -0.094537
C187  C     C_R   0.745454 0.737381 0.347404 0.001881
C188  C     C_R   0.879100 0.306630 0.591430 -0.094443
C189  C     C_R   0.118365 0.749929 0.737009 -0.004659
C190  C     C_R   0.254545 0.737386 0.652596 0.001870
C191  C     C_R   0.756862 0.762760 0.653579 0.002437
C192  C     C_R   0.374363 0.193976 0.598377 -0.139467
C193  C     C_R   0.243136 0.762760 0.346421 0.002419
C194  C     C_R   0.625513 0.194034 0.401523 -0.138854
C195  C     C_R   0.174943 0.305459 0.466693 0.104897
C196  C     C_R   0.749454 0.762081 0.385970 0.071684
C197  C     C_R   0.825121 0.305433 0.533426 0.104787
C198  C     C_R   0.250543 0.762085 0.614027 0.071689
C199  C     C_R   0.750249 0.738046 0.613940 0.075797
C200  C     C_R   0.118400 0.250103 0.737057 -0.011314
C201  C     C_R   0.326350 0.195429 0.536423 0.093776
C202  C     C_R   0.249752 0.738046 0.386061 0.075820
C203  C     C_R   0.673570 0.195450 0.463460 0.094096
C204  C     C_R   0.999999 0.334263 0.500001 0.802938
C205  C     C_R   0.000000 0.665720 0.500000 0.788537
C206  C     C_R   0.500000 0.834281 0.500000 0.788306
C207  C     C_R   0.500001 0.165740 0.499999 0.800858
C208  C     C_R   0.190097 0.330291 0.509420 0.060178
C209  C     C_R   0.753055 0.793039 0.368877 0.008537
C210  C     C_R   0.810003 0.330286 0.490749 0.060052
C211  C     C_R   0.881635 0.749930 0.262991 -0.004657
C212  C     C_R   0.246941 0.793043 0.631114 0.008551
C213  C     C_R   0.742664 0.707361 0.629317 0.007229
C214  C     C_R   0.319336 0.171603 0.494135 0.089036
C215  C     C_R   0.257339 0.707362 0.370683 0.007244
C216  C     C_R   0.680603 0.171600 0.505710 0.088798
C217  C     C_R   0.150798 0.355913 0.492297 -0.085784
C218  C     C_R   0.753548 0.798324 0.313775 -0.111057
C219  C     C_R   0.849341 0.355894 0.507921 -0.085784
C220  C     C_R   0.246447 0.798331 0.686214 -0.111060
C221  C     C_R   0.741584 0.702356 0.684180 -0.108719
C222  C     C_R   0.381642 0.750089 0.262986 -0.005699
C223  C     C_R   0.360523 0.146700 0.515583 -0.091295
C224  C     C_R   0.258419 0.702358 0.315821 -0.108718
C225  C     C_R   0.639383 0.146712 0.484244 -0.091219
C226  C     C_R   0.097357 0.356769 0.434448 -0.154511
C227  C     C_R   0.749890 0.773491 0.276123 -0.164952
C228  C     C_R   0.902785 0.356715 0.565771 -0.154569
C229  C     C_R   0.250107 0.773499 0.723870 -0.164955
C230  C     C_R   0.748280 0.727177 0.723117 -0.165025
C231  C     C_R   0.408136 0.145645 0.577294 -0.161969
C232  C     C_R   0.251720 0.727180 0.276883 -0.165019
H1    H     H_    0.936490 0.214756 0.254172 0.166936
H2    H     H_    0.756659 0.821703 0.299668 0.178949
H3    H     H_    0.399763 0.774428 0.611153 0.049611
H4    H     H_    0.899613 0.725224 0.610489 0.050137
H5    H     H_    0.183325 0.197215 0.557047 0.045906
H6    H     H_    0.100385 0.725226 0.389512 0.050166
H7    H     H_    0.816829 0.197228 0.443062 0.046185
H8    H     H_    0.123323 0.147683 0.559108 0.219413
H9    H     H_    0.143910 0.115082 0.529347 0.252882
H10   H     H_    0.096830 0.144910 0.476805 0.265893
H11   H     H_    0.877312 0.852045 0.442959 0.240477
H12   H     H_    0.904307 0.855314 0.525292 0.252435
H13   H     H_    0.839030 0.375251 0.476401 0.169618
H14   H     H_    0.856712 0.884871 0.472270 0.257704
H15   H     H_    0.876668 0.147684 0.440882 0.219544
H16   H     H_    0.856079 0.115086 0.470648 0.252901
H17   H     H_    0.903158 0.144916 0.523184 0.265668
H18   H     H_    0.122685 0.852049 0.557037 0.240477
H19   H     H_    0.095689 0.855317 0.474704 0.252435
H20   H     H_    0.143281 0.884876 0.527723 0.257704
H21   H     H_    0.612826 0.647342 0.515824 0.257512
H22   H     H_    0.619281 0.613567 0.478008 0.236118
H23   H     H_    0.563884 0.642324 0.432318 0.252345
H24   H     H_    0.243335 0.821710 0.700317 0.178947
H25   H     H_    0.580990 0.352782 0.625859 0.234877
H26   H     H_    0.565429 0.386284 0.657622 0.229521
H27   H     H_    0.508432 0.357148 0.620159 0.264062
H28   H     H_    0.387176 0.647342 0.484180 0.257515
H29   H     H_    0.380722 0.613566 0.521998 0.236117
H30   H     H_    0.436120 0.642323 0.567686 0.252343
H31   H     H_    0.419012 0.352783 0.374141 0.234874
H32   H     H_    0.434574 0.386286 0.342378 0.229521
H33   H     H_    0.491569 0.357149 0.379841 0.264057
H34   H     H_    0.735633 0.679201 0.697104 0.179919
H35   H     H_    0.356058 0.128040 0.484550 0.169877
H36   H     H_    0.264372 0.679204 0.302896 0.179917
H37   H     H_    0.643856 0.128037 0.515250 0.169921
H38   H     H_    0.089437 0.069933 0.514682 0.164329
H39   H     H_    0.911067 0.930058 0.486673 0.164668
H40   H     H_    0.910548 0.069935 0.485315 0.164335
H41   H     H_    0.075878 0.791480 0.745683 0.167628
H42   H     H_    0.088922 0.930061 0.513320 0.164666
H43   H     H_    0.570048 0.569012 0.478635 0.160207
H44   H     H_    0.534647 0.430876 0.598056 0.159295
H45   H     H_    0.429954 0.569011 0.521367 0.160207
H46   H     H_    0.465356 0.430877 0.401945 0.159294
H47   H     H_    0.880002 0.214780 0.140968 0.156036
H48   H     H_    0.132566 0.791577 0.858948 0.156505
H49   H     H_    0.119997 0.214780 0.859033 0.156032
H50   H     H_    0.867430 0.791579 0.141050 0.156504
H51   H     H_    0.368338 0.708833 0.141025 0.156501
H52   H     H_    0.063510 0.214755 0.745829 0.166922
H53   H     H_    0.620702 0.285704 0.858993 0.155217
H54   H     H_    0.631668 0.708830 0.858976 0.156500
H55   H     H_    0.379299 0.285703 0.141005 0.155215
H56   H     H_    0.761386 0.285568 0.140894 0.156193
H57   H     H_    0.226416 0.708404 0.859029 0.155094
H58   H     H_    0.238612 0.285568 0.859104 0.156197
H59   H     H_    0.773587 0.708403 0.140973 0.155094
H60   H     H_    0.272681 0.791249 0.140979 0.155106
H61   H     H_    0.738420 0.214357 0.859122 0.156976
H62   H     H_    0.727313 0.791251 0.859019 0.155106
H63   H     H_    0.924119 0.791481 0.254315 0.167624
H64   H     H_    0.261580 0.214357 0.140879 0.156987
H65   H     H_    0.817964 0.285487 0.254111 0.167994
H66   H     H_    0.169108 0.708214 0.745771 0.156660
H67   H     H_    0.182034 0.285487 0.745888 0.168001
H68   H     H_    0.830896 0.708213 0.254230 0.156660
H69   H     H_    0.329900 0.791401 0.254234 0.157608
H70   H     H_    0.681708 0.214332 0.745909 0.170319
H71   H     H_    0.670094 0.791403 0.745764 0.157607
H72   H     H_    0.318292 0.214332 0.254093 0.170359
H73   H     H_    0.907475 0.372892 0.423844 0.173768
H74   H     H_    0.425016 0.708912 0.254281 0.167390
H75   H     H_    0.094213 0.627025 0.572081 0.161592
H76   H     H_    0.092518 0.372891 0.576173 0.173734
H77   H     H_    0.905786 0.627026 0.427924 0.161593
H78   H     H_    0.406316 0.872978 0.426503 0.161680
H79   H     H_    0.589940 0.127134 0.580893 0.179666
H80   H     H_    0.593685 0.872978 0.573494 0.161681
H81   H     H_    0.410068 0.127135 0.419094 0.179685
H82   H     H_    0.907280 0.429475 0.423978 0.161233
H83   H     H_    0.094277 0.570434 0.572152 0.154573
H84   H     H_    0.092709 0.429474 0.576048 0.161220
H85   H     H_    0.564096 0.285634 0.745784 0.164789
H86   H     H_    0.905718 0.570434 0.427861 0.154574
H87   H     H_    0.406258 0.929574 0.426420 0.154578
H88   H     H_    0.590182 0.070535 0.580766 0.162336
H89   H     H_    0.593746 0.929573 0.573572 0.154579
H90   H     H_    0.409829 0.070536 0.419217 0.162334
H91   H     H_    0.067328 0.376502 0.422028 0.153450
H92   H     H_    0.750227 0.777836 0.233825 0.155730
H93   H     H_    0.932845 0.376437 0.578229 0.153433
H94   H     H_    0.249768 0.777845 0.766167 0.155730
H95   H     H_    0.747474 0.723029 0.765217 0.156012
H96   H     H_    0.574990 0.708909 0.745720 0.167385
H97   H     H_    0.439790 0.126494 0.593064 0.151702
H98   H     H_    0.252526 0.723033 0.234783 0.156012
H99   H     H_    0.560049 0.126554 0.406767 0.151699
H100  H     H_    0.040819 0.332859 0.348106 0.140425
H101  H     H_    0.742036 0.723930 0.263178 0.129154
H102  H     H_    0.959287 0.332760 0.652066 0.140436
H103  H     H_    0.257962 0.723939 0.736823 0.129157
H104  H     H_    0.761582 0.776463 0.738349 0.128936
H105  H     H_    0.452107 0.168389 0.666359 0.143293
H106  H     H_    0.238413 0.776466 0.261651 0.128932
H107  H     H_    0.435906 0.285633 0.254215 0.164785
H108  H     H_    0.547708 0.168488 0.333537 0.143279
H109  H     H_    0.108646 0.287706 0.375940 0.133075
H110  H     H_    0.742169 0.713648 0.359801 0.129761
H111  H     H_    0.891393 0.287630 0.624143 0.133115
H112  H     H_    0.257831 0.713653 0.640203 0.129761
H113  H     H_    0.762711 0.786296 0.642237 0.129121
H114  H     H_    0.380505 0.212237 0.630871 0.134706
H115  H     H_    0.237285 0.786297 0.357763 0.129115
H116  H     H_    0.619358 0.212312 0.369058 0.134679
H117  H     H_    0.275854 0.309571 0.586270 0.070253
H118  H     H_    0.161139 0.375255 0.523856 0.169581
H119  H     H_    0.759878 0.816005 0.452403 0.080042
H120  H     H_    0.724216 0.309613 0.413857 0.070273
H121  H     H_    0.240117 0.816007 0.547585 0.080041
H122  H     H_    0.734659 0.684251 0.545355 0.080776
H123  H     H_    0.237462 0.191582 0.410997 0.075628
H124  H     H_    0.265348 0.684250 0.454646 0.080774
H125  H     H_    0.762525 0.191538 0.588856 0.075593
H126  H     H_    0.329775 0.307912 0.466042 0.080713
H127  H     H_    0.600239 0.774428 0.388842 0.049602
H128  H     H_    0.670259 0.307913 0.533980 0.080697
N1    N     N_R   0.733740 0.269326 0.030908 -0.173220
N2    N     N_R   0.291137 0.727700 0.030979 -0.172271
N3    N     N_R   0.297254 0.269291 0.030982 -0.173350
N4    N     N_R   0.708871 0.727697 0.969022 -0.172272
N5    N     N_R   0.208891 0.772347 0.969013 -0.172262
N6    N     N_R   0.797555 0.230951 0.030971 -0.172502
N7    N     N_R   0.791101 0.772350 0.030986 -0.172263
N8    N     N_R   0.202445 0.230951 0.969030 -0.172504
N9    N     N_R   0.050520 0.484485 0.539995 -0.171371
N10   N     N_R   0.949467 0.515422 0.460037 -0.171699
N11   N     N_R   0.949470 0.484485 0.460029 -0.171366
N12   N     N_R   0.260250 0.727713 0.969081 -0.172876
N13   N     N_R   0.050525 0.515422 0.539984 -0.171701
N14   N     N_R   0.549769 0.984586 0.541677 -0.171680
N15   N     N_R   0.450248 0.015524 0.458291 -0.171240
N16   N     N_R   0.450238 0.984586 0.458310 -0.171681
N17   N     N_R   0.549760 0.015523 0.541694 -0.171236
N18   N     N_R   0.951627 0.015465 0.492596 -0.170931
N19   N     N_R   0.048357 0.984533 0.507397 -0.170912
N20   N     N_R   0.048358 0.015466 0.507400 -0.170942
N21   N     N_R   0.951629 0.984533 0.492598 -0.170904
N22   N     N_R   0.488194 0.515410 0.539109 -0.166594
N23   N     N_R   0.266260 0.269326 0.969091 -0.173221
N24   N     N_R   0.511474 0.484483 0.460647 -0.165510
N25   N     N_R   0.511807 0.515411 0.460892 -0.166594
N26   N     N_R   0.488528 0.484482 0.539353 -0.165507
N27   N     N_R   0.739758 0.727710 0.030920 -0.172876
N28   N     N_R   0.239774 0.772332 0.030911 -0.172866
N29   N     N_R   0.766559 0.230914 0.969080 -0.172382
N30   N     N_R   0.760218 0.772335 0.969088 -0.172866
N31   N     N_R   0.233441 0.230914 0.030920 -0.172381
N32   N     N_R   0.702746 0.269291 0.969017 -0.173349
O1    O     O_3   0.000000 0.250010 0.500000 -0.474504
O2    O     O_R   0.487810 0.319320 0.536380 -0.643321
O3    O     O_R   0.487810 0.680680 0.536380 -0.640473
O4    O     O_R   0.512190 0.319320 0.463620 -0.643324
O5    O     O_R   0.951470 0.319330 0.463670 -0.639603
O6    O     O_R   0.048530 0.680670 0.536330 -0.646565
O7    O     O_R   0.048530 0.319330 0.536330 -0.639597
O8    O     O_R   0.951470 0.680670 0.463670 -0.646564
O9    O     O_R   0.451470 0.819330 0.463670 -0.646534
O10   O     O_R   0.548530 0.180670 0.536330 -0.639031
O11   O     O_R   0.548530 0.819330 0.536330 -0.646534
O12   O     O_3   0.000000 0.749990 0.500000 -0.473711
O13   O     O_R   0.451470 0.180670 0.463670 -0.638995
O14   O     O_R   0.902360 0.231840 0.536340 -0.641036
O15   O     O_R   0.097640 0.768160 0.463660 -0.641710
O16   O     O_R   0.097640 0.231840 0.463660 -0.640899
O17   O     O_R   0.902360 0.768160 0.536340 -0.641705
O18   O     O_R   0.402360 0.731840 0.536340 -0.642283
O19   O     O_R   0.597640 0.268160 0.463660 -0.649752
O20   O     O_R   0.597640 0.731840 0.463660 -0.642278
O21   O     O_R   0.402360 0.268160 0.536340 -0.649752
O22   O     O_R   0.133980 0.268190 0.536340 -0.641559
O23   O     O_3   0.500000 0.750010 0.500000 -0.473415
O24   O     O_R   0.866020 0.731810 0.463660 -0.640648
O25   O     O_R   0.866020 0.268190 0.463660 -0.641494
O26   O     O_R   0.133980 0.731810 0.536340 -0.640645
O27   O     O_R   0.633980 0.768190 0.536340 -0.639043
O28   O     O_R   0.366020 0.231810 0.463660 -0.641974
O29   O     O_R   0.366020 0.768190 0.463660 -0.639042
O30   O     O_R   0.633980 0.231810 0.536340 -0.641940
O31   O     O_R   0.038940 0.231840 0.638630 -0.642158
O32   O     O_R   0.961060 0.768160 0.361370 -0.640690
O33   O     O_R   0.961060 0.231840 0.361370 -0.642153
O34   O     O_3   0.500000 0.249990 0.500000 -0.473244
O35   O     O_R   0.038940 0.768160 0.638630 -0.640686
O36   O     O_R   0.538940 0.731840 0.638630 -0.641365
O37   O     O_R   0.461060 0.268160 0.361370 -0.644604
O38   O     O_R   0.461060 0.731840 0.361370 -0.641363
O39   O     O_R   0.538940 0.268160 0.638630 -0.644592
O40   O     O_R   0.099660 0.268190 0.638640 -0.644481
O41   O     O_R   0.900340 0.731810 0.361360 -0.645044
O42   O     O_R   0.900340 0.268190 0.361360 -0.644484
O43   O     O_R   0.099660 0.731810 0.638640 -0.645046
O44   O     O_R   0.599660 0.768190 0.638640 -0.644202
O45   O     O_R   0.012190 0.180680 0.463620 -0.640569
O46   O     O_R   0.400340 0.231810 0.361360 -0.641405
O47   O     O_R   0.400340 0.768190 0.361360 -0.644202
O48   O     O_R   0.599660 0.231810 0.638640 -0.641421
O49   O     O_2   0.258939 0.351004 0.608312 -0.567953
O50   O     O_2   0.752492 0.846459 0.389589 -0.571857
O51   O     O_2   0.741192 0.351053 0.391899 -0.567954
O52   O     O_2   0.247503 0.846462 0.610394 -0.571864
O53   O     O_2   0.732900 0.654044 0.603998 -0.570803
O54   O     O_2   0.264364 0.152323 0.391496 -0.578586
O55   O     O_2   0.267107 0.654045 0.396001 -0.570805
O56   O     O_R   0.987810 0.819320 0.536380 -0.638850
O57   O     O_2   0.735679 0.152242 0.608277 -0.578523
O58   O     O_2   0.247847 0.325331 0.425210 -0.554993
O59   O     O_2   0.626087 0.755971 0.334116 -0.558349
O60   O     O_2   0.752246 0.325269 0.574987 -0.554957
O61   O     O_2   0.373910 0.755980 0.665883 -0.558352
O62   O     O_2   0.873698 0.742738 0.665842 -0.559731
O63   O     O_2   0.230571 0.168508 0.537197 -0.576513
O64   O     O_2   0.126305 0.742726 0.334163 -0.559757
O65   O     O_2   0.769008 0.168546 0.462162 -0.576302
O66   O     O_R   0.987810 0.180680 0.536380 -0.640610
O67   O     O_R   0.012190 0.819320 0.463620 -0.638852
O68   O     O_R   0.512190 0.680680 0.463620 -0.640469
Zn1   Zn    Zn3+2 0.930660 0.275970 0.448070 0.976005
Zn2   Zn    Zn3+2 0.017430 0.775960 0.448080 0.976170
Zn3   Zn    Zn3+2 0.017430 0.224040 0.448080 0.968409
Zn4   Zn    Zn3+2 0.982570 0.775960 0.551920 0.976174
Zn5   Zn    Zn3+2 0.482570 0.724040 0.551920 0.975884
Zn6   Zn    Zn3+2 0.517430 0.275960 0.448080 0.962635
Zn7   Zn    Zn3+2 0.517430 0.724040 0.448080 0.975887
Zn8   Zn    Zn3+2 0.482570 0.275960 0.551920 0.962660
Zn9   Zn    Zn3+2 0.069340 0.724030 0.551930 0.964065
Zn10  Zn    Zn3+2 0.069340 0.275970 0.551930 0.975975
Zn11  Zn    Zn3+2 0.930660 0.724030 0.448070 0.964065
Zn12  Zn    Zn3+2 0.430660 0.775970 0.448070 0.966304
Zn13  Zn    Zn3+2 0.569340 0.224030 0.551930 0.984915
Zn14  Zn    Zn3+2 0.569340 0.775970 0.551930 0.966303
Zn15  Zn    Zn3+2 0.430660 0.224030 0.448070 0.984940
Zn16  Zn    Zn3+2 0.982570 0.224040 0.551920 0.968295

loop_
_geom_bond_atom_site_label_1
_geom_bond_atom_site_label_2
_ccdc_geom_bond_type
C149  H33   S    
C133  O59   D    
C26   C196  S    
C204  O5    A    
C127  O52   D    
C167  O2    A    
O4    Zn6   S    
O1    Zn1   S    
C184  H106  S    
C190  C198  A    
C121  H71   S    
C161  H88   S    
C122  H72   S    
C101  N27   A    
C62   O30   A    
C92   H51   S    
C54   C156  S    
C108  H59   S    
N22   N26   A    
C56   O14   A    
C184  C193  A    
O42   Zn1   S    
C175  N13   A    
C130  O55   D    
C41   H40   S    
C129  C214  S    
C32   C52   A    
C177  C226  A    
O10   Zn13  S    
C38   C55   A    
C142  H14   S    
C133  H127  S    
C208  C217  A    
C160  C166  A    
C4    C12   A    
C88   C97   A    
C39   H38   S    
O12   Zn2   S    
C217  C226  A    
C72   O33   A    
C129  H123  S    
C68   N30   A    
C100  C109  A    
C111  H62   S    
C140  O65   D    
C183  C192  A    
O56   Zn4   S    
C206  O11   A    
C148  H28   S    
C46   N2    A    
C19   C58   S    
C110  H61   S    
C11   C20   A    
C187  H110  S    
C105  H56   S    
C150  C159  A    
C21   C201  S    
C22   C199  S    
C170  C205  S    
C106  H57   S    
C229  H94   S    
C193  H115  S    
C212  C220  A    
C82   C91   A    
C64   O21   A    
C11   C140  S    
C134  H128  S    
C183  H105  S    
C9    C138  S    
C154  C163  A    
C131  H125  S    
O20   Zn7   S    
O39   Zn8   S    
C171  C206  S    
C159  H86   S    
C218  H2    S    
N1    N32   A    
C44   H44   S    
C63   O20   A    
C34   C54   A    
C71   C211  S    
C125  H119  S    
O32   Zn2   S    
C145  H22   S    
C36   C44   A    
N8    N31   A    
C37   C45   A    
C204  O7    A    
O31   Zn16  S    
C77   O48   A    
C128  O53   D    
O1    Zn3   S    
C16   C25   A    
C57   C104  S    
C70   C200  S    
O23   Zn12  S    
C143  H17   S    
C215  C224  A    
C57   N3    A    
C79   C97   S    
O19   Zn6   S    
C8    C17   A    
O8    Zn11  S    
N15   N16   A    
O18   Zn5   S    
C117  H67   S    
C141  H10   S    
C118  H68   S    
C115  H65   S    
C66   N25   A    
C191  H113  S    
C147  H26   S    
C174  N16   A    
C77   O39   A    
C36   C55   A    
C132  O58   D    
C9    C21   A    
C150  C170  A    
C45   C50   A    
C142  H12   S    
O1    Zn16  S    
C11   C23   A    
C84   C93   A    
O15   Zn2   S    
C201  C214  A    
C86   C95   A    
O12   Zn4   S    
C42   H42   S    
C65   N24   A    
C179  C187  A    
C80   C88   A    
C13   C85   A    
O11   Zn14  S    
C205  O6    A    
C206  O9    A    
C148  H30   S    
O35   Zn4   S    
C56   O25   A    
C149  H31   S    
C232  H98   S    
C125  O50   D    
O26   Zn9   S    
C78   C87   A    
C136  H3    S    
C135  C157  A    
C112  O56   A    
O16   Zn3   S    
O44   Zn14  S    
C68   C103  S    
C72   C178  S    
C207  O13   A    
C35   C102  S    
O12   Zn9   S    
C81   C200  A    
N10   N11   A    
C4    C132  S    
C58   O15   A    
C5    C133  S    
C99   C108  A    
C78   H1    S    
C136  O61   D    
C30   C141  S    
C220  C229  A    
C91   H50   S    
C33   C42   A    
C152  C172  A    
C154  H81   S    
C40   C49   A    
C156  O68   A    
C151  C171  A    
C143  H16   S    
C135  C170  A    
N4    N27   A    
C182  C230  A    
C195  C208  A    
C60   O24   A    
C35   N32   A    
C175  N10   A    
C8    C22   A    
C32   C41   A    
C219  C228  A    
C198  C212  A    
C152  C161  A    
C87   C96   A    
C181  C190  A    
O25   Zn1   S    
C3    C185  A    
C126  H120  S    
C137  O62   D    
C174  N14   A    
C157  C165  A    
C35   N29   A    
C125  C209  S    
C68   N4    A    
C112  O67   A    
O24   Zn11  S    
C113  N8    A    
C119  H69   S    
C210  C219  A    
C159  C165  A    
C118  C211  A    
N14   N17   A    
O17   Zn4   S    
C13   C121  A    
C173  N15   A    
C205  O8    A    
C19   C28   A    
C180  H102  S    
C10   C25   A    
C126  O51   D    
C144  H19   S    
C182  H104  S    
C67   N21   A    
O47   Zn12  S    
C101  N7    A    
C16   C61   S    
O12   Zn11  S    
C183  C231  A    
C4    C27   A    
C53   C112  S    
C128  H122  S    
C30   C52   A    
C60   O17   A    
C194  H116  S    
C38   C149  S    
C199  C213  A    
C105  C115  A    
C172  C207  S    
C34   C43   A    
O6    Zn9   S    
O33   Zn3   S    
C43   C50   A    
C90   C96   S    
C146  C158  A    
C192  H114  S    
C73   O35   A    
C74   O36   A    
O23   Zn5   S    
C89   C98   A    
C14   C22   A    
C163  C168  A    
N3    N23   A    
C7    C136  S    
C79   N12   A    
C228  H93   S    
C169  C204  S    
C93   H53   S    
C95   H55   S    
C1    O66   A    
C220  H24   S    
C80   H41   S    
C123  C208  S    
C179  C227  A    
C214  C223  A    
C17   C60   S    
O27   Zn14  S    
C127  C212  S    
O34   Zn8   S    
O21   Zn8   S    
C124  C155  A    
C1    O45   A    
N6    N29   A    
C91   C99   A    
C24   C86   A    
C227  H92   S    
C109  H60   S    
C155  H82   S    
C96   C105  A    
C114  H64   S    
C187  C196  A    
C80   C189  A    
O41   Zn11  S    
C2    C84   A    
O37   Zn6   S    
C55   C167  S    
C185  C194  A    
C129  O54   D    
N19   N20   A    
O3    Zn5   S    
O45   Zn3   S    
C207  O10   A    
C71   O32   A    
C43   H43   S    
C90   N6    A    
C58   O26   A    
C31   C40   A    
C138  H5    S    
C103  C111  A    
C51   C65   S    
O66   Zn16  S    
C197  C210  A    
C180  C188  A    
C162  C166  A    
C213  C221  A    
C124  C169  A    
C67   N19   A    
C192  C201  A    
C113  N23   A    
C202  C215  A    
C85   H96   S    
C107  H58   S    
C20   C56   S    
C81   C89   A    
C71   O41   A    
C146  H76   S    
C33   C144  S    
C70   O31   A    
C139  H6    S    
C145  H21   S    
C120  H70   S    
C181  H103  S    
C223  C231  A    
O22   Zn10  S    
C166  C174  S    
C73   O43   A    
C203  C216  A    
C74   O44   A    
C177  C186  A    
C98   C113  S    
C47   C51   A    
C83   H74   S    
C70   O40   A    
C180  C228  A    
C140  H7    S    
C28   C198  S    
C193  C202  A    
C157  H83   S    
C106  C116  A    
C8    C137  S    
C158  H84   S    
C147  H25   S    
C224  H36   S    
C95   C104  A    
O9    Zn12  S    
C36   C147  S    
O34   Zn6   S    
C10   C19   A    
C64   O28   A    
O23   Zn14  S    
N5    N28   A    
C24   C122  A    
C130  H124  S    
C130  C215  S    
C87   H47   S    
C137  H4    S    
C63   O27   A    
C88   H48   S    
C225  H37   S    
C5    C14   A    
C117  C200  A    
N9    N13   A    
C97   C106  A    
C7    C16   A    
C188  H111  S    
C94   C103  A    
C141  H8    S    
C59   O22   A    
C102  C110  A    
C27   C195  S    
C10   C139  S    
C17   C26   A    
C218  C227  A    
C109  C119  A    
O34   Zn15  S    
C144  H18   S    
C131  C216  S    
C78   C178  A    
C93   C102  A    
C179  H101  S    
C24   C75   S    
C162  H89   S    
C3    H99   S    
C89   H49   S    
C216  C225  A    
C153  C162  A    
C138  O63   D    
N18   N21   A    
C134  O60   D    
C185  H108  S    
O43   Zn9   S    
C2    C77   S    
C123  H117  S    
C131  O57   D    
C188  C197  A    
C12   C64   S    
C14   C63   S    
O2    Zn8   S    
C15   C62   S    
C143  H15   S    
C164  C176  S    
C37   C148  S    
C1    C52   S    
C141  H9    S    
C115  C178  A    
C79   N5    A    
C5    C26   A    
C6    C29   A    
C13   C74   S    
C139  O64   D    
C145  H23   S    
C2    C120  A    
C107  C117  A    
C73   C189  S    
C39   C48   A    
C123  O49   D    
C231  H97   S    
C44   C51   A    
O1    Zn10  S    
C111  C121  A    
C48   C69   S    
N24   N25   A    
C135  H75   S    
C94   H54   S    
C86   H107  S    
C83   C92   A    
C156  O3    A    
C209  C218  A    
C25   C202  S    
C191  C199  A    
C224  C232  A    
C34   C145  S    
C75   O37   A    
C142  H11   S    
O13   Zn15  S    
C32   C143  S    
C221  H34   S    
O29   Zn12  S    
C7    C28   A    
C6    C15   A    
C83   C222  A    
C90   N1    A    
C181  C229  A    
C176  N9    A    
C30   C39   A    
C219  H13   S    
C148  H29   S    
C3    C225  A    
C149  H32   S    
C223  H35   S    
C47   H46   S    
C158  C164  A    
C128  C213  S    
O34   Zn13  S    
C15   C23   A    
C82   H63   S    
C144  H20   S    
C116  H66   S    
O46   Zn15  S    
C230  H95   S    
C152  H79   S    
C147  H27   S    
C124  H73   S    
C81   H52   S    
C69   N18   A    
C226  H91   S    
C61   O29   A    
C20   C29   A    
C33   C53   A    
C168  C173  S    
O67   Zn2   S    
N2    N12   A    
O38   Zn7   S    
C108  C118  A    
C186  C195  A    
C184  C232  A    
O36   Zn5   S    
C126  C210  S    
C110  C120  A    
C217  H118  S    
C167  O4    A    
C57   N31   A    
C76   C222  S    
C75   O46   A    
C12   C21   A    
C119  C222  A    
C23   C203  S    
C132  H126  S    
C221  C230  A    
C85   C94   A    
C9    C18   A    
C72   O42   A    
C61   O18   A    
C153  C171  A    
C65   N26   A    
C154  C172  A    
C59   O16   A    
C31   C53   A    
C50   C66   S    
O30   Zn13  S    
C38   C47   A    
C18   C59   S    
C104  C114  A    
C37   C54   A    
O28   Zn15  S    
O48   Zn13  S    
C150  H77   S    
C29   C197  S    
O7    Zn10  S    
C46   N28   A    
O40   Zn10  S    
C146  C169  A    
C173  N17   A    
C196  C209  A    
C62   O19   A    
C92   C100  A    
C116  C189  A    
C82   C211  A    
C40   H39   S    
C127  H121  S    
C46   C100  S    
C49   C67   S    
C163  H90   S    
C99   C101  S    
C190  H112  S    
C18   C27   A    
C153  H80   S    
N7    N30   A    
C155  C164  A    
C165  C175  S    
C76   O47   A    
C45   H45   S    
C151  C160  A    
C31   C142  S    
C177  H100  S    
C84   H85   S    
C6    C134  S    
C176  N11   A    
C194  C203  A    
O68   Zn7   S    
C76   O38   A    
C41   C48   A    
O23   Zn7   S    
O5    Zn1   S    
C161  C168  A    
C42   C49   A    
C114  C122  A    
C186  H109  S    
C151  H78   S    
C182  C191  A    
O14   Zn16  S    
C69   N20   A    
C66   N22   A    
C160  H87   S    
C98   C107  A    
