data_mof_unit_17540.cif
_audit_creation_date              2013-03-05T16:47:55-0500
_audit_creation_method            fapswitch 2.2
_symmetry_space_group_name_H-M    P1
_symmetry_Int_Tables_number       1
_space_group_crystal_system       triclinic
_cell_length_a                    8.101528
_cell_length_b                    8.934884
_cell_length_c                    16.877523
_cell_angle_alpha                 90.008757
_cell_angle_beta                  85.525104
_cell_angle_gamma                 89.994668
_cell_volume                      1217.97573992

loop_
_atom_site_label
_atom_site_type_symbol
_atom_site_description
_atom_site_fract_x
_atom_site_fract_y
_atom_site_fract_z
_atom_type_partial_charge
O1    O     O_R   0.363150 0.714660 0.500000 -0.612490
O2    O     O_R   0.636850 0.285340 0.500000 -0.612498
O3    O     O_R   0.636850 0.714660 0.500000 -0.615524
O4    O     O_R   0.363150 0.285340 0.500000 -0.615547
C1    C     C_R   0.499998 0.782040 0.499984 0.941451
C2    C     C_R   0.500001 0.217960 0.500016 0.941425
O5    O     O_R   0.346950 0.500000 0.615800 -0.622574
O6    O     O_R   0.653050 0.500000 0.384200 -0.622549
O7    O     O_R   0.620700 0.500000 0.615800 -0.622245
O8    O     O_R   0.379300 0.500000 0.384200 -0.622248
C3    C     C_R   0.477847 0.505420 0.653254 0.872520
C4    C     C_R   0.522152 0.494530 0.346749 0.872495
Zn1   Zn    Zn3+2 0.317220 0.500000 0.500010 0.984510
Zn2   Zn    Zn3+2 0.682780 0.500000 0.499990 0.984529
N1    N     N_1   0.926360 0.500000 0.499990 -0.037318
N2    N     N_1   0.073640 0.500000 0.500010 -0.037322
C5    C     C_R   0.465645 0.531931 0.738235 -0.076858
C6    C     C_R   0.534342 0.467657 0.261800 -0.076823
C7    C     C_R   0.602683 0.590823 0.773270 -0.204718
C8    C     C_R   0.397362 0.408407 0.226859 -0.204715
C9    C     C_R   0.594915 0.614012 0.854308 -0.232852
C10   C     C_R   0.405129 0.384780 0.145856 -0.232856
C11   C     C_R   0.451428 0.575873 0.901021 0.183368
C12   C     C_R   0.548551 0.422848 0.099079 0.183371
C13   C     C_R   0.308910 0.525354 0.866310 0.222524
C14   C     C_R   0.691041 0.473671 0.133712 0.222538
C15   C     C_R   0.317074 0.504641 0.784145 -0.207274
C16   C     C_R   0.682882 0.494819 0.215846 -0.207325
C17   C     C_2   0.464901 0.561963 0.985998 0.140447
C18   C     C_2   0.534920 0.436658 0.014108 0.140396
C19   C     C_1   0.499995 0.934820 0.499996 -0.194141
C20   C     C_1   0.500005 0.065180 0.500004 -0.194121
C21   C     C_3   0.152387 0.487357 0.916297 -0.955937
H1    H     H_    0.052500 0.449858 0.879361 0.240126
H2    H     H_    0.176827 0.396132 0.958494 0.246739
H3    H     H_    0.107711 0.587792 0.950241 0.256677
C22   C     C_3   0.847507 0.511572 0.083661 -0.955960
H4    H     H_    0.947379 0.549333 0.120537 0.240129
H5    H     H_    0.892253 0.411018 0.049841 0.256663
H6    H     H_    0.822969 0.602576 0.041349 0.246720
H7    H     H_    0.295678 0.346394 0.118792 0.151570
H8    H     H_    0.704381 0.652179 0.881434 0.151535
H9    H     H_    0.716969 0.616565 0.738267 0.170084
H10   H     H_    0.283112 0.382728 0.261905 0.170099
H11   H     H_    0.789798 0.537207 0.243512 0.159862
H12   H     H_    0.210129 0.462500 0.756414 0.159890
C23   C     C_3   0.596834 0.308409 0.961369 -0.933216
H13   H     H_    0.643369 0.215453 0.997260 0.244069
H14   H     H_    0.494807 0.264275 0.927790 0.250299
H15   H     H_    0.700267 0.346464 0.919178 0.250941
C24   C     C_3   0.402952 0.690201 0.038740 -0.933160
H16   H     H_    0.356443 0.783170 0.002850 0.244053
H17   H     H_    0.299487 0.652136 0.080911 0.250919
H18   H     H_    0.504946 0.734333 0.072342 0.250324

loop_
_geom_bond_atom_site_label_1
_geom_bond_atom_site_label_2
_geom_bond_distance
_ccdc_geom_bond_type
C2    C20   1.365065 S    
O7    Zn2   1.979889 S    
C14   C22   1.506048 S    
C17   C18   1.357344 D    
C13   C15   1.395455 A    
C14   C16   1.395462 A    
C19   C20   1.164755 T    
O6    C4    1.277158 A    
C24   H18   1.110408 S    
C11   C13   1.409132 A    
C21   H1    1.111050 S    
C24   H16   1.111126 S    
C22   H5    1.109910 S    
O5    C3    1.277155 A    
O7    C3    1.275604 A    
C12   C14   1.409183 A    
O2    C2    1.261627 A    
O3    Zn2   1.953688 S    
O8    C4    1.275593 A    
O1    C1    1.261626 A    
C11   C17   1.452156 S    
C15   H12   1.083879 S    
C23   H14   1.110404 S    
C21   H2    1.110380 S    
C22   H4    1.111046 S    
C8    C10   1.379867 A    
C8    H10   1.083459 S    
C23   H15   1.109903 S    
C6    C8    1.400607 A    
C9    C11   1.395043 A    
O2    Zn2   1.953757 S    
C10   C12   1.395014 A    
C16   H11   1.083900 S    
C10   H7    1.084328 S    
O1    Zn1   1.953756 S    
C12   C18   1.452180 S    
C22   H6    1.110380 S    
C5    C15   1.401142 A    
C23   H13   1.111131 S    
O3    C1    1.261587 A    
C18   C23   1.512230 S    
O5    Zn1   1.987599 S    
C21   H3    1.109917 S    
C6    C16   1.401095 A    
C24   H17   1.109908 S    
O4    C2    1.261586 A    
C17   C24   1.512276 S    
Zn1   N2    1.973370 S    
C4    C6    1.449404 S    
O4    Zn1   1.953689 S    
Zn2   N1    1.973370 S    
C5    C7    1.400556 A    
O6    Zn2   1.987599 S    
C9    H8    1.084316 S    
C7    C9    1.379863 A    
C3    C5    1.449400 S    
N1    N2    1.193219 T    
C13   C21   1.506071 S    
C1    C19   1.365066 S    
O8    Zn1   1.979889 S    
C7    H9    1.083473 S    
