data_mof_unit_32621.cif
_audit_creation_date              2012-12-10T17:27:10-0500
_audit_creation_method            fapswitch 2.2
_symmetry_space_group_name_H-M    P1
_symmetry_Int_Tables_number       1
_space_group_crystal_system       triclinic
_cell_length_a                    18.067187
_cell_length_b                    18.307751
_cell_length_c                    12.113531
_cell_angle_alpha                 90.211304
_cell_angle_beta                  83.671595
_cell_angle_gamma                 90.003462
_cell_volume                      3982.34437225

loop_
_atom_site_label
_atom_site_type_symbol
_atom_type_description
_atom_site_fract_x
_atom_site_fract_y
_atom_site_fract_z
_atom_type_partial_charge
C1    C     C_R   0.400624 0.100348 0.523107 0.968034
C2    C     C_R   0.535954 0.998256 0.017509 -0.200423
C3    C     C_R   0.964268 0.496381 0.982461 -0.194370
C4    C     C_R   0.035932 0.501380 0.017456 -0.191069
C5    C     C_R   0.588808 0.994856 0.822060 0.400253
C6    C     C_R   0.411153 0.004428 0.178062 0.387562
C7    C     C_R   0.088957 0.502542 0.822036 0.371688
C8    C     C_R   0.911284 0.493918 0.177838 0.387945
C9    C     C_R   0.599163 0.996685 0.936473 0.343436
C10   C     C_R   0.401343 0.009763 0.063710 0.331054
C11   C     C_R   0.099174 0.500931 0.936561 0.332913
C12   C     C_R   0.598298 0.898477 0.477468 0.966969
C13   C     C_R   0.901523 0.489304 0.063323 0.334176
C14   C     C_R   0.457333 0.004238 0.867215 0.504541
C15   C     C_R   0.542829 0.997180 0.132941 0.536881
C16   C     C_R   0.957250 0.496493 0.867071 0.537140
C17   C     C_R   0.042745 0.503489 0.132905 0.488146
C18   C     C_R   0.654041 0.158166 0.462623 -0.271336
C19   C     C_R   0.350403 0.838860 0.534730 -0.199767
C20   C     C_R   0.344442 0.155552 0.541027 -0.285257
C21   C     C_R   0.649094 0.837987 0.463865 -0.271547
C22   C     C_R   0.146566 0.663911 0.465849 -0.283684
C23   C     C_R   0.599409 0.100699 0.477345 0.889416
C24   C     C_R   0.848145 0.341200 0.537945 -0.363961
C25   C     C_R   0.847522 0.659797 0.537905 -0.275464
C26   C     C_R   0.155111 0.341859 0.461679 -0.323354
C27   C     C_R   0.335892 0.708171 0.542700 0.441557
C28   C     C_R   0.681485 0.282366 0.406445 0.482246
C29   C     C_R   0.667535 0.708834 0.432853 0.436291
C30   C     C_R   0.227279 0.196203 0.635616 0.474625
C31   C     C_R   0.821891 0.216609 0.590933 0.585872
C32   C     C_R   0.161115 0.794805 0.462379 0.556617
C33   C     C_R   0.271365 0.297714 0.367773 0.580933
C34   C     C_R   0.401246 0.899034 0.522267 1.070426
C35   C     C_R   0.814632 0.782695 0.598199 0.581909
C36   C     C_R   0.377229 0.770705 0.562787 0.292411
C37   C     C_R   0.641626 0.217607 0.394707 0.262214
C38   C     C_R   0.625452 0.772146 0.420927 0.345498
C39   C     C_R   0.285681 0.145559 0.624896 0.300925
C40   C     C_R   0.866449 0.277775 0.593914 0.264323
C41   C     C_R   0.118414 0.733708 0.444555 0.265931
C42   C     C_R   0.208862 0.341759 0.368363 0.240547
C43   C     C_R   0.861317 0.722231 0.601057 0.258934
C44   C     C_R   0.281637 0.847355 0.494659 0.342082
C45   C     C_R   0.901014 0.601181 0.522752 0.916404
C46   C     C_R   0.713391 0.157290 0.528273 0.369885
C47   C     C_R   0.714636 0.843112 0.514821 0.396964
C48   C     C_R   0.345007 0.212818 0.464740 0.363861
C49   C     C_R   0.783533 0.345694 0.483821 0.434619
C50   C     C_R   0.216690 0.654872 0.502166 0.404707
C51   C     C_R   0.159887 0.292896 0.549276 0.388757
C52   C     C_R   0.784508 0.654862 0.480565 0.388556
C53   C     C_R   0.234940 0.786540 0.489191 -0.273322
C54   C     C_R   0.758698 0.218532 0.531417 -0.244463
C55   C     C_R   0.754480 0.780077 0.533039 -0.190256
C56   C     C_R   0.099170 0.398683 0.477129 0.992205
C57   C     C_R   0.279953 0.252890 0.460204 -0.218733
C58   C     C_R   0.740972 0.282767 0.473669 -0.187576
C59   C     C_R   0.262796 0.715890 0.511530 -0.217529
C60   C     C_R   0.221807 0.247192 0.549107 -0.210112
C61   C     C_R   0.735145 0.713892 0.482144 -0.254954
C62   C     C_3   0.894558 0.114973 0.570761 -0.145011
C63   C     C_3   0.098027 0.883772 0.563783 -0.184947
C64   C     C_3   0.305768 0.245651 0.199710 -0.154860
C65   C     C_3   0.888327 0.881565 0.628873 -0.102186
C66   C     C_3   0.402734 0.619496 0.446002 -0.211693
C67   C     C_R   0.097449 0.602163 0.478079 0.957642
C68   C     C_3   0.602520 0.379046 0.407980 -0.193628
C69   C     C_3   0.602052 0.608194 0.493362 -0.224847
C70   C     C_3   0.200550 0.221262 0.819573 -0.290060
C71   C     C_R   0.900842 0.399552 0.522684 0.881614
C72   C     C_R   0.464257 0.003646 0.982642 -0.195288
H1    H     H_    0.307699 0.983218 0.228240 0.327741
H2    H     H_    0.245710 0.908835 0.383871 0.378222
H3    H     H_    0.452506 0.213246 0.426455 0.344328
H4    H     H_    0.731597 0.944668 0.482797 0.294922
H5    H     H_    0.251179 0.589454 0.608542 0.378524
H6    H     H_    0.779218 0.452003 0.482874 0.360596
H7    H     H_    0.765586 0.608744 0.344251 0.380852
H8    H     H_    0.121300 0.316504 0.697441 0.367297
H9    H     H_    0.592249 0.253515 0.269699 0.382711
H10   H     H_    0.455124 0.716700 0.627166 0.367021
H11   H     H_    0.235837 0.078206 0.734051 0.381557
H12   H     H_    0.687542 0.958790 0.770335 0.368043
H13   H     H_    0.554620 0.723598 0.334427 0.364136
H14   H     H_    0.022725 0.699602 0.400456 0.335527
H15   H     H_    0.970305 0.297866 0.604548 0.366667
H16   H     H_    0.964117 0.702342 0.623476 0.341477
H17   H     H_    0.156759 0.374079 0.249034 0.347551
H18   H     H_    0.945629 0.147497 0.545699 0.162513
H19   H     H_    0.869353 0.096393 0.495710 0.134130
H20   H     H_    0.912051 0.065796 0.614186 0.172417
H21   H     H_    0.142743 0.895190 0.617624 0.183043
H22   H     H_    0.059459 0.841581 0.603105 0.147254
H23   H     H_    0.806273 0.507943 0.227981 0.351701
H24   H     H_    0.065622 0.934796 0.557772 0.174008
H25   H     H_    0.251066 0.257251 0.169267 0.129748
H26   H     H_    0.305596 0.189982 0.236486 0.158320
H27   H     H_    0.348665 0.246156 0.126775 0.191822
H28   H     H_    0.904080 0.877682 0.537327 0.136502
H29   H     H_    0.935080 0.863573 0.674196 0.177002
H30   H     H_    0.878394 0.940048 0.649166 0.178213
H31   H     H_    0.446735 0.658997 0.414679 0.163547
H32   H     H_    0.361393 0.613652 0.384911 0.204586
H33   H     H_    0.429700 0.565563 0.453260 0.186119
H34   H     H_    0.189965 0.531914 0.770830 0.326295
H35   H     H_    0.614556 0.394875 0.493035 0.161497
H36   H     H_    0.551653 0.344459 0.412973 0.161674
H37   H     H_    0.590559 0.429828 0.363546 0.201350
H38   H     H_    0.555513 0.642786 0.531784 0.160546
H39   H     H_    0.640192 0.594216 0.556227 0.193019
H40   H     H_    0.577679 0.556463 0.466118 0.174103
H41   H     H_    0.221074 0.278135 0.804520 0.144262
H42   H     H_    0.245553 0.186820 0.847550 0.191888
H43   H     H_    0.154651 0.223402 0.888327 0.207041
H44   H     H_    0.703462 0.024881 0.912713 0.355968
H45   H     H_    0.609589 0.000057 0.246573 0.370569
H46   H     H_    0.302882 0.053491 0.087758 0.322164
H47   H     H_    0.201607 0.466989 0.914577 0.330437
H48   H     H_    0.805335 0.441288 0.083476 0.349895
H49   H     H_    0.390796 0.998744 0.753917 0.397560
H50   H     H_    0.109566 0.500929 0.246020 0.391304
H51   H     H_    0.890550 0.501063 0.753413 0.378142
H52   H     H_    0.715021 0.053170 0.551794 0.347299
N1    N     N_R   0.480750 0.000000 0.209750 -0.197288
N2    N     N_R   0.519250 1.000000 0.790250 -0.208509
N3    N     N_R   0.980750 0.500000 0.209750 -0.208122
N4    N     N_R   0.019250 0.500000 0.790250 -0.200135
O1    O     O_R   0.418020 0.076820 0.422210 -0.545418
O2    O     O_R   0.569630 0.923170 0.391410 -0.624620
O3    O     O_R   0.569630 0.076830 0.391410 -0.605709
O4    O     O_R   0.430370 0.923170 0.608590 -0.636616
O5    O     O_R   0.930370 0.576830 0.608590 -0.653901
O6    O     O_R   0.069630 0.423170 0.391410 -0.671339
O7    O     O_R   0.069630 0.576830 0.391410 -0.651443
O8    O     O_R   0.930370 0.423170 0.608590 -0.623527
O9    O     O_3   0.351765 0.003174 0.259845 -0.705295
O10   O     O_3   0.647688 0.987289 0.740416 -0.659471
O11   O     O_3   0.852009 0.492724 0.259665 -0.653028
O12   O     O_R   0.581980 0.923180 0.577790 -0.547653
O13   O     O_3   0.148064 0.506992 0.740193 -0.711521
O14   O     O_3   0.612959 0.991914 0.166415 -0.664924
O15   O     O_3   0.387116 0.007648 0.833889 -0.644954
O16   O     O_3   0.112661 0.510774 0.166396 -0.649672
O17   O     O_3   0.886894 0.494190 0.833764 -0.658973
O18   O     O_3   0.726401 0.097635 0.592732 -0.642671
O19   O     O_3   0.263065 0.915586 0.458052 -0.703019
O20   O     O_3   0.407677 0.229036 0.392698 -0.674509
O21   O     O_3   0.742039 0.910280 0.542076 -0.701632
O22   O     O_3   0.237103 0.585671 0.531975 -0.690618
O23   O     O_R   0.581980 0.076820 0.577790 -0.570402
O24   O     O_3   0.762472 0.410761 0.438636 -0.642859
O25   O     O_3   0.774295 0.592608 0.419780 -0.690775
O26   O     O_3   0.102855 0.290125 0.634248 -0.690041
O27   O     O_3   0.587343 0.212420 0.322887 -0.726996
O28   O     O_3   0.446956 0.766553 0.599598 -0.741550
O29   O     O_3   0.285719 0.084814 0.692536 -0.719865
O30   O     O_3   0.559509 0.770909 0.372696 -0.730615
O31   O     O_3   0.047348 0.746013 0.415895 -0.738799
O32   O     O_3   0.929182 0.272174 0.648813 -0.664212
O33   O     O_3   0.920478 0.727041 0.663824 -0.725237
O34   O     O_R   0.418020 0.923180 0.422210 -0.558419
O35   O     O_3   0.203974 0.386876 0.278968 -0.677847
O36   O     O_3   0.842659 0.154207 0.644141 -0.500486
O37   O     O_3   0.128316 0.862766 0.455995 -0.559110
O38   O     O_3   0.324130 0.299498 0.275816 -0.505695
O39   O     O_3   0.823199 0.842279 0.666798 -0.530802
O40   O     O_3   0.368287 0.640247 0.551643 -0.621182
O41   O     O_3   0.664150 0.343904 0.348256 -0.550111
O42   O     O_3   0.640581 0.642351 0.399834 -0.608567
O43   O     O_3   0.172598 0.191235 0.724853 -0.563050
O44   O     O_3   0.669865 0.998947 0.969769 -0.660265
O45   O     O_R   0.918020 0.576820 0.422210 -0.548777
O46   O     O_3   0.331836 0.023027 0.030576 -0.678764
O47   O     O_3   0.169643 0.496070 0.970134 -0.665179
O48   O     O_3   0.832253 0.475377 0.029801 -0.663594
O49   O     O_R   0.081980 0.423180 0.577790 -0.545402
O50   O     O_R   0.081980 0.576820 0.577790 -0.555421
O51   O     O_R   0.918020 0.423180 0.422210 -0.539150
O52   O     O_R   0.430370 0.076830 0.608590 -0.620265
Zn1   Zn    Zn3+2 0.491750 0.000000 0.375560 1.051378
Zn2   Zn    Zn3+2 0.508250 1.000000 0.624440 1.038363
Zn3   Zn    Zn3+2 0.991750 0.500000 0.375560 1.010416
Zn4   Zn    Zn3+2 0.008250 0.500000 0.624440 1.025720

loop_
_geom_bond_atom_site_label_1
_geom_bond_atom_site_label_2
_ccdc_geom_bond_type
C10   O46   S    
C13   O48   S    
C51   O26   S    
C8    C13   A    
N3    Zn3   S    
C37   O27   S    
C33   O38   S    
N4    Zn4   S    
O7    Zn3   S    
O6    Zn3   S    
C25   C43   A    
C53   C59   A    
H6    O24   S    
C48   C57   A    
C70   H42   S    
C7    C11   A    
C63   H22   S    
C26   C42   A    
C12   O2    A    
O23   Zn2   S    
C17   O16   S    
C50   C59   A    
H4    O21   S    
C18   C37   A    
C1    O1    A    
C52   C61   A    
C1    O52   A    
C22   C41   A    
C45   O5    A    
H16   O33   S    
C62   H18   S    
C44   O19   S    
H15   O32   S    
H44   O44   S    
C68   O41   S    
C55   C61   A    
C71   O51   A    
H49   O15   S    
C64   O38   S    
C8    N3    A    
H47   O47   S    
C31   C40   A    
C41   O31   S    
C44   C53   A    
H48   O48   S    
C64   H27   S    
C62   O36   S    
C21   C38   A    
H51   O17   S    
C62   H20   S    
C5    N2    A    
C35   O39   S    
C32   C41   A    
C12   O12   A    
C68   H35   S    
C65   H29   S    
C29   O42   S    
C35   C43   A    
H14   O31   S    
O1    Zn1   S    
C3    C13   A    
C27   O40   S    
C22   C50   A    
H10   O28   S    
C64   H26   S    
C34   O4    A    
C32   O37   S    
C39   O29   S    
C46   C54   A    
C65   H30   S    
C2    C72   A    
C18   C46   A    
C70   H43   S    
O52   Zn2   S    
O51   Zn3   S    
C56   O49   A    
C70   H41   S    
C30   O43   S    
C29   C61   A    
C31   O36   S    
N1    Zn1   S    
C18   C23   S    
C66   H32   S    
H2    O19   S    
C5    O10   S    
C38   O30   S    
O34   Zn1   S    
C71   O8    A    
C20   C39   A    
C47   O21   S    
C42   O35   S    
C17   N3    A    
C57   C60   A    
C52   O25   S    
C35   C55   A    
C12   C21   S    
C67   O50   A    
O12   Zn2   S    
C49   C58   A    
C30   C60   A    
C16   O17   S    
C29   C38   A    
C67   O7    A    
C70   O43   S    
C5    C9    A    
C14   N2    A    
C45   O45   A    
H7    O25   S    
C15   O14   S    
C69   H38   S    
C50   O22   S    
O5    Zn4   S    
H11   O29   S    
C62   H19   S    
O8    Zn4   S    
C23   O3    A    
C4    C11   A    
O4    Zn2   S    
C2    C15   A    
C16   N4    A    
H46   O46   S    
C20   C48   A    
C4    C17   A    
C43   O33   S    
C64   H25   S    
C69   H40   S    
C8    O11   S    
C7    N4    A    
N2    Zn2   S    
H13   O30   S    
C33   C42   A    
C66   H33   S    
C3    C4    A    
C25   C45   S    
C32   C53   A    
C7    O13   S    
C19   C44   A    
C36   O28   S    
H34   O13   S    
C47   C55   A    
C54   C58   A    
C24   C49   A    
C63   H24   S    
C23   O23   A    
C14   O15   S    
C1    C20   S    
C33   C57   A    
C68   H37   S    
C49   O24   S    
C14   C72   A    
C66   H31   S    
C40   O32   S    
C65   H28   S    
C34   O34   A    
C19   C34   S    
C26   C56   S    
H5    O22   S    
C6    C10   A    
H52   O18   S    
C56   O6    A    
H8    O26   S    
C28   C58   A    
C27   C36   A    
O49   Zn4   S    
C65   O39   S    
H23   O11   S    
H9    O27   S    
C66   O40   S    
C19   C36   A    
C6    O9    S    
H45   O14   S    
C25   C52   A    
O2    Zn1   S    
C27   C59   A    
H50   O16   S    
O3    Zn1   S    
C46   O18   S    
H1    O9    S    
C28   C37   A    
C48   O20   S    
H3    O20   S    
C11   O47   S    
C24   C40   A    
C30   C39   A    
C69   O42   S    
C31   C54   A    
C69   H39   S    
C22   C67   S    
H12   O10   S    
C28   O41   S    
C63   O37   S    
O45   Zn3   S    
C15   N1    A    
C9    O44   S    
C51   C60   A    
C68   H36   S    
C63   H21   S    
C26   C51   A    
C2    C9    A    
H17   O35   S    
C6    N1    A    
O50   Zn4   S    
C3    C16   A    
C24   C71   S    
C21   C47   A    
C10   C72   A    
