data_mof_unit_17496.cif
_audit_creation_date              2012-12-11T15:33:52-0500
_audit_creation_method            fapswitch 2.2
_symmetry_space_group_name_H-M    P1
_symmetry_Int_Tables_number       1
_space_group_crystal_system       triclinic
_cell_length_a                    26.893964
_cell_length_b                    7.192925
_cell_length_c                    22.760345
_cell_angle_alpha                 90.001062
_cell_angle_beta                  101.5307
_cell_angle_gamma                 89.995803
_cell_volume                      4314.04319073

loop_
_atom_site_label
_atom_site_type_symbol
_atom_type_description
_atom_site_fract_x
_atom_site_fract_y
_atom_site_fract_z
_atom_type_partial_charge
O1    O     O_R   0.207310 0.594030 0.676830 -0.535288
O2    O     O_R   0.792690 0.405970 0.323170 -0.511515
O3    O     O_R   0.292690 0.094030 0.823170 -0.535299
O4    O     O_R   0.707310 0.905970 0.176830 -0.511610
O5    O     O_R   0.197320 0.262370 0.795700 -0.514551
O6    O     O_R   0.802680 0.737630 0.204300 -0.529141
O7    O     O_R   0.302680 0.762370 0.704300 -0.514565
O8    O     O_R   0.697320 0.237630 0.295700 -0.529059
C1    C     C_R   0.184474 0.431751 0.811980 0.681849
C2    C     C_R   0.814625 0.568042 0.187183 0.719666
C3    C     C_R   0.315529 0.931741 0.688023 0.681883
C4    C     C_R   0.685384 0.068052 0.312829 0.719974
O9    O     O_R   0.201410 0.264250 0.675590 -0.533257
O10   O     O_R   0.798590 0.735750 0.324410 -0.538828
O11   O     O_R   0.298590 0.764250 0.824410 -0.533269
O12   O     O_R   0.701410 0.235750 0.175590 -0.538874
O13   O     O_R   0.296810 0.094940 0.702210 -0.531824
O14   O     O_R   0.703190 0.905060 0.297790 -0.541271
O15   O     O_R   0.203190 0.594940 0.797790 -0.531828
O16   O     O_R   0.796810 0.405060 0.202210 -0.541268
C5    C     C_R   0.189780 0.431976 0.653052 0.688021
C6    C     C_R   0.810422 0.567631 0.346756 0.703306
C7    C     C_R   0.310219 0.931967 0.846950 0.688029
C8    C     C_R   0.689579 0.067639 0.153243 0.703094
O17   O     O_3   0.281300 0.427390 0.758870 -0.357643
O18   O     O_3   0.718700 0.572610 0.241130 -0.374723
O19   O     O_3   0.218700 0.927390 0.741130 -0.357627
O20   O     O_3   0.781300 0.072610 0.258870 -0.374680
V1    V     V_3+5 0.244190 0.152150 0.748350 1.525900
V2    V     V_3+5 0.755810 0.847850 0.251650 1.494625
V3    V     V_3+5 0.255810 0.652150 0.751650 1.525900
V4    V     V_3+5 0.744190 0.347850 0.248350 1.494573
C9    C     C_R   0.655322 0.062654 0.093749 -0.034378
C10   C     C_R   0.345674 0.929843 0.905742 -0.054145
C11   C     C_R   0.844679 0.562588 0.406248 -0.034298
C12   C     C_R   0.154332 0.429902 0.594258 -0.054080
C13   C     C_R   0.640293 0.137494 0.988234 -0.089872
C14   C     C_R   0.365674 0.792705 0.004587 -0.112629
C15   C     C_R   0.859670 0.636883 0.511800 -0.090087
C16   C     C_R   0.134383 0.293207 0.495347 -0.112560
C17   C     C_R   0.671994 0.136581 0.044571 -0.088243
C18   C     C_R   0.330421 0.839730 0.953346 -0.155799
C19   C     C_R   0.827979 0.636181 0.455455 -0.088393
C20   C     C_R   0.169616 0.340071 0.546623 -0.155857
C21   C     C_R   0.605662 0.993121 0.086141 -0.150792
C22   C     C_R   0.396990 0.978411 0.911092 -0.151852
C23   C     C_R   0.894357 0.493214 0.413832 -0.150740
C24   C     C_R   0.103004 0.478304 0.588917 -0.151885
C25   C     C_R   0.573188 0.982784 0.028375 0.114088
C26   C     C_R   0.434818 0.914605 0.960326 0.106040
C27   C     C_R   0.926822 0.482664 0.471599 0.114091
C28   C     C_R   0.065198 0.414615 0.539646 0.105969
C29   C     C_R   0.590890 0.060836 0.978995 0.050145
C30   C     C_R   0.418162 0.823048 0.008304 0.056021
C31   C     C_R   0.909090 0.560347 0.521013 0.050144
C32   C     C_R   0.081885 0.323401 0.491626 0.056017
C33   C     C_R   0.522781 0.907052 0.019114 -0.006021
C34   C     C_R   0.488343 0.941788 0.963729 -0.008538
C35   C     C_R   0.977245 0.407068 0.480833 -0.006037
C36   C     C_R   0.011666 0.441611 0.536244 -0.008612
C37   C     C_R   0.509261 0.990869 0.912982 -0.084354
C38   C     C_R   0.506320 0.789215 0.061822 -0.081840
C39   C     C_R   0.990725 0.490308 0.587009 -0.084349
C40   C     C_R   0.993741 0.289565 0.438065 -0.081789
C41   C     C_R   0.559583 0.058288 0.921156 -0.089741
C42   C     C_R   0.453985 0.755295 0.057785 -0.085750
C43   C     C_R   0.940384 0.557548 0.578857 -0.089721
C44   C     C_R   0.046087 0.255847 0.442092 -0.085693
H1    H     H_    0.406491 0.061929 0.875583 0.117060
H2    H     H_    0.592388 0.956334 0.126322 0.103886
H3    H     H_    0.093474 0.561624 0.624456 0.117055
H4    H     H_    0.907647 0.456699 0.373638 0.103905
H5    H     H_    0.291040 0.800521 0.950091 0.103299
H6    H     H_    0.709743 0.195212 0.049886 0.113771
H7    H     H_    0.209006 0.300987 0.549872 0.103303
H8    H     H_    0.790217 0.694693 0.450159 0.113680
H9    H     H_    0.655059 0.199786 0.951984 0.140591
H10   H     H_    0.351369 0.724779 0.040251 0.132715
H11   H     H_    0.844881 0.698904 0.548077 0.140577
H12   H     H_    0.148712 0.225530 0.459656 0.132750
C45   C     C_R   0.611578 0.911346 0.342896 -0.157344
C46   C     C_R   0.352273 0.097301 0.610072 -0.130077
C47   C     C_R   0.888416 0.411236 0.157063 -0.156970
C48   C     C_R   0.147751 0.597347 0.889946 -0.130002
H13   H     H_    0.613241 0.808843 0.308403 0.135581
H14   H     H_    0.323115 0.201857 0.609231 0.151545
H15   H     H_    0.886721 0.308565 0.191495 0.135731
H16   H     H_    0.176914 0.701866 0.890784 0.151510
C49   C     C_R   0.573964 0.893443 0.377593 0.175332
C50   C     C_R   0.387488 0.121770 0.572503 0.153077
C51   C     C_R   0.926037 0.393446 0.122370 0.175540
C52   C     C_R   0.112545 0.621860 0.927524 0.153074
C53   C     C_R   0.571158 0.027050 0.422488 -0.012518
C54   C     C_R   0.426025 0.987661 0.572994 -0.012439
C55   C     C_R   0.928885 0.527284 0.077554 -0.012484
C56   C     C_R   0.074002 0.487810 0.927035 -0.012362
C57   C     C_R   0.606308 0.173482 0.431656 -0.207475
C58   C     C_R   0.428380 0.834025 0.611326 -0.201479
C59   C     C_R   0.893772 0.673857 0.068466 -0.207682
C60   C     C_R   0.071635 0.334165 0.888704 -0.201437
H17   H     H_    0.604536 0.274010 0.466697 0.166346
H18   H     H_    0.457787 0.730666 0.611414 0.155694
H19   H     H_    0.895565 0.774600 0.033491 0.166009
H20   H     H_    0.042223 0.230848 0.888622 0.155684
C61   C     C_R   0.644370 0.190237 0.397603 -0.016771
C62   C     C_R   0.392491 0.806677 0.647775 -0.032627
C63   C     C_R   0.855708 0.690496 0.102516 -0.016546
C64   C     C_R   0.107519 0.306759 0.852250 -0.032728
C65   C     C_R   0.646895 0.058120 0.351841 -0.152177
C66   C     C_R   0.353809 0.941909 0.648198 -0.152660
C67   C     C_R   0.853129 0.558127 0.148185 -0.152359
C68   C     C_R   0.146203 0.441953 0.851816 -0.152599
N1    N     N_R   0.548204 0.007735 0.522006 -0.259071
N2    N     N_R   0.448506 0.010295 0.472943 -0.287486
N3    N     N_R   0.951833 0.508452 0.978026 -0.259107
N4    N     N_R   0.051529 0.510118 0.027096 -0.287448
N5    N     N_R   0.514216 0.998661 0.557329 -0.254245
N6    N     N_R   0.482515 0.017672 0.437572 -0.287389
N7    N     N_R   0.985818 0.499338 0.942699 -0.254218
N8    N     N_R   0.017524 0.517533 0.062469 -0.287410
C69   C     C_R   0.463696 0.000966 0.533539 0.499914
C70   C     C_R   0.533050 0.016294 0.461429 0.500371
C71   C     C_R   0.036337 0.501181 0.966494 0.499867
C72   C     C_R   0.966988 0.516599 0.038608 0.500370
C73   C     C_2   0.580370 0.118208 0.868502 0.828397
O21   O     O_2   0.564469 0.259797 0.841414 -0.502023
O22   O     O_R   0.618796 0.014141 0.850945 -0.647002
H21   H     H_    0.630137 0.069327 0.814799 0.318680
C74   C     C_2   0.436947 0.636934 0.103387 0.791579
O23   O     O_2   0.438823 0.696483 0.154090 -0.539179
O24   O     O_R   0.418069 0.458869 0.087697 -0.660370
H22   H     H_    0.407467 0.391682 0.122372 0.302722
C75   C     C_2   0.919559 0.616962 0.631535 0.828350
O25   O     O_2   0.935406 0.758442 0.658723 -0.502049
O26   O     O_R   0.881158 0.512547 0.649000 -0.646998
H23   H     H_    0.869792 0.567386 0.685180 0.318682
C76   C     C_2   0.063162 0.137974 0.396399 0.791598
O27   O     O_2   0.061270 0.197953 0.345745 -0.539146
O28   O     O_R   0.082091 0.959878 0.411946 -0.660355
H24   H     H_    0.092712 0.893060 0.377215 0.302755
C77   C     C_2   0.483720 0.930550 0.851716 0.791425
O29   O     O_2   0.467257 0.772040 0.844010 -0.525195
O30   O     O_R   0.477541 0.054364 0.803439 -0.640233
H25   H     H_    0.459024 0.996452 0.764571 0.311689
C78   C     C_2   0.543462 0.668033 0.101928 0.761427
O31   O     O_2   0.575304 0.582220 0.081252 -0.543188
O32   O     O_R   0.542623 0.654128 0.162986 -0.660080
H26   H     H_    0.570084 0.568863 0.185210 0.288091
C79   C     C_2   0.016276 0.429792 0.648249 0.791431
O33   O     O_2   0.032775 0.271307 0.655887 -0.525326
O34   O     O_R   0.022423 0.553406 0.696577 -0.640146
H27   H     H_    0.040954 0.495389 0.735421 0.311804
C80   C     C_2   0.956635 0.168460 0.397889 0.761451
O35   O     O_2   0.924815 0.082367 0.418514 -0.543183
O36   O     O_R   0.957480 0.154938 0.336824 -0.660159
H28   H     H_    0.930041 0.069693 0.314549 0.288045
C81   C     C_3   0.539144 0.726260 0.366841 -0.391393
C82   C     C_3   0.497866 0.753275 0.310868 -0.633224
H29   H     H_    0.474419 0.876998 0.316080 0.242451
H30   H     H_    0.515010 0.772111 0.270751 0.256509
H31   H     H_    0.472915 0.628942 0.303861 0.232854
H32   H     H_    0.561623 0.600049 0.361209 0.202265
H33   H     H_    0.521085 0.698028 0.405699 0.199956
C83   C     C_3   0.383856 0.296425 0.534732 -0.360785
C84   C     C_3   0.340074 0.283577 0.480716 -0.706264
H34   H     H_    0.345501 0.162619 0.452318 0.248571
H35   H     H_    0.303354 0.268673 0.495552 0.211582
H36   H     H_    0.338689 0.412154 0.453440 0.226449
H37   H     H_    0.377854 0.418552 0.562402 0.195790
H38   H     H_    0.419531 0.324143 0.518804 0.195513
C85   C     C_3   0.960815 0.226112 0.133026 -0.391563
C86   C     C_3   0.002108 0.252727 0.189005 -0.633334
H39   H     H_    0.025588 0.376397 0.183851 0.242641
H40   H     H_    0.984975 0.271434 0.229136 0.256700
H41   H     H_    0.027023 0.128276 0.195937 0.232718
H42   H     H_    0.938306 0.099948 0.138603 0.202675
H43   H     H_    0.978859 0.198005 0.094149 0.199972
C87   C     C_3   0.116195 0.796488 0.965311 -0.360812
C88   C     C_3   0.159993 0.783571 0.019308 -0.706347
H44   H     H_    0.154573 0.662600 0.047700 0.248556
H45   H     H_    0.196705 0.768645 0.004450 0.211592
H46   H     H_    0.161392 0.912130 0.046596 0.226467
H47   H     H_    0.122188 0.918628 0.937645 0.195820
H48   H     H_    0.080531 0.824215 0.981266 0.195481
C89   C     C_2   0.681950 0.342038 0.413741 0.758940
O37   O     O_2   0.726891 0.314462 0.414230 -0.555335
O38   O     O_R   0.666048 0.515401 0.430850 -0.670608
H49   H     H_    0.694955 0.607782 0.441024 0.292583
C90   C     C_2   0.398249 0.635752 0.684642 0.755823
O39   O     O_2   0.364563 0.519041 0.677566 -0.558684
O40   O     O_R   0.444312 0.600832 0.723851 -0.625930
H50   H     H_    0.444459 0.477292 0.745350 0.343103
C91   C     C_2   0.818173 0.842497 0.086493 0.759165
O41   O     O_2   0.773192 0.814690 0.085671 -0.555296
O42   O     O_R   0.834174 0.016322 0.069904 -0.670877
H51   H     H_    0.805289 0.108845 0.059818 0.292475
C92   C     C_2   0.101754 0.135812 0.815393 0.755697
O43   O     O_2   0.135447 0.019106 0.822454 -0.558619
O44   O     O_R   0.055680 0.100860 0.776214 -0.626126
H52   H     H_    0.055529 0.977304 0.754722 0.343064

loop_
_geom_bond_atom_site_label_1
_geom_bond_atom_site_label_2
_ccdc_geom_bond_type
C55   C72   S    
O17   V3    S    
C59   H19   S    
C85   C86   S    
O1    C5    A    
C84   H34   S    
N4    C71   A    
C53   C57   A    
O19   V1    S    
C9    C21   A    
O3    C7    A    
O32   H26   S    
C10   C18   A    
C52   C56   A    
O15   V3    S    
C78   O31   D    
C83   H37   S    
C25   C33   A    
O26   H23   S    
C5    C12   S    
O7    C3    A    
C6    C11   S    
C76   O28   S    
C35   C40   A    
C48   C68   A    
C36   C39   A    
C46   C66   A    
O9    V1    S    
C83   C84   S    
C43   C75   S    
C14   C18   A    
C79   O34   S    
C62   C66   A    
O4    C8    A    
C55   C59   A    
C89   O38   S    
C54   C58   A    
O30   H25   S    
O1    V3    S    
O13   V1    S    
O2    V4    S    
N6    C70   A    
C61   C89   S    
C64   C92   S    
O3    V1    S    
N5    C69   A    
C39   C79   S    
C22   H1    S    
C28   C36   A    
C82   H31   S    
C17   H6    S    
N2    C69   A    
C83   H38   S    
O44   H52   S    
C1    O15   A    
C60   H20   S    
C15   C31   A    
N1    C70   A    
C2    O16   A    
C16   C32   A    
C38   C78   S    
C87   H48   S    
O2    C6    A    
O34   H27   S    
C16   H12   S    
C10   C22   A    
C80   O36   S    
C11   C19   A    
C81   H33   S    
C16   C20   A    
C87   H47   S    
C86   H41   S    
C42   C74   S    
C13   C29   A    
C34   C37   A    
O11   C7    A    
C76   O27   D    
C11   C23   A    
C35   C36   A    
O12   C8    A    
C3    C66   S    
C81   C82   S    
C44   C76   S    
C92   O43   D    
O10   V2    S    
C4    C65   S    
C78   O32   S    
C86   H40   S    
C50   C54   A    
O5    V1    S    
C39   C43   A    
C60   C64   A    
O7    V3    S    
C38   C42   A    
O40   H50   S    
O8    V4    S    
C87   C88   S    
C33   C38   A    
C53   C70   S    
O18   V4    S    
C15   C19   A    
C14   H10   S    
C91   O42   S    
C32   C44   A    
C13   H9    S    
C40   C80   S    
C49   C53   A    
O4    V2    S    
N4    N8    A    
C50   C83   S    
C15   H11   S    
C20   H7    S    
O5    C1    A    
C37   C41   A    
C75   O25   D    
C31   C43   A    
C14   C30   A    
C21   C25   A    
O8    C4    A    
C7    C10   S    
C26   C34   A    
O9    C5    A    
C2    C67   S    
C26   C30   A    
C92   O44   S    
O11   V3    S    
N2    N6    A    
C52   C87   S    
N1    N5    A    
C37   C77   S    
O6    V2    S    
C45   C65   A    
C84   H36   S    
N3    N7    A    
C73   O21   D    
C47   C67   A    
C12   C20   A    
C27   C35   A    
C24   H3    S    
O22   H21   S    
C40   C44   A    
C63   C91   S    
C29   C41   A    
C86   H39   S    
C73   O22   S    
C74   O23   D    
O16   V4    S    
C19   H8    S    
C61   C65   A    
C3    O13   A    
C18   H5    S    
N3    C72   A    
C56   C71   S    
C21   H2    S    
C63   C67   A    
C48   H16   S    
O24   H22   S    
C58   C62   A    
C47   H15   S    
O6    C2    A    
C23   C27   A    
O28   H24   S    
C49   C81   S    
C47   C51   A    
C30   C42   A    
N7    C71   A    
C88   H44   S    
O12   V4    S    
C59   C63   A    
C85   H42   S    
C22   C26   A    
C89   O37   D    
C8    C9    S    
C46   C50   A    
C51   C85   S    
C9    C17   A    
C88   H46   S    
C77   O30   S    
C57   C61   A    
O38   H49   S    
C58   H18   S    
C79   O33   D    
C46   H14   S    
C82   H30   S    
O10   C6    A    
C33   C34   A    
C82   H29   S    
C1    C68   S    
C25   C29   A    
C56   C60   A    
O20   V2    S    
C12   C24   A    
C27   C31   A    
C45   C49   A    
C13   C17   A    
C90   O39   D    
C57   H17   S    
C23   H4    S    
N8    C72   A    
O14   V2    S    
C51   C55   A    
O42   H51   S    
C54   C69   S    
C64   C68   A    
C24   C28   A    
C84   H35   S    
C91   O41   D    
C4    O14   A    
O36   H28   S    
C75   O26   S    
C85   H43   S    
C88   H45   S    
C48   C52   A    
C62   C90   S    
C90   O40   S    
C80   O35   D    
C77   O29   D    
C81   H32   S    
C45   H13   S    
C28   C32   A    
C41   C73   S    
C74   O24   S    
