data_mof_unit_60720.cif
_audit_creation_date              2012-12-10T20:49:10-0500
_audit_creation_method            fapswitch 2.2
_symmetry_space_group_name_H-M    P1
_symmetry_Int_Tables_number       1
_space_group_crystal_system       triclinic
_cell_length_a                    19.213858
_cell_length_b                    19.193825
_cell_length_c                    19.443074
_cell_angle_alpha                 89.800662
_cell_angle_beta                  94.577467
_cell_angle_gamma                 85.120224
_cell_volume                      7121.20276112

loop_
_atom_site_label
_atom_site_type_symbol
_atom_type_description
_atom_site_fract_x
_atom_site_fract_y
_atom_site_fract_z
_atom_type_partial_charge
Br1   Br    Br    0.755683 0.642024 0.525450 -0.512458
C1    C     C_R   0.492119 0.689122 0.507440 0.832879
C2    C     C_2   0.501781 0.526591 0.018684 -0.355886
C3    C     C_2   0.521476 0.469164 0.983228 0.491419
C4    C     C_R   0.507457 0.310757 0.493027 0.791191
C5    C     C_R   0.512118 0.486138 0.763793 0.001568
C6    C     C_R   0.512116 0.233964 0.492780 0.000403
C7    C     C_R   0.462974 0.198494 0.525698 -0.223690
C8    C     C_R   0.467966 0.125829 0.527682 -0.169698
C9    C     C_R   0.522544 0.087044 0.496649 0.320254
C10   C     C_R   0.572023 0.122481 0.464577 -0.191836
C11   C     C_R   0.566633 0.195454 0.462021 -0.212143
C12   C     C_R   0.500699 0.525396 0.094000 0.233117
C13   C     C_R   0.544249 0.872804 0.528440 -0.164114
C14   C     C_R   0.547353 0.800004 0.529182 -0.281490
C15   C     C_R   0.480413 0.912367 0.509481 0.249916
C16   C     C_R   0.689578 0.492651 0.506653 0.867195
C17   C     C_R   0.487151 0.765721 0.510567 -0.127071
C18   C     C_R   0.422544 0.805302 0.494146 0.516912
C19   C     C_R   0.419949 0.878255 0.493568 -0.286134
C20   C     C_R   0.233373 0.512046 0.491186 -0.000979
C21   C     C_R   0.200649 0.459428 0.523143 -0.225143
C22   C     C_R   0.128039 0.463367 0.523030 -0.160355
C23   C     C_R   0.443776 0.558918 0.125015 -0.177212
C24   C     C_R   0.086663 0.520448 0.490895 0.321833
C25   C     C_R   0.119462 0.573124 0.459554 -0.192801
C26   C     C_R   0.192267 0.568866 0.459155 -0.216941
C27   C     C_R   0.875144 0.545023 0.516133 -0.285699
C28   C     C_R   0.310136 0.508049 0.492838 0.790027
C29   C     C_R   0.802423 0.550202 0.517119 0.256705
C30   C     C_R   0.912703 0.479818 0.506960 0.170404
C31   C     C_R   0.766137 0.489621 0.508508 -0.135591
C32   C     C_R   0.803616 0.424734 0.499881 -0.371152
C33   C     C_R   0.876742 0.419330 0.501076 0.541365
C34   C     C_R   0.440567 0.554066 0.196337 -0.194472
C35   C     C_R   0.508329 0.491414 0.688425 0.779364
C36   C     C_R   0.492361 0.508898 0.311573 0.802017
C37   C     C_R   0.494546 0.515810 0.236824 -0.004883
C38   C     C_R   0.552774 0.484933 0.205651 -0.216192
C39   C     C_R   0.556206 0.490416 0.134970 -0.079948
C40   C     C_3   0.326048 0.765192 0.534777 -0.305061
C41   C     C_3   0.919648 0.317180 0.553277 -0.312889
C42   C     C_3   0.591756 0.365826 0.994585 -0.327139
C43   C     C_R   0.554528 0.525730 0.876280 -0.230236
C44   C     C_R   0.551270 0.531269 0.804689 -0.165801
C45   C     C_R   0.476646 0.435232 0.795453 -0.203062
C46   C     C_R   0.480275 0.429534 0.866923 -0.162630
C47   C     C_R   0.519090 0.474753 0.907521 0.067387
H1    H     H_    0.596074 0.456795 0.235920 0.168118
H2    H     H_    0.579076 0.570883 0.781453 0.164698
H3    H     H_    0.902157 0.592137 0.522369 0.204193
H4    H     H_    0.088382 0.617539 0.435195 0.150029
H5    H     H_    0.216363 0.610419 0.434636 0.174234
H6    H     H_    0.776170 0.377916 0.492723 0.186297
H7    H     H_    0.104581 0.422158 0.548735 0.155410
H8    H     H_    0.231154 0.415123 0.548344 0.167481
H9    H     H_    0.446212 0.399653 0.765068 0.164290
H10   H     H_    0.401158 0.587150 0.093890 0.140069
H11   H     H_    0.584922 0.560821 0.907373 0.137522
H12   H     H_    0.452366 0.390285 0.890657 0.161308
H13   H     H_    0.395656 0.579112 0.219569 0.165483
H14   H     H_    0.483592 0.575132 0.991402 0.126177
H15   H     H_    0.602141 0.466957 0.112266 0.150972
H16   H     H_    0.308754 0.816847 0.556393 0.156788
H17   H     H_    0.358435 0.732437 0.574782 0.138454
H18   H     H_    0.278443 0.737992 0.520140 0.194826
H19   H     H_    0.867668 0.304184 0.568634 0.156853
H20   H     H_    0.947456 0.345827 0.595372 0.156830
H21   H     H_    0.951417 0.267159 0.545863 0.199700
H22   H     H_    0.637511 0.397833 0.994711 0.149921
H23   H     H_    0.597177 0.770444 0.542708 0.213543
H24   H     H_    0.580407 0.343349 0.942755 0.177693
H25   H     H_    0.606568 0.321496 0.031058 0.198090
H26   H     H_    0.591555 0.898027 0.542616 0.170357
H27   H     H_    0.614549 0.093381 0.441034 0.147819
H28   H     H_    0.605592 0.221657 0.436884 0.168226
H29   H     H_    0.429517 0.100160 0.554072 0.151122
H30   H     H_    0.370601 0.908535 0.479671 0.164985
H31   H     H_    0.420605 0.226885 0.550124 0.167172
N1    N     N_2   0.529772 0.012828 0.497732 -0.190869
N2    N     N_2   0.474239 0.986392 0.507444 -0.186440
N3    N     N_2   0.012529 0.527671 0.490664 -0.190846
N4    N     N_2   0.986653 0.472663 0.505508 -0.147869
O1    O     O_3   0.500000 0.500000 0.500000 -0.489764
O2    O     O_R   0.546320 0.532340 0.658770 -0.645177
O3    O     O_R   0.450550 0.549430 0.344370 -0.642427
O4    O     O_R   0.467400 0.453980 0.652500 -0.649237
O5    O     O_R   0.535730 0.464240 0.344360 -0.643991
O6    O     O_3   0.362286 0.773138 0.475383 -0.581190
O7    O     O_3   0.913059 0.355442 0.490742 -0.586206
O8    O     O_3   0.531952 0.404445 0.016779 -0.595449
O9    O     O_R   0.656240 0.454400 0.463600 -0.649763
O10   O     O_R   0.340160 0.549180 0.454800 -0.638372
O11   O     O_R   0.536860 0.652450 0.548350 -0.635636
O12   O     O_R   0.466740 0.343960 0.533260 -0.648073
O13   O     O_R   0.451210 0.659450 0.463610 -0.592258
O14   O     O_R   0.545190 0.344140 0.454780 -0.645215
O15   O     O_R   0.656710 0.532590 0.548340 -0.600001
O16   O     O_R   0.346890 0.463830 0.533270 -0.648155
Zn1   Zn    Zn3+2 0.558280 0.441710 0.441700 0.974678
Zn2   Zn    Zn3+2 0.558950 0.553420 0.562770 1.000770
Zn3   Zn    Zn3+2 0.446190 0.441460 0.553820 0.958772
Zn4   Zn    Zn3+2 0.436580 0.563410 0.441710 1.002807

loop_
_geom_bond_atom_site_label_1
_geom_bond_atom_site_label_2
_ccdc_geom_bond_type
C42   H25   S    
C14   C17   A    
C40   O6    S    
C42   H24   S    
C5    C44   A    
C1    C17   S    
O1    Zn3   S    
C36   O5    A    
C18   C19   A    
O10   Zn4   S    
C6    C7    A    
C25   C26   A    
C39   H15   S    
C13   H26   S    
C37   C38   A    
C27   H3    S    
C43   H11   S    
C30   N4    S    
C17   C18   A    
C15   N2    S    
C16   O15   A    
C46   H12   S    
O11   Zn2   S    
C7    C8    A    
C12   C39   A    
C7    H31   S    
C29   C31   A    
C8    C9    A    
C2    C12   S    
O12   Zn3   S    
C3    O8    S    
C20   C26   A    
C20   C21   A    
C41   H20   S    
O1    Zn2   S    
C16   O9    A    
O3    Zn4   S    
C4    O12   A    
C35   O4    A    
C6    C11   A    
C23   C34   A    
C28   O16   A    
O1    Zn1   S    
C36   O3    A    
C1    O11   A    
C34   C37   A    
C38   C39   A    
C4    C6    S    
C9    N1    S    
C21   H8    S    
C24   C25   A    
C20   C28   S    
C41   H21   S    
C42   O8    S    
C12   C23   A    
C41   O7    S    
C33   O7    S    
C36   C37   S    
C18   O6    S    
C25   H4    S    
O4    Zn3   S    
C46   C47   A    
C15   C19   A    
C32   C33   A    
C30   C33   A    
C34   H13   S    
C8    H29   S    
O5    Zn1   S    
C38   H1    S    
C4    O14   A    
C42   H22   S    
C11   H28   S    
C45   H9    S    
C41   H19   S    
C13   C15   A    
C2    C3    D    
O14   Zn1   S    
O2    Zn2   S    
C43   C44   A    
O9    Zn1   S    
C3    C47   S    
C2    H14   S    
C32   H6    S    
C16   C31   S    
C45   C46   A    
C5    C45   A    
C21   C22   A    
C27   C30   A    
N1    N2    D    
C40   H17   S    
C10   C11   A    
C26   H5    S    
C22   H7    S    
C40   H18   S    
C35   O2    A    
O15   Zn2   S    
C14   H23   S    
C19   H30   S    
C31   C32   A    
C1    O13   A    
C10   H27   S    
C28   O10   A    
C24   N3    S    
C44   H2    S    
C27   C29   A    
Br1   C29   S    
C5    C35   S    
C22   C24   A    
C9    C10   A    
O16   Zn3   S    
C23   H10   S    
N3    N4    D    
O13   Zn4   S    
O1    Zn4   S    
C13   C14   A    
C40   H16   S    
C43   C47   A    
