data_mof_unit_18432.cif
_audit_creation_date              2012-12-10T17:21:15-0500
_audit_creation_method            fapswitch 2.2
_symmetry_space_group_name_H-M    P1
_symmetry_Int_Tables_number       1
_space_group_crystal_system       triclinic
_cell_length_a                    10.1872
_cell_length_b                    10.835564
_cell_length_c                    10.769665
_cell_angle_alpha                 91.357343
_cell_angle_beta                  93.977572
_cell_angle_gamma                 81.956356
_cell_volume                      1174.1506838

loop_
_atom_site_label
_atom_site_type_symbol
_atom_type_description
_atom_site_fract_x
_atom_site_fract_y
_atom_site_fract_z
_atom_type_partial_charge
C1    C     C_R   0.445835 0.504422 0.267428 0.934277
C2    C     C_2   0.937080 0.471730 0.530177 0.172673
C3    C     C_R   0.498582 0.257925 0.496466 0.885781
C4    C     C_R   0.553423 0.486678 0.732883 0.895553
C5    C     C_R   0.499957 0.741339 0.493879 0.872424
C6    C     C_3   0.626024 0.054182 0.423412 0.134150
C7    C     C_3   0.610981 0.913221 0.407107 -0.265686
C8    C     C_3   0.511538 0.072205 0.636817 -0.023048
C9    C     C_3   0.364088 0.087171 0.421298 0.042310
C10   C     C_3   0.498880 0.120652 0.495120 -0.030942
C11   C     C_1   0.447227 0.871688 0.721435 0.183113
C12   C     C_3   0.501141 0.877554 0.493417 -0.077321
C13   C     C_1   0.354908 0.398029 0.880660 0.220267
C14   C     C_1   0.702216 0.496522 0.923890 0.183085
C15   C     C_1   0.122542 0.415543 0.384228 0.308009
C16   C     C_1   0.743412 0.835263 0.411779 0.203529
C17   C     C_1   0.622674 0.122124 0.711323 0.153839
C18   C     C_1   0.666250 0.866745 0.679930 0.149875
C19   C     C_1   0.363620 0.123126 0.288339 0.245118
C20   C     C_3   0.530936 0.923377 0.633126 -0.069414
C21   C     C_3   0.359439 0.941636 0.432690 0.124675
C22   C     C_2   0.418802 0.496356 0.134802 -0.311995
C23   C     C_2   0.500378 0.418885 0.066276 0.115319
C24   C     C_2   0.577872 0.465998 0.865773 -0.210177
C25   C     C_2   0.482960 0.426751 0.932463 -0.082881
C26   C     C_2   0.076144 0.483532 0.493181 0.002444
H1    H     H_    0.336333 0.558836 0.091556 0.130916
H2    H     H_    0.578190 0.238034 0.080945 0.201658
H3    H     H_    0.995190 0.415763 0.706963 0.181436
H4    H     H_    0.894165 0.556063 0.696310 0.194267
H5    H     H_    0.800036 0.547000 0.296436 0.233687
H6    H     H_    0.830606 0.391489 0.274427 0.193771
H7    H     H_    0.670900 0.187934 0.303254 0.231127
H8    H     H_    0.693090 0.045289 0.244528 0.173872
H9    H     H_    0.111702 0.587568 0.726899 0.190106
H10   H     H_    0.022500 0.686426 0.617065 0.193964
H11   H     H_    0.219159 0.153055 0.553703 0.210091
H12   H     H_    0.572855 0.896947 0.309791 0.170716
H13   H     H_    0.158211 0.140279 0.407125 0.165267
H14   H     H_    0.243859 0.928233 0.266698 0.186300
H15   H     H_    0.324027 0.792074 0.312600 0.204979
H16   H     H_    0.783470 0.009772 0.562163 0.205089
H17   H     H_    0.830883 0.064101 0.432749 0.173935
H18   H     H_    0.157330 0.939211 0.459497 0.173968
H19   H     H_    0.247391 0.962707 0.593047 0.211559
H20   H     H_    0.404278 0.097151 0.796064 0.199435
H21   H     H_    0.377991 0.217204 0.701356 0.213302
H22   H     H_    0.691451 0.336813 0.098199 0.188408
N1    N     N_2   0.157300 0.551950 0.551120 -0.084454
N2    N     N_3   0.912762 0.466015 0.659177 -0.397667
N3    N     N_1   0.156273 0.363455 0.294353 -0.197874
N4    N     N_3   0.862575 0.466486 0.324767 -0.412429
N5    N     N_3   0.628925 0.105464 0.297765 -0.466808
N6    N     N_3   0.114611 0.635988 0.644756 -0.352785
N7    N     N_1   0.847034 0.775486 0.414652 -0.220917
N8    N     N_1   0.707829 0.161216 0.769603 -0.191407
N9    N     N_1   0.770974 0.821942 0.717392 -0.214888
N10   N     N_3   0.241102 0.161635 0.462238 -0.445392
N11   N     N_1   0.360969 0.150990 0.184943 -0.198317
N12   N     N_2   0.842730 0.448000 0.448950 -0.083669
N13   N     N_3   0.335043 0.886056 0.307106 -0.480005
N14   N     N_3   0.753189 0.074209 0.492521 -0.412263
N15   N     N_3   0.249811 0.916006 0.507769 -0.405610
N16   N     N_3   0.391829 0.120261 0.701654 -0.483364
N17   N     N_1   0.382864 0.830966 0.790465 -0.185201
N18   N     N_1   0.251757 0.376247 0.841697 -0.231760
N19   N     N_3   0.596907 0.323084 0.121266 -0.440004
N20   N     N_1   0.801458 0.521127 0.970039 -0.204421
O1    O     O_R   0.568940 0.489540 0.307530 -0.617139
O2    O     O_R   0.348880 0.522880 0.340350 -0.625435
O3    O     O_R   0.610030 0.298130 0.483570 -0.599360
O4    O     O_R   0.389960 0.331470 0.516390 -0.622502
O5    O     O_R   0.651120 0.477120 0.659650 -0.580701
O6    O     O_R   0.431060 0.510460 0.692470 -0.598643
O7    O     O_R   0.610040 0.668530 0.483610 -0.618241
O8    O     O_R   0.389970 0.701870 0.516430 -0.576564
Zn1   Zn    Zn3+2 0.646940 0.477740 0.478080 0.972582
Zn2   Zn    Zn3+2 0.353060 0.522260 0.521920 0.992408

loop_
_geom_bond_atom_site_label_1
_geom_bond_atom_site_label_2
_ccdc_geom_bond_type
C6    C10   S    
O5    Zn1   S    
C3    O3    A    
H21   N16   S    
H11   N10   S    
C5    O7    A    
C6    C7    S    
C15   N3    T    
O2    Zn2   S    
N4    N12   S    
C9    C10   S    
H16   N14   S    
C18   N9    T    
O1    Zn1   S    
C8    C17   S    
H15   N13   S    
H5    N4    S    
H3    N2    S    
C9    C21   S    
C12   C20   S    
C5    O8    A    
C3    O4    A    
H4    N2    S    
C16   N7    T    
C1    C22   S    
C2    C26   S    
C3    C10   S    
N1    Zn2   S    
H9    N6    S    
O7    Zn1   S    
C17   N8    T    
C13   C25   S    
C4    O5    A    
C8    C20   S    
C6    N14   S    
C8    N16   S    
H8    N5    S    
C7    C16   S    
C7    H12   S    
O8    Zn2   S    
C18   C20   S    
C13   N18   T    
C23   C25   S    
H18   N15   S    
H7    N5    S    
C7    C12   S    
C4    C24   S    
C2    N12   D    
C11   C20   S    
C21   N15   S    
H10   N6    S    
C6    N5    S    
C14   C24   S    
N1    N6    S    
C11   N17   T    
O3    Zn1   S    
H2    N19   S    
C24   C25   D    
H17   N14   S    
C5    C12   S    
C8    C10   S    
C9    N10   S    
O6    Zn2   S    
C26   N1    D    
C23   N19   S    
N12   Zn1   S    
C22   H1    S    
C14   N20   T    
C22   C23   D    
H6    N4    S    
C15   C26   S    
O4    Zn2   S    
C2    N2    S    
C19   N11   T    
H13   N10   S    
C4    O6    A    
C12   C21   S    
H19   N15   S    
C21   N13   S    
C1    O1    A    
H14   N13   S    
C1    O2    A    
C9    C19   S    
H20   N16   S    
H22   N19   S    
