data_mof_unit_65770.cif
_audit_creation_date              2012-12-10T20:19:08-0500
_audit_creation_method            fapswitch 2.2
_symmetry_space_group_name_H-M    P1
_symmetry_Int_Tables_number       1
_space_group_crystal_system       triclinic
_cell_length_a                    41.506258
_cell_length_b                    35.500888
_cell_length_c                    21.467157
_cell_angle_alpha                 89.999976
_cell_angle_beta                  58.747687
_cell_angle_gamma                 89.99997
_cell_volume                      27041.9520458

loop_
_atom_site_label
_atom_site_type_symbol
_atom_type_description
_atom_site_fract_x
_atom_site_fract_y
_atom_site_fract_z
_atom_type_partial_charge
C1    C     C_R   0.926662 0.499963 0.573271 0.946876
C2    C     C_R   0.073338 0.499963 0.426729 0.946876
C3    C     C_R   0.426662 0.999963 0.573271 0.946877
C4    C     C_R   0.573338 0.999963 0.426729 0.946877
C5    C     C_3   0.971043 0.469048 0.242830 -0.432748
C6    C     C_3   0.028957 0.469048 0.757170 -0.432748
C7    C     C_3   0.471042 0.969049 0.242831 -0.432747
C8    C     C_3   0.528957 0.969048 0.757170 -0.432746
C9    C     C_R   0.673794 0.500857 0.881872 -0.129169
C10   C     C_R   0.326206 0.500860 0.118128 -0.129168
C11   C     C_R   0.173794 0.000854 0.881872 -0.129169
C12   C     C_R   0.826206 0.000856 0.118128 -0.129170
C13   C     C_R   0.634588 0.500409 0.921486 -0.196469
C14   C     C_R   0.365411 0.500412 0.078514 -0.196470
C15   C     C_R   0.134588 0.000406 0.921486 -0.196470
C16   C     C_R   0.865411 0.000408 0.078514 -0.196470
C17   C     C_R   0.614591 0.500544 0.885056 -0.043206
C18   C     C_R   0.385409 0.500544 0.114943 -0.043206
C19   C     C_R   0.114591 0.000544 0.885056 -0.043206
C20   C     C_R   0.885409 0.000544 0.114944 -0.043206
C21   C     C_R   0.634391 0.501190 0.808503 -0.186318
C22   C     C_R   0.365609 0.501188 0.191497 -0.186318
C23   C     C_R   0.134391 0.001194 0.808503 -0.186320
C24   C     C_R   0.865609 0.001191 0.191497 -0.186319
C25   C     C_R   0.673590 0.501654 0.769060 -0.164971
C26   C     C_R   0.326410 0.501652 0.230941 -0.164971
C27   C     C_R   0.173590 0.001658 0.769060 -0.164972
C28   C     C_R   0.826410 0.001655 0.230940 -0.164971
C29   C     C_R   0.693145 0.501479 0.805849 0.142055
C30   C     C_R   0.306855 0.501479 0.194152 0.142055
C31   C     C_R   0.193145 0.001479 0.805849 0.142054
C32   C     C_R   0.806855 0.001478 0.194151 0.142054
C33   C     C_1   0.733179 0.501481 0.765521 -0.036382
C34   C     C_1   0.266821 0.501481 0.234479 -0.036383
C35   C     C_1   0.233179 0.001481 0.765521 -0.036384
C36   C     C_1   0.766821 0.001481 0.234479 -0.036383
C37   C     C_1   0.766843 0.501169 0.731941 0.078359
C38   C     C_1   0.233157 0.501169 0.268059 0.078359
C39   C     C_1   0.266843 0.001169 0.731941 0.078358
C40   C     C_1   0.733157 0.001169 0.268059 0.078358
C41   C     C_R   0.826208 0.478830 0.717347 0.383707
C42   C     C_R   0.173792 0.478830 0.282653 0.383708
C43   C     C_R   0.326208 0.978830 0.717347 0.383705
C44   C     C_R   0.673792 0.978830 0.282652 0.383706
C45   C     C_R   0.998848 0.499993 0.379675 0.867405
C46   C     C_R   0.001152 0.499993 0.620325 0.867404
C47   C     C_R   0.498848 0.999993 0.379675 0.867407
C48   C     C_R   0.501152 0.999993 0.620325 0.867406
C49   C     C_R   0.865601 0.478613 0.677853 0.292335
C50   C     C_R   0.134399 0.478613 0.322147 0.292335
C51   C     C_R   0.365601 0.978613 0.677853 0.292334
C52   C     C_R   0.634399 0.978613 0.322147 0.292334
C53   C     C_R   0.885514 0.499917 0.613113 -0.274440
C54   C     C_R   0.114486 0.499917 0.386887 -0.274440
C55   C     C_R   0.385514 0.999917 0.613113 -0.274440
C56   C     C_R   0.614486 0.999917 0.386887 -0.274439
C57   C     C_R   0.866007 0.521344 0.587158 0.196879
C58   C     C_R   0.133993 0.521344 0.412842 0.196880
C59   C     C_R   0.366007 0.021344 0.587158 0.196876
C60   C     C_R   0.633993 0.021344 0.412842 0.196876
C61   C     C_R   0.826444 0.521518 0.628531 -0.250734
C62   C     C_R   0.173556 0.521518 0.371470 -0.250733
C63   C     C_R   0.326444 0.021518 0.628531 -0.250734
C64   C     C_R   0.673556 0.021517 0.371469 -0.250734
C65   C     C_R   0.806975 0.500429 0.692367 -0.078652
C66   C     C_R   0.193025 0.500429 0.307634 -0.078652
C67   C     C_R   0.306975 0.000429 0.692367 -0.078652
C68   C     C_R   0.693025 0.000428 0.307634 -0.078652
C69   C     C_R   1.000000 0.573411 1.000000 0.889335
C70   C     C_R   0.500000 0.073411 0.000000 0.889335
C71   C     C_R   0.999963 0.498786 0.121533 0.875058
C72   C     C_R   0.000037 0.498786 0.878467 0.875058
C73   C     C_R   0.499963 0.998785 0.121533 0.875057
C74   C     C_R   0.500037 0.998786 0.878467 0.875057
C75   C     C_R   0.000000 0.426670 0.000000 0.992768
C76   C     C_R   0.500000 0.926670 0.000000 0.992768
C77   C     C_R   0.500000 0.426724 0.000000 0.872336
C78   C     C_R   0.000000 0.926724 1.000000 0.872334
C79   C     C_R   0.573315 0.500158 0.926598 0.871278
C80   C     C_R   0.426685 0.500158 0.073401 0.871279
C81   C     C_R   0.073315 0.000158 0.926599 0.871277
C82   C     C_R   0.926685 0.000158 0.073401 0.871278
C83   C     C_3   0.989304 0.539588 0.294588 -0.381061
C84   C     C_3   0.010697 0.539588 0.705411 -0.381062
C85   C     C_3   0.489305 0.039588 0.294588 -0.381072
C86   C     C_3   0.510696 0.039588 0.705411 -0.381072
C87   C     C_R   0.500000 0.573438 1.000000 0.869138
C88   C     C_R   0.000000 0.073438 1.000000 0.869138
C89   C     C_R   0.499773 0.326478 0.943706 -0.157420
C90   C     C_R   0.500226 0.326478 0.056295 -0.157416
C91   C     C_R   0.999783 0.826477 0.943696 -0.157403
C92   C     C_R   0.000218 0.826477 0.056303 -0.157409
C93   C     C_R   0.499776 0.365644 0.943620 -0.191548
C94   C     C_R   0.500224 0.365644 0.056381 -0.191549
C95   C     C_R   0.999785 0.865643 0.943610 -0.191559
C96   C     C_R   0.000216 0.865643 0.056389 -0.191557
C97   C     C_R   0.500000 0.385511 0.000000 -0.041279
C98   C     C_R   0.000000 0.885511 1.000000 -0.041278
C99   C     C_R   0.499999 0.307064 0.000000 0.157285
C100  C     C_R   0.000001 0.807064 0.999999 0.157241
C101  C     C_1   0.500000 0.267104 0.000000 -0.065027
C102  C     C_1   0.000001 0.767104 1.000000 -0.065012
C103  C     C_1   0.000000 0.733480 1.000000 -0.063595
C104  C     C_1   0.500000 0.233481 0.000000 -0.063662
C105  C     C_R   0.034777 0.673872 0.964783 0.231978
C106  C     C_R   0.965222 0.673872 0.035215 0.231975
C107  C     C_R   0.534779 0.173872 0.965121 0.231983
C108  C     C_R   0.465222 0.173872 0.034881 0.231985
C109  C     C_R   0.034164 0.634371 0.964792 -0.229353
C110  C     C_R   0.965836 0.634371 0.035207 -0.229339
C111  C     C_R   0.534166 0.134372 0.965114 -0.229335
C112  C     C_R   0.465834 0.134372 0.034887 -0.229345
C113  C     C_R   1.000000 0.614696 0.999999 -0.145554
C114  C     C_R   0.500000 0.114697 0.000000 -0.145581
C115  C     C_3   0.987716 0.538188 0.224857 -0.428546
C116  C     C_3   0.012284 0.538188 0.775142 -0.428547
C117  C     C_3   0.487717 0.038188 0.224856 -0.428534
C118  C     C_3   0.512284 0.038188 0.775142 -0.428535
C119  C     C_R   1.000000 0.693267 1.000000 -0.006844
C120  C     C_R   0.500000 0.193267 0.000000 -0.006852
C121  C     C_R   0.500102 0.673857 0.056398 -0.153475
C122  C     C_R   0.499898 0.673857 0.943602 -0.153476
C123  C     C_R   0.000107 0.173857 0.056393 -0.153475
C124  C     C_R   0.999893 0.173857 0.943606 -0.153476
C125  C     C_R   0.500100 0.634652 0.056481 -0.191104
C126  C     C_R   0.499900 0.634652 0.943519 -0.191103
C127  C     C_R   0.000105 0.134652 0.056476 -0.191103
C128  C     C_R   0.999895 0.134652 0.943524 -0.191103
C129  C     C_R   0.500000 0.614737 1.000000 -0.043137
C130  C     C_R   1.000000 0.114737 1.000000 -0.043137
C131  C     C_R   0.500000 0.693335 0.000000 0.151043
C132  C     C_R   1.000000 0.193335 1.000000 0.151042
C133  C     C_1   0.500000 0.733405 1.000000 -0.059812
C134  C     C_1   1.000000 0.233405 1.000000 -0.059811
C135  C     C_1   1.000000 0.267083 1.000000 0.008293
C136  C     C_1   0.500000 0.767083 1.000000 0.008293
C137  C     C_R   0.019260 0.326589 0.027352 -0.182219
C138  C     C_R   0.980740 0.326589 0.972648 -0.182218
C139  C     C_R   0.519260 0.826588 0.027351 -0.182219
C140  C     C_R   0.480740 0.826589 0.972648 -0.182219
C141  C     C_R   0.019404 0.365821 0.027508 0.331513
C142  C     C_R   0.980596 0.365821 0.972492 0.331513
C143  C     C_R   0.519404 0.865821 0.027507 0.331512
C144  C     C_R   0.480596 0.865821 0.972493 0.331513
C145  C     C_R   0.000000 0.385651 1.000000 -0.226867
C146  C     C_R   0.500000 0.885651 1.000000 -0.226867
C147  C     C_3   0.038218 0.488313 0.249146 -0.422554
C148  C     C_3   0.961782 0.488314 0.750854 -0.422557
C149  C     C_3   0.538218 0.988312 0.249146 -0.422554
C150  C     C_3   0.461782 0.988313 0.750854 -0.422555
C151  C     C_R   1.000000 0.307157 1.000000 0.003517
C152  C     C_R   0.500000 0.807157 1.000000 0.003517
C153  C     C_3   0.969402 0.470271 0.316402 0.055792
C154  C     C_3   0.030598 0.470271 0.683599 0.055794
C155  C     C_3   0.469401 0.970271 0.316402 0.055791
C156  C     C_3   0.530598 0.970271 0.683599 0.055792
C157  C     C_3   0.998502 0.499765 0.311870 0.083693
C158  C     C_3   0.001498 0.499765 0.688130 0.083693
C159  C     C_3   0.498502 0.999765 0.311869 0.083696
C160  C     C_3   0.501498 0.999765 0.688130 0.083695
C161  C     C_3   0.999678 0.498681 0.189899 0.117311
C162  C     C_3   0.000322 0.498681 0.810101 0.117312
C163  C     C_3   0.499678 0.998681 0.189899 0.117308
C164  C     C_3   0.500322 0.998681 0.810101 0.117308
C165  C     C_3   0.039377 0.489130 0.176584 -0.359546
C166  C     C_3   0.960623 0.489130 0.823416 -0.359545
C167  C     C_3   0.539377 0.989129 0.176584 -0.359551
C168  C     C_3   0.460623 0.989130 0.823416 -0.359551
H1    H     H_    0.011493 0.560004 0.286678 0.194850
H2    H     H_    0.988508 0.560004 0.713321 0.194850
H3    H     H_    0.511494 0.060004 0.286677 0.194843
H4    H     H_    0.488507 0.060004 0.713322 0.194844
H5    H     H_    0.979768 0.440418 0.218550 0.183489
H6    H     H_    0.020231 0.440418 0.781451 0.183490
H7    H     H_    0.479767 0.940419 0.218552 0.183487
H8    H     H_    0.520232 0.940418 0.781450 0.183488
H9    H     H_    0.045373 0.459480 0.258582 0.230326
H10   H     H_    0.954627 0.459481 0.741418 0.230326
H11   H     H_    0.545372 0.959479 0.258583 0.230326
H12   H     H_    0.454627 0.959480 0.741418 0.230326
H13   H     H_    0.048990 0.461273 0.149214 0.229729
H14   H     H_    0.951010 0.461274 0.850787 0.229729
H15   H     H_    0.548989 0.961272 0.149215 0.229731
H16   H     H_    0.451010 0.961273 0.850786 0.229731
H17   H     H_    0.688997 0.500644 0.910408 0.157728
H18   H     H_    0.311003 0.500649 0.089592 0.157726
H19   H     H_    0.188997 0.000638 0.910408 0.157730
H20   H     H_    0.811003 0.000642 0.089592 0.157728
H21   H     H_    0.620008 0.499921 0.980421 0.163518
H22   H     H_    0.379992 0.499925 0.019578 0.163517
H23   H     H_    0.120008 0.999915 0.980421 0.163518
H24   H     H_    0.879992 0.999919 0.019579 0.163518
H25   H     H_    0.619660 0.501332 0.779099 0.160295
H26   H     H_    0.380340 0.501328 0.220900 0.160296
H27   H     H_    0.119660 0.001338 0.779100 0.160296
H28   H     H_    0.880339 0.001334 0.220900 0.160296
H29   H     H_    0.688623 0.502071 0.710040 0.136483
H30   H     H_    0.311377 0.502067 0.289961 0.136483
H31   H     H_    0.188623 0.002078 0.710040 0.136483
H32   H     H_    0.811377 0.002073 0.289961 0.136483
H33   H     H_    0.962117 0.550304 0.340561 0.167193
H34   H     H_    0.037883 0.550304 0.659438 0.167193
H35   H     H_    0.462118 0.050305 0.340560 0.167197
H36   H     H_    0.537883 0.050304 0.659439 0.167197
H37   H     H_    0.810251 0.537672 0.611469 0.173019
H38   H     H_    0.189749 0.537672 0.388532 0.173019
H39   H     H_    0.310251 0.037672 0.611469 0.173020
H40   H     H_    0.689749 0.037671 0.388532 0.173019
H41   H     H_    0.499596 0.311360 0.900024 0.139621
H42   H     H_    0.500403 0.311360 0.099976 0.139622
H43   H     H_    0.999613 0.811360 0.900007 0.139650
H44   H     H_    0.000389 0.811360 0.099991 0.139649
H45   H     H_    0.499597 0.380294 0.899552 0.161414
H46   H     H_    0.500402 0.380294 0.100449 0.161414
H47   H     H_    0.999613 0.880294 0.899535 0.161416
H48   H     H_    0.000387 0.880294 0.100464 0.161416
H49   H     H_    0.060182 0.618569 0.938136 0.177391
H50   H     H_    0.939818 0.618568 0.061864 0.177389
H51   H     H_    0.560186 0.118568 0.938709 0.177400
H52   H     H_    0.439814 0.118569 0.061291 0.177401
H53   H     H_    0.500183 0.688957 0.100191 0.141519
H54   H     H_    0.499816 0.688957 0.899809 0.141519
H55   H     H_    0.000192 0.188957 0.100182 0.141519
H56   H     H_    0.999808 0.188957 0.899818 0.141520
H57   H     H_    0.500181 0.620003 0.100648 0.161540
H58   H     H_    0.499819 0.620003 0.899352 0.161540
H59   H     H_    0.000189 0.120003 0.100639 0.161540
H60   H     H_    0.999811 0.120003 0.899361 0.161540
H61   H     H_    0.033986 0.311271 0.048855 0.183877
H62   H     H_    0.966014 0.311271 0.951145 0.183877
H63   H     H_    0.533987 0.811271 0.048854 0.183878
H64   H     H_    0.466013 0.811271 0.951146 0.183878
H65   H     H_    0.958558 0.544703 0.238244 0.180089
H66   H     H_    0.041443 0.544702 0.761755 0.180088
H67   H     H_    0.458559 0.044704 0.238243 0.180111
H68   H     H_    0.541442 0.044703 0.761756 0.180113
H69   H     H_    0.006710 0.560135 0.186095 0.168224
H70   H     H_    0.993291 0.560135 0.813903 0.168223
H71   H     H_    0.506711 0.060134 0.186094 0.168205
H72   H     H_    0.493290 0.060134 0.813904 0.168206
H73   H     H_    0.059886 0.507898 0.246390 0.203485
H74   H     H_    0.940114 0.507899 0.753610 0.203484
H75   H     H_    0.559887 0.007897 0.246389 0.203481
H76   H     H_    0.440114 0.007898 0.753610 0.203480
H77   H     H_    0.060280 0.510620 0.140336 0.196241
H78   H     H_    0.939721 0.510621 0.859663 0.196241
H79   H     H_    0.560280 0.010619 0.140336 0.196228
H80   H     H_    0.439720 0.010620 0.859664 0.196227
H81   H     H_    0.977912 0.441951 0.325483 0.172538
H82   H     H_    0.022087 0.441951 0.674518 0.172538
H83   H     H_    0.477911 0.941951 0.325484 0.172537
H84   H     H_    0.522087 0.941951 0.674517 0.172538
H85   H     H_    0.942612 0.474281 0.251214 0.193905
H86   H     H_    0.057387 0.474280 0.748786 0.193905
H87   H     H_    0.442612 0.974282 0.251215 0.193908
H88   H     H_    0.557388 0.974280 0.748786 0.193907
O1    O     O_R   0.944550 0.531270 0.555450 -0.622668
O2    O     O_R   0.055450 0.531270 0.444550 -0.622668
O3    O     O_R   0.444550 0.031270 0.555450 -0.622672
O4    O     O_R   0.555450 0.031270 0.444550 -0.622670
O5    O     O_R   0.555400 0.500060 0.892310 -0.622449
O6    O     O_R   0.444600 0.500060 0.107690 -0.622450
O7    O     O_R   0.055400 0.000060 0.892310 -0.622449
O8    O     O_R   0.944600 0.000060 0.107690 -0.622450
O9    O     O_R   0.555410 0.500090 0.996860 -0.620368
O10   O     O_R   0.444590 0.500090 0.003140 -0.620369
O11   O     O_R   0.055410 0.000090 0.996860 -0.620368
O12   O     O_R   0.944590 0.000090 0.003140 -0.620368
O13   O     O_R   0.500010 0.555520 0.947680 -0.621549
O14   O     O_R   0.499990 0.555520 0.052320 -0.621549
O15   O     O_R   0.000010 0.055520 0.947680 -0.621549
O16   O     O_R   0.999990 0.055520 0.052320 -0.621549
O17   O     O_R   0.944500 0.468660 0.555500 -0.571828
O18   O     O_R   0.055500 0.468660 0.444500 -0.571828
O19   O     O_R   0.444500 0.968660 0.555500 -0.571827
O20   O     O_R   0.555500 0.968660 0.444500 -0.571828
O21   O     O_R   0.999990 0.531270 0.407410 -0.638535
O22   O     O_R   0.000010 0.531270 0.592590 -0.638535
O23   O     O_R   0.499990 0.031270 0.407410 -0.638537
O24   O     O_R   0.500010 0.031270 0.592590 -0.638536
O25   O     O_R   0.999940 0.468660 0.407460 -0.613541
O26   O     O_R   0.000060 0.468660 0.592540 -0.613541
O27   O     O_R   0.499940 0.968660 0.407460 -0.613541
O28   O     O_R   0.500060 0.968660 0.592540 -0.613541
O29   O     O_R   0.968670 0.555400 0.031330 -0.629168
O30   O     O_R   0.031330 0.555400 0.968670 -0.629167
O31   O     O_R   0.468670 0.055400 0.031330 -0.629169
O32   O     O_R   0.531330 0.055400 0.968670 -0.629170
O33   O     O_R   0.968670 0.499940 0.123930 -0.638148
O34   O     O_R   0.031330 0.499940 0.876070 -0.638148
O35   O     O_R   0.468670 0.999940 0.123930 -0.638126
O36   O     O_R   0.531330 0.999940 0.876070 -0.638125
O37   O     O_R   0.031270 0.499990 0.061330 -0.613607
O38   O     O_R   0.968730 0.499990 0.938670 -0.613607
O39   O     O_R   0.531270 0.999990 0.061330 -0.613628
O40   O     O_R   0.468730 0.999990 0.938670 -0.613628
O41   O     O_R   0.968660 0.444490 0.031330 -0.585260
O42   O     O_R   0.031340 0.444490 0.968670 -0.585260
O43   O     O_R   0.468660 0.944490 0.031330 -0.585259
O44   O     O_R   0.531340 0.944490 0.968670 -0.585260
O45   O     O_R   0.499920 0.444610 0.947830 -0.621601
O46   O     O_R   0.500080 0.444610 0.052170 -0.621601
O47   O     O_R   0.999920 0.944610 0.947830 -0.621599
O48   O     O_R   0.000080 0.944610 0.052170 -0.621600
Zn1   Zn    Zn3+2 0.000000 0.541770 0.500000 0.968534
Zn2   Zn    Zn3+2 0.500000 0.041770 0.500000 0.968523
Zn3   Zn    Zn3+2 0.000000 0.458160 0.500000 1.044833
Zn4   Zn    Zn3+2 0.500000 0.958160 0.500000 1.044833
Zn5   Zn    Zn3+2 0.958170 0.499940 0.041830 0.990602
Zn6   Zn    Zn3+2 0.041830 0.499940 0.958170 0.990602
Zn7   Zn    Zn3+2 0.458170 0.999940 0.041830 0.990602
Zn8   Zn    Zn3+2 0.541830 0.999940 0.958170 0.990602
Zn9   Zn    Zn3+2 0.499960 0.500060 0.930220 0.958030
Zn10  Zn    Zn3+2 0.500040 0.500060 0.069780 0.958030
Zn11  Zn    Zn3+2 0.999960 0.000060 0.930220 0.958032
Zn12  Zn    Zn3+2 0.000040 0.000060 0.069780 0.958032
Cl1   Cl    Cl    0.800903 0.452373 0.798662 -0.521671
Cl2   Cl    Cl    0.199097 0.452374 0.201337 -0.521670
Cl3   Cl    Cl    0.300903 0.952373 0.798662 -0.521675
Cl4   Cl    Cl    0.699097 0.952373 0.201337 -0.521674
Cl5   Cl    Cl    0.889721 0.452818 0.711874 -0.553172
Cl6   Cl    Cl    0.110279 0.452818 0.288125 -0.553173
Cl7   Cl    Cl    0.389721 0.952818 0.711874 -0.553175
Cl8   Cl    Cl    0.610279 0.952818 0.288125 -0.553176
N1    N     N_2   0.886505 0.542179 0.520203 -0.273843
H89   H     H_    0.912659 0.531692 0.482515 0.233809
C169  C     C_3   0.866833 0.558305 0.487184 -0.806417
H90   H     H_    0.887425 0.572159 0.434991 0.230645
H91   H     H_    0.846672 0.580213 0.523252 0.254032
H92   H     H_    0.851994 0.535891 0.475539 0.237957
N2    N     N_2   0.113494 0.542178 0.479798 -0.273843
H93   H     H_    0.087340 0.531691 0.517486 0.233808
C170  C     C_3   0.133167 0.558304 0.512817 -0.806419
H94   H     H_    0.112574 0.572158 0.565010 0.230644
H95   H     H_    0.153328 0.580213 0.476750 0.254032
H96   H     H_    0.148005 0.535891 0.524462 0.237957
N3    N     N_2   0.386506 0.042179 0.520203 -0.273848
H97   H     H_    0.412660 0.031692 0.482515 0.233811
C171  C     C_3   0.366833 0.058304 0.487183 -0.806401
H98   H     H_    0.387425 0.072158 0.434990 0.230650
H99   H     H_    0.346672 0.080212 0.523250 0.254032
H100  H     H_    0.351995 0.035890 0.475538 0.237959
N4    N     N_2   0.613494 0.042178 0.479798 -0.273848
H101  H     H_    0.587340 0.031691 0.517486 0.233808
C172  C     C_3   0.633167 0.058304 0.512817 -0.806398
H102  H     H_    0.612575 0.072158 0.565009 0.230650
H103  H     H_    0.653328 0.080213 0.476749 0.254032
H104  H     H_    0.648006 0.035891 0.524461 0.237958
N5    N     N_2   0.069563 0.694631 0.929396 -0.298005
H105  H     H_    0.069498 0.719611 0.953963 0.236074
C173  C     C_3   0.105334 0.675020 0.895144 -0.785709
H106  H     H_    0.128695 0.695796 0.869430 0.246739
H107  H     H_    0.108028 0.656082 0.851506 0.246185
H108  H     H_    0.108056 0.658801 0.936446 0.239790
N6    N     N_2   0.930435 0.694630 0.070602 -0.298009
H109  H     H_    0.930504 0.719619 0.046057 0.236080
C174  C     C_3   0.894665 0.675019 0.104807 -0.785709
H110  H     H_    0.871303 0.695793 0.130511 0.246734
H111  H     H_    0.891957 0.656073 0.148448 0.246180
H112  H     H_    0.891960 0.658808 0.063478 0.239799
N7    N     N_2   0.569568 0.194629 0.930074 -0.298001
H113  H     H_    0.569406 0.219629 0.954680 0.236070
C175  C     C_3   0.605329 0.175016 0.896290 -0.785671
H114  H     H_    0.628701 0.195789 0.870826 0.246742
H115  H     H_    0.608204 0.156062 0.852525 0.246220
H116  H     H_    0.607852 0.158815 0.937841 0.239768
N8    N     N_2   0.430434 0.194630 0.069928 -0.297999
H117  H     H_    0.430592 0.219623 0.045305 0.236066
C176  C     C_3   0.394671 0.175018 0.103747 -0.785671
H118  H     H_    0.371300 0.195792 0.129219 0.246746
H119  H     H_    0.391806 0.156069 0.147511 0.246224
H120  H     H_    0.392135 0.158811 0.062217 0.239761
Cl9   Cl    Cl    0.042839 0.389137 0.065297 -0.632633
Cl10  Cl    Cl    0.957161 0.389137 0.934702 -0.632632
Cl11  Cl    Cl    0.542840 0.889137 0.065296 -0.632632
Cl12  Cl    Cl    0.457160 0.889137 0.934704 -0.632632
N9    N     N_2   0.931483 0.478979 0.376360 -0.327758
H121  H     H_    0.918976 0.501935 0.367943 0.239970
C177  C     C_3   0.906243 0.447311 0.409022 -0.781097
H122  H     H_    0.879101 0.457217 0.456140 0.248440
H123  H     H_    0.918541 0.426341 0.429269 0.259009
H124  H     H_    0.900768 0.433863 0.368676 0.244445
N10   N     N_2   0.068517 0.478978 0.623640 -0.327757
H125  H     H_    0.081024 0.501934 0.632057 0.239969
C178  C     C_3   0.093757 0.447309 0.590980 -0.781096
H126  H     H_    0.120899 0.457215 0.543862 0.248440
H127  H     H_    0.081458 0.426339 0.570733 0.259008
H128  H     H_    0.099231 0.433862 0.631327 0.244444
N11   N     N_2   0.431482 0.978981 0.376361 -0.327758
H129  H     H_    0.418976 0.001936 0.367943 0.239973
C179  C     C_3   0.406242 0.947313 0.409023 -0.781099
H130  H     H_    0.379100 0.957219 0.456141 0.248441
H131  H     H_    0.418540 0.926342 0.429271 0.259008
H132  H     H_    0.400767 0.933865 0.368677 0.244446
N12   N     N_2   0.568517 0.978979 0.623640 -0.327757
H133  H     H_    0.581024 0.001934 0.632056 0.239972
C180  C     C_3   0.593757 0.947310 0.590979 -0.781095
H134  H     H_    0.620899 0.957216 0.543860 0.248440
H135  H     H_    0.581458 0.926340 0.570733 0.259007
H136  H     H_    0.599232 0.933863 0.631325 0.244445

loop_
_geom_bond_atom_site_label_1
_geom_bond_atom_site_label_2
_ccdc_geom_bond_type
C179  H132  S    
C174  H110  S    
C55   C59   A    
C108  C120  A    
C141  Cl9   S    
O17   Zn3   S    
N3    H97   S    
C48   O28   A    
C170  H94   S    
C117  C163  S    
C78   O48   A    
C118  C164  S    
C89   C99   A    
C154  C158  S    
C180  H135  S    
C155  N11   S    
C29   C33   S    
C139  C152  A    
C149  H11   S    
O9    Zn10  S    
C171  H99   S    
C9    C13   A    
C106  N6    S    
C11   C15   A    
O19   Zn4   S    
C59   N3    S    
C37   C65   S    
C91   C100  A    
C140  C152  A    
C141  C145  A    
C176  H120  S    
C69   O30   A    
C76   C146  S    
C4    O4    A    
C4    C56   S    
C126  H58   S    
C41   C49   A    
C136  C152  S    
C47   O23   A    
O48   Zn12  S    
C48   O24   A    
C25   C29   A    
C94   H46   S    
C27   C31   A    
C28   C32   A    
C62   C66   A    
C6    H6    S    
C94   C97   A    
C7    C163  S    
C8    H88   S    
C17   C21   A    
C5    C161  S    
C19   C23   A    
O36   Zn8   S    
C83   C115  S    
C2    O18   A    
O30   Zn6   S    
C10   C30   A    
N6    H109  S    
C83   C157  S    
C156  C160  S    
C16   C20   A    
C150  C168  S    
C173  H107  S    
C80   O6    A    
C172  H104  S    
C85   C117  S    
O37   Zn6   S    
C164  C168  S    
C99   C101  S    
C174  H112  S    
C45   O21   A    
C8    C164  S    
N11   H129  S    
N10   H125  S    
C107  C120  A    
C169  H91   S    
C170  H96   S    
C15   H23   S    
C71   C161  S    
C149  H75   S    
C96   H48   S    
C41   C65   A    
O42   Zn6   S    
C57   C61   A    
C138  C151  A    
C59   C63   A    
C52   Cl8   S    
C60   C64   A    
C75   O42   A    
C73   C163  S    
O8    Zn12  S    
C74   C164  S    
O29   Zn5   S    
C3    O3    A    
C83   H1    S    
C60   N4    S    
C58   N2    S    
C51   C55   A    
C125  C129  A    
C117  H71   S    
O20   Zn4   S    
C70   O31   A    
C122  H54   S    
C24   H28   S    
C139  H63   S    
C62   H38   S    
C161  C165  S    
C178  H127  S    
N5    H105  S    
C20   C82   S    
C123  C132  A    
O6    Zn10  S    
C139  C143  A    
C173  H106  S    
C166  H14   S    
C112  C114  A    
C173  H108  S    
C167  H79   S    
C47   C159  S    
C50   Cl6   S    
C69   C113  S    
C85   H3    S    
C80   O10   A    
C64   C68   A    
C84   H2    S    
C49   C53   A    
C147  H73   S    
C46   C158  S    
C92   C96   A    
C124  C132  A    
C71   O37   A    
C5    H85   S    
N1    C169  S    
C72   O34   A    
C147  C165  S    
C153  N9    S    
C124  H56   S    
C96   C98   A    
C77   C97   S    
C44   C52   A    
C84   C116  S    
C148  H74   S    
C111  H51   S    
O7    Zn11  S    
C144  Cl12  S    
O33   Zn5   S    
C30   C34   S    
C155  C159  S    
C166  H78   S    
C12   C16   A    
C138  H62   S    
O10   Zn9   S    
C45   C157  S    
C91   H43   S    
C10   C14   A    
C115  H69   S    
C84   C158  S    
C177  H124  S    
C89   H41   S    
C154  H82   S    
C115  C161  S    
O25   Zn3   S    
C121  C125  A    
O2    Zn1   S    
C61   C65   A    
C149  C159  S    
C147  H9    S    
C88   O15   A    
C123  C127  A    
O39   Zn8   S    
C128  H60   S    
O40   Zn7   S    
C112  H52   S    
C43   Cl3   S    
C44   Cl4   S    
C47   O27   A    
C42   C50   A    
O22   Zn1   S    
C132  C134  S    
N6    C174  S    
C26   C30   A    
N4    C172  S    
C40   C68   S    
C46   O26   A    
C175  H116  S    
C92   H44   S    
C93   C97   A    
C90   C99   A    
O27   Zn4   S    
C118  H72   S    
C179  H131  S    
C105  C109  A    
C148  H10   S    
C2    O2    A    
C18   C22   A    
C5    H5    S    
C24   C28   A    
C76   O43   A    
C8    H8    S    
C3    O19   A    
C77   O46   A    
C13   C17   A    
C87   C129  S    
C180  H134  S    
C82   O8    A    
O28   Zn4   S    
O38   Zn5   S    
C10   H18   S    
C89   C93   A    
C102  C103  T    
C26   H30   S    
N9    C177  S    
C109  H49   S    
O47   Zn11  S    
C14   H22   S    
C171  H100  S    
C56   C60   A    
C43   C67   A    
C116  H66   S    
C81   O11   A    
C72   C162  S    
C82   O12   A    
C21   H25   S    
C19   C81   S    
O1    Zn1   S    
C61   H37   S    
C176  H119  S    
C81   O7    A    
C58   C62   A    
C143  C146  A    
C69   O29   A    
C86   H4    S    
C106  C119  A    
C148  C166  S    
C122  C131  A    
C149  C167  S    
O21   Zn1   S    
C107  N7    S    
C177  H122  S    
C15   C19   A    
N7    C175  S    
O45   Zn9   S    
C50   C54   A    
C150  C160  S    
C143  Cl11  S    
C154  N10   S    
C75   C145  S    
C87   O14   A    
C54   C58   A    
O13   Zn9   S    
C117  H67   S    
C137  C151  A    
C21   C25   A    
C162  C166  S    
C39   C67   S    
C175  H114  S    
C172  H103  S    
C124  C128  A    
C150  H76   S    
C174  H111  S    
C63   H39   S    
O46   Zn10  S    
C127  H59   S    
C142  C145  A    
C107  C111  A    
C125  H57   S    
N3    C171  S    
O18   Zn3   S    
C90   C94   A    
C1    O1    A    
C170  H95   S    
C78   O47   A    
C93   H45   S    
C137  H61   S    
C138  C142  A    
C180  H136  S    
C53   C57   A    
C57   N1    S    
C33   C37   T    
C108  C112  A    
C75   O41   A    
C35   C39   T    
N2    H93   S    
C48   C160  S    
C171  H98   S    
C41   Cl1   S    
C73   O35   A    
C74   O36   A    
O41   Zn5   S    
C134  C135  T    
C144  C146  A    
O34   Zn6   S    
C101  C104  T    
C70   O32   A    
C2    C54   S    
C79   O5    A    
C105  N5    S    
O11   Zn12  S    
C32   C36   S    
C115  H65   S    
C150  H12   S    
C178  H126  S    
C137  C141  A    
C155  H83   S    
C7    H87   S    
C140  C144  A    
C128  C130  A    
N12   H133  S    
C156  H84   S    
C27   H31   S    
C42   Cl2   S    
C126  C129  A    
C169  H90   S    
C43   C51   A    
C123  H55   S    
C135  C151  S    
C46   O22   A    
C111  C114  A    
C153  C157  S    
N1    H89   S    
C85   H35   S    
C118  H68   S    
C7    C155  S    
C22   C26   A    
N11   C179  S    
C121  H53   S    
C105  C119  A    
C85   C159  S    
C86   C160  S    
C104  C120  S    
N4    H101  S    
C95   H47   S    
C14   C18   A    
N8    H117  S    
C88   C130  S    
C83   H33   S    
C95   C98   A    
C179  H130  S    
C51   Cl7   S    
C70   C114  S    
C64   H40   S    
C28   H32   S    
C156  N12   S    
C11   H19   S    
C116  C162  S    
C9    H17   S    
C177  H123  S    
C76   O44   A    
C12   H20   S    
C116  H70   S    
C17   C79   S    
C13   H21   S    
C6    H86   S    
O16   Zn12  S    
O44   Zn8   S    
C1    C53   S    
C16   H24   S    
O12   Zn11  S    
C88   O16   A    
C167  H15   S    
C6    C162  S    
C168  H16   S    
C7    H7    S    
C78   C98   S    
C133  C136  T    
C23   C27   A    
C1    O17   A    
O35   Zn7   S    
C9    C29   A    
C178  H128  S    
C11   C31   A    
N5    C173  S    
C12   C32   A    
C175  H115  S    
C3    C55   S    
C121  C131  A    
C8    C156  S    
O3    Zn2   S    
O24   Zn2   S    
O14   Zn10  S    
C63   C67   A    
C45   O25   A    
C4    O20   A    
C20   C24   A    
C36   C40   T    
C165  H77   S    
C86   C118  S    
C90   H42   S    
O23   Zn2   S    
C77   O45   A    
C153  H81   S    
O4    Zn2   S    
C142  Cl10  S    
C122  C126  A    
C163  C167  S    
N10   C178  S    
C100  C102  S    
C6    C154  S    
N2    C170  S    
C110  C113  A    
N9    H121  S    
O43   Zn7   S    
C168  H80   S    
C44   C68   A    
C23   H27   S    
C147  C157  S    
C86   H36   S    
C49   Cl5   S    
C92   C100  A    
C176  H118  S    
C106  C110  A    
C84   H34   S    
C38   C66   S    
C34   C38   T    
O15   Zn11  S    
C103  C119  S    
C131  C133  S    
C169  H92   S    
C108  N8    S    
C140  H64   S    
C109  C113  A    
N7    H113  S    
C148  C158  S    
O5    Zn9   S    
C73   O39   A    
C165  H13   S    
C74   O40   A    
C127  C130  A    
O26   Zn3   S    
C87   O13   A    
N12   C180  S    
C5    C153  S    
C79   O9    A    
C31   C35   S    
N8    C176  S    
C110  H50   S    
C25   H29   S    
C91   C95   A    
C18   C80   S    
C42   C66   A    
C22   H26   S    
C71   O33   A    
O31   Zn7   S    
C172  H102  S    
C72   O38   A    
O32   Zn8   S    
C52   C56   A    
