data_mof_unit_16922.cif
_audit_creation_date              2013-03-05T16:14:04-0500
_audit_creation_method            fapswitch 2.2
_symmetry_space_group_name_H-M    P1
_symmetry_Int_Tables_number       1
_space_group_crystal_system       triclinic
_cell_length_a                    8.263621
_cell_length_b                    17.465744
_cell_length_c                    22.952543
_cell_angle_alpha                 99.893062
_cell_angle_beta                  89.591135
_cell_angle_gamma                 98.10618
_cell_volume                      3230.38368428

loop_
_atom_site_label
_atom_site_type_symbol
_atom_site_description
_atom_site_fract_x
_atom_site_fract_y
_atom_site_fract_z
_atom_type_partial_charge
P1    P     P_3+3 0.055640 0.433080 0.366120 0.493003
O1    O     O_2   0.889310 0.456460 0.358460 -0.361722
O2    O     O_3   0.129890 0.457280 0.429550 -0.362212
O3    O     O_3   0.674650 0.600620 0.400940 -0.326775
O4    O     O_2   0.793938 0.548502 0.294864 -0.416592
O5    O     O_3   0.024114 0.331583 0.341939 -0.603195
O6    O     O_3   0.707113 0.687934 0.307343 -0.535940
H1    H     H_    0.670044 0.743704 0.392827 0.119560
C1    C     C_3   0.655703 0.820908 0.330603 -1.001969
H2    H     H_    0.788561 0.843258 0.334189 0.270876
H3    H     H_    0.612120 0.818939 0.284639 0.272997
P2    P     P_3+3 0.671420 0.681950 0.554390 0.548257
P3    P     P_3+3 0.128553 0.743871 0.441172 0.482471
O7    O     O_2   0.849130 0.693580 0.537840 -0.386887
O8    O     O_3   0.093680 0.641380 0.431770 -0.332362
O9    O     O_2   0.967179 0.775169 0.461251 -0.408247
O10   O     O_3   0.674734 0.706022 0.631545 -0.552971
O11   O     O_3   0.164801 0.771516 0.371843 -0.556146
C2    C     C_3   0.116709 0.706387 0.327485 0.441263
H4    H     H_    0.993879 0.676430 0.335948 0.176176
H5    H     H_    0.206283 0.664147 0.324845 0.066070
C3    C     C_3   0.108943 0.733837 0.268427 -0.864528
H6    H     H_    0.026165 0.779161 0.271162 0.260061
H7    H     H_    0.232936 0.759062 0.256210 0.264661
C4    C     C_3   0.219126 0.714475 0.619289 0.130145
H8    H     H_    0.349805 0.709760 0.611210 0.070275
H9    H     H_    0.147734 0.697434 0.577133 0.083246
C5    C     C_3   0.197890 0.799027 0.648451 0.690820
H10   H     H_    0.064430 0.801303 0.644117 0.031795
Ba1   Ba    Ba6+2 0.857050 0.537370 0.474190 1.611845
C6    C     C_3   0.965789 0.291556 0.387002 0.236727
H11   H     H_    0.857907 0.315655 0.407365 0.078601
H12   H     H_    0.062605 0.296531 0.421071 0.125381
C7    C     C_3   0.916923 0.205400 0.358937 0.004802
H13   H     H_    0.793082 0.199025 0.338832 0.143421
H14   H     H_    0.998801 0.188186 0.321467 0.122924
C8    C     C_3   0.730843 0.647995 0.657231 0.351214
H15   H     H_    0.837171 0.626613 0.633623 0.112170
H16   H     H_    0.629758 0.598920 0.656938 0.088433
C9    C     C_3   0.782396 0.684169 0.720757 -0.929339
H17   H     H_    0.878157 0.735721 0.721167 0.287181
H18   H     H_    0.832335 0.641597 0.743463 0.239838
H19   H     H_    0.675832 0.703545 0.745771 0.234148
P4    P     P_3+3 0.134070 0.566990 0.633890 0.523366
O12   O     O_2   0.300380 0.543560 0.641570 -0.383111
O13   O     O_3   0.059830 0.542790 0.570460 -0.376230
O14   O     O_3   0.515070 0.399440 0.599070 -0.325647
O15   O     O_3   0.161177 0.667681 0.660396 -0.553710
P5    P     P_3+3 0.060929 0.257794 0.564842 0.559616
O16   O     O_3   0.612780 0.404640 0.465950 -0.393363
O17   O     O_3   0.096040 0.358680 0.568240 -0.382873
O18   O     O_2   0.205188 0.222631 0.532369 -0.298912
O19   O     O_3   0.075829 0.240059 0.636922 -0.466289
Ba2   Ba    Ba6+2 0.332790 0.462700 0.525820 1.615725
P6    P     P_3+3 0.656870 0.593225 0.323672 0.455443
C10   C     C_3   0.624307 0.739316 0.346773 0.456859
H20   H     H_    0.490247 0.719584 0.344285 0.079589
H21   H     H_    0.589311 0.861659 0.361197 0.227964
O20   O     O_3   0.576930 0.595420 0.534060 -0.323974
C11   C     C_3   0.472836 0.346334 0.342133 0.399352
H22   H     H_    0.353061 0.359834 0.359855 0.099240
H23   H     H_    0.567227 0.398919 0.352689 0.117464
C12   C     C_3   0.455995 0.323309 0.275226 -0.976391
H24   H     H_    0.361156 0.271141 0.263520 0.265647
H25   H     H_    0.419726 0.372319 0.255687 0.231588
H26   H     H_    0.574463 0.309143 0.256288 0.267930
P7    P     P_3+3 0.524257 0.306064 0.442419 0.490065
O21   O     O_2   0.340570 0.306450 0.462190 -0.360682
O22   O     O_3   0.519478 0.283469 0.365177 -0.576673
H27   H     H_    0.060459 0.683361 0.233864 0.252552
C13   C     C_3   0.936985 0.261935 0.667371 0.280301
H28   H     H_    0.922914 0.323712 0.665079 0.055813
H29   H     H_    0.825742 0.222388 0.648566 0.098030
C14   C     C_3   0.952256 0.254692 0.732119 0.552316
H30   H     H_    0.838480 0.268579 0.754898 0.085277
P8    P     P_3+3 0.548690 0.410608 0.675344 0.466395
C15   C     C_3   0.460254 0.260796 0.679503 0.946935
O23   O     O_2   0.383242 0.422334 0.705216 -0.425974
O24   O     O_3   0.594878 0.320598 0.690377 -0.607000
H31   H     H_    0.342517 0.282902 0.677581 0.168751
H32   H     H_    0.565896 0.185045 0.730156 0.245984
C16   C     C_3   0.452495 0.212146 0.728790 -0.895495
H33   H     H_    0.346215 0.164810 0.721317 0.276343
H34   H     H_    0.439053 0.250117 0.772104 0.273009
C17   C     C_R   0.345876 0.512017 0.330568 -0.442434
C18   C     C_R   0.071167 0.579271 0.949461 -0.030462
C19   C     C_R   0.018550 0.578558 0.890649 0.533624
O25   O     O_2   0.024210 0.640514 0.872303 -0.543118
N1    N     N_R   0.957126 0.508843 0.854331 -0.168460
C20   C     C_R   0.924432 0.440831 0.878821 0.644352
O26   O     O_2   0.849942 0.382011 0.849178 -0.565648
C21   C     C_R   0.975631 0.438827 0.937935 -0.291802
C22   C     C_R   0.051601 0.508960 0.973061 -0.054537
C23   C     C_R   0.142297 0.649335 0.985366 -0.146299
C24   C     C_R   0.192762 0.650156 0.043428 -0.117958
C25   C     C_R   0.172090 0.581129 0.068176 0.011770
C26   C     C_R   0.101208 0.510063 0.032906 -0.057591
C27   C     C_R   0.953557 0.368901 0.962987 0.448170
C28   C     C_R   0.011469 0.369206 0.020958 0.444712
C29   C     C_R   0.077889 0.440829 0.057695 -0.299276
C30   C     C_R   0.118592 0.445312 0.118814 0.592280
N2    N     N_R   0.192042 0.514962 0.152861 -0.163705
C31   C     C_R   0.219821 0.582288 0.127605 0.506509
C32   C     C_2   0.763735 0.484100 0.770133 -0.212433
C33   C     C_3   0.721090 0.487148 0.706292 0.125846
C34   C     C_1   0.010411 0.520870 0.689786 0.202759
C35   C     C_2   0.050179 0.533130 0.748068 0.425990
C36   C     C_2   0.919653 0.507302 0.791320 0.039652
C37   C     C_R   0.403902 0.548325 0.234712 -0.232535
C38   C     C_R   0.453945 0.546682 0.292953 0.217586
C39   C     C_R   0.185343 0.482824 0.313401 0.285269
C40   C     C_R   0.133211 0.484619 0.255191 -0.210229
C41   C     C_R   0.242469 0.516671 0.214495 0.112199
O27   O     O_2   0.088550 0.386950 0.141747 -0.569696
O28   O     O_2   0.284338 0.643865 0.157063 -0.611706
C42   C     C_2   0.870765 0.479630 0.668889 -0.490345
H35   H     H_    0.246814 0.705643 0.069208 0.167210
H36   H     H_    0.490721 0.573441 0.205239 0.180286
H37   H     H_    0.159824 0.704152 0.968555 0.168560
H38   H     H_    0.666217 0.468990 0.799878 0.171567
H39   H     H_    0.009152 0.460017 0.241388 0.193711
H40   H     H_    0.389134 0.505178 0.373325 0.198838
H41   H     H_    0.861980 0.444320 0.624874 0.180862
C43   C     C_2   0.427100 0.727160 0.493932 0.018381
C44   C     C_3   0.304056 0.783858 0.493347 0.210451
C45   C     C_2   0.395166 0.859605 0.480209 -0.280027
C46   C     C_2   0.549350 0.882898 0.502409 -0.045754
C47   C     C_2   0.621084 0.829327 0.538145 0.381772
C48   C     C_1   0.566138 0.752901 0.523793 0.148674
C49   C     C_R   0.806223 0.134430 0.522975 0.383412
C50   C     C_R   0.863068 0.214921 0.529067 0.161553
C51   C     C_R   0.626074 0.235761 0.475607 0.255209
C52   C     C_R   0.577457 0.153955 0.462000 0.484251
C53   C     C_R   0.659193 0.103111 0.490407 -0.106032
C54   C     C_2   0.644437 0.957561 0.490949 -0.219515
C55   C     C_2   0.573273 0.022677 0.491904 -0.110685
C56   C     C_R   0.767535 0.265240 0.509337 -0.542531
H42   H     H_    0.441442 0.018278 0.495267 0.172183
H43   H     H_    0.774747 0.958967 0.484970 0.195856
H44   H     H_    0.336577 0.894330 0.453935 0.166366
H45   H     H_    0.808865 0.327803 0.517296 0.178546
O29   O     O_3   0.237103 0.814307 0.710235 -0.627863
C57   C     C_3   0.401842 0.806869 0.721642 0.315403
H46   H     H_    0.486980 0.830236 0.689288 0.172730
H47   H     H_    0.414015 0.744166 0.720718 0.145535
C58   C     C_3   0.453019 0.851994 0.782887 -0.929611
H48   H     H_    0.372190 0.829042 0.816705 0.285921
H49   H     H_    0.581199 0.845295 0.792668 0.227946
H50   H     H_    0.444640 0.915302 0.784945 0.258380
O30   O     O_3   0.284355 0.856498 0.618677 -0.694396
C59   C     C_3   0.255543 0.932402 0.646322 0.258871
H51   H     H_    0.337786 0.953350 0.685675 0.142716
H52   H     H_    0.127188 0.933524 0.660582 0.106497
C60   C     C_3   0.289705 0.990126 0.603945 -0.757145
H53   H     H_    0.252296 0.047350 0.623996 0.280932
H54   H     H_    0.422295 0.999450 0.595477 0.252260
H55   H     H_    0.219925 0.967620 0.561875 0.255840
O31   O     O_3   0.910242 0.156775 0.402338 -0.689877
C61   C     C_3   0.046752 0.115973 0.400161 0.332257
H56   H     H_    0.073644 0.107008 0.445530 0.189160
H57   H     H_    0.159890 0.149622 0.385656 0.143200
C62   C     C_3   0.006847 0.035232 0.361631 -0.977948
H58   H     H_    0.985290 0.041238 0.315058 0.251847
H59   H     H_    0.110036 0.001279 0.363428 0.245838
H60   H     H_    0.895643 0.002487 0.378028 0.267630
Cl1   Cl    Cl    0.119759 0.322032 0.767027 -0.689125
Cl2   Cl    Cl    0.979346 0.157167 0.739025 -0.673609
Cl3   Cl    Cl    0.486008 0.198683 0.611314 -0.689701
O32   O     O_3   0.988759 0.299173 0.042648 -0.569347
C63   C     C_3   0.138874 0.268362 0.041439 0.325309
H61   H     H_    0.243629 0.313271 0.059734 0.101550
H62   H     H_    0.168974 0.243342 0.995665 0.061121
C64   C     C_3   0.123831 0.202838 0.077963 -0.795847
H63   H     H_    0.023106 0.155811 0.059975 0.238250
H64   H     H_    0.239905 0.177380 0.076517 0.200493
H65   H     H_    0.098035 0.226214 0.124696 0.277300
O33   O     O_3   0.857904 0.301523 0.934296 -0.586407
C65   C     C_3   0.955732 0.250863 0.900238 0.404403
H66   H     H_    0.089892 0.266719 0.908916 0.039546
H67   H     H_    0.934769 0.252164 0.853067 0.201808
C66   C     C_3   0.901225 0.166856 0.909388 -0.855681
H68   H     H_    0.772189 0.147873 0.894185 0.263948
H69   H     H_    0.979427 0.127067 0.883482 0.238716
H70   H     H_    0.910629 0.162393 0.956822 0.259105
O34   O     O_3   0.169249 0.595707 0.769824 -0.580462
C67   C     C_3   0.310902 0.567719 0.786685 0.330683
H71   H     H_    0.388853 0.557130 0.747624 0.145860
H72   H     H_    0.283438 0.513423 0.806583 0.107317
C68   C     C_3   0.411269 0.630663 0.831407 -0.903134
H73   H     H_    0.345887 0.641123 0.873683 0.270485
H74   H     H_    0.529879 0.611401 0.840225 0.212939
H75   H     H_    0.435738 0.686404 0.813821 0.263411
O35   O     O_3   0.649740 0.853755 0.598582 -0.627989
C69   C     C_3   0.756243 0.924482 0.611923 0.306030
H76   H     H_    0.694430 0.973999 0.603797 0.177091
H77   H     H_    0.871075 0.921303 0.586461 0.133922
C70   C     C_3   0.798232 0.939584 0.677659 -0.844156
H78   H     H_    0.848185 0.888627 0.689957 0.246753
H79   H     H_    0.890078 0.992874 0.688523 0.278140
H80   H     H_    0.687184 0.949318 0.703823 0.248869
Cl4   Cl    Cl    0.920813 0.077163 0.558336 -0.715304
O36   O     O_3   0.448608 0.125591 0.421870 -0.638416
C71   C     C_3   0.493181 0.067735 0.375392 0.223701
H81   H     H_    0.424774 0.009716 0.380153 0.117558
H82   H     H_    0.626066 0.062266 0.374363 0.138038
C72   C     C_3   0.448133 0.086014 0.315537 -0.880210
H83   H     H_    0.516952 0.142811 0.308619 0.278538
H84   H     H_    0.479790 0.039263 0.279862 0.216576
H85   H     H_    0.315572 0.088623 0.312206 0.252047
Cl5   Cl    Cl    0.397989 0.634594 0.450251 -0.606571

loop_
_geom_bond_atom_site_label_1
_geom_bond_atom_site_label_2
_geom_bond_distance
_ccdc_geom_bond_type
C57   C58   1.519822 S    
C69   H77   1.113962 S    
C19   O25   1.221657 D    
C12   H25   1.108978 S    
C5    O30   1.418312 S    
C30   N2    1.389536 Am   
C42   H41   1.086531 S    
O2    Ba1   2.907568 S    
O32   C63   1.418390 S    
C33   C42   1.508630 S    
C24   C25   1.407546 A    
P8    O24   1.758898 S    
O6    P6    1.751062 S    
C71   H81   1.110852 S    
C47   C48   1.332874 D    
H1    C10   1.111651 S    
H32   C16   1.110778 S    
O34   C67   1.411297 S    
C21   C27   1.425645 A    
C54   C55   1.348933 D    
C64   H63   1.110623 S    
C24   H35   1.083273 S    
C15   Cl3   1.774440 S    
C54   H43   1.081940 S    
Ba1   Ba2   4.539168 S    
C45   H44   1.085623 S    
C45   C46   1.356601 D    
C44   C45   1.503649 S    
C43   Cl5   1.736000 S    
P3    O11   1.752554 S    
C11   C12   1.521342 S    
C11   O22   1.398474 S    
C21   C22   1.412649 A    
C5    H10   1.114930 S    
C2    H5    1.110794 S    
P8    O23   1.548743 D    
O14   P8    1.747688 S    
C7    H13   1.108865 S    
C8    C9    1.524152 S    
O2    Ba2   2.763873 S    
C72   H84   1.110439 S    
C15   H31   1.100015 S    
C69   C70   1.520328 S    
Ba2   O21   2.874587 S    
C63   H61   1.114203 S    
C57   H46   1.108486 S    
C58   H50   1.110525 S    
C52   O36   1.391398 S    
C10   H20   1.111659 S    
C11   H23   1.111225 S    
P1    O1    1.507742 D    
C59   C60   1.514933 S    
C68   H74   1.110878 S    
C32   C33   1.521059 S    
C18   C23   1.407020 A    
N2    C31   1.388411 Am   
P2    O20   1.594230 S    
C9    H19   1.108911 S    
C2    H4    1.106385 S    
C51   C52   1.409620 A    
P5    O17   1.733197 S    
P2    O10   1.747928 S    
C35   C36   1.534236 S    
C61   H57   1.112741 S    
C1    H2    1.110813 S    
C60   H54   1.105583 S    
C37   C41   1.418893 A    
P3    C44   1.864655 S    
C32   C36   1.361904 D    
C64   H64   1.110673 S    
C69   H76   1.106822 S    
Ba1   O16   2.831893 S    
C12   H26   1.110769 S    
Ba1   O20   2.900407 S    
C30   O27   1.220198 D    
C40   C41   1.423444 A    
C49   C53   1.421007 A    
O6    C10   1.406403 S    
O7    Ba1   2.874322 S    
C3    H6    1.110651 S    
C14   Cl2   1.782539 S    
P4    O13   1.550090 S    
C37   H36   1.082160 S    
C65   H66   1.114931 S    
C58   H49   1.110603 S    
Ba2   O20   2.831129 S    
C15   O24   1.406257 S    
C61   C62   1.524456 S    
C71   C72   1.522956 S    
P5    C50   1.836012 S    
O29   C57   1.416097 S    
O36   C71   1.422594 S    
P7    O21   1.581790 D    
C2    C3    1.518117 S    
C47   O35   1.391128 S    
C60   H55   1.110417 S    
C55   H42   1.084383 S    
C17   C38   1.387675 A    
P2    C48   1.843251 S    
C66   H69   1.110548 S    
C13   H29   1.110224 S    
C72   H83   1.107449 S    
O11   C2    1.403126 S    
C53   C55   1.487901 S    
C51   C56   1.391830 A    
C66   H68   1.111098 S    
C16   H33   1.110377 S    
P1    O5    1.747057 S    
C34   C42   1.317311 D    
C11   H22   1.108070 S    
P1    O2    1.550120 S    
C68   H75   1.109048 S    
C31   O28   1.221324 D    
C8    H15   1.105141 S    
C50   C56   1.392204 A    
C18   C22   1.413858 A    
C62   H60   1.110858 S    
C71   H82   1.115336 S    
C23   H37   1.083311 S    
C20   C21   1.431731 A    
C61   H56   1.107867 S    
C59   H51   1.112063 S    
P5    O18   1.546070 D    
C25   C26   1.412625 A    
O13   Ba2   2.908401 S    
C6    H12   1.106846 S    
C6    C7    1.530238 S    
C17   H40   1.078168 S    
C1    C10   1.520501 S    
O16   Ba2   2.899567 S    
C27   O33   1.386410 S    
C1    H3    1.110566 S    
C4    O15   1.391272 S    
C60   H53   1.110552 S    
C49   Cl4   1.764338 S    
O33   C65   1.415117 S    
O14   Ba2   2.731334 S    
C7    O31   1.411866 S    
C9    H17   1.110526 S    
P2    O7    1.508826 D    
O12   Ba2   2.816353 S    
C27   C28   1.416142 A    
C23   C24   1.396352 A    
C16   H34   1.110476 S    
C70   H80   1.110265 S    
P3    O8    1.748340 S    
O3    P6    1.761607 S    
O31   C61   1.412992 S    
C3    H7    1.110698 S    
C25   C31   1.418638 A    
C5    O29   1.428056 S    
O10   C8    1.389773 S    
C67   H72   1.116286 S    
C46   C47   1.525342 S    
O19   C13   1.404027 S    
C22   C26   1.432454 A    
C14   Cl1   1.781617 S    
C26   C29   1.411453 A    
P4    O12   1.508029 D    
O8    Ba1   2.765964 S    
C58   H48   1.110562 S    
O16   P7    1.766917 S    
C66   H70   1.108821 S    
C68   H73   1.107376 S    
C57   H47   1.110392 S    
C56   H45   1.082166 S    
C1    H21   1.110664 S    
C39   C40   1.413518 A    
P2    Ba1   3.401922 S    
C18   C19   1.418616 A    
O4    P6    1.546500 D    
C6    H11   1.105734 S    
C46   C54   1.487649 S    
C17   C39   1.386625 A    
C13   C14   1.520620 S    
C65   H67   1.102257 S    
C28   O32   1.386524 S    
P4    C34   1.855620 S    
C62   H58   1.109947 S    
C35   O34   1.388612 S    
C28   C29   1.423938 A    
Ba1   O13   2.763271 S    
O1    Ba1   2.816069 S    
O17   Ba2   2.766676 S    
C67   C68   1.522306 S    
C70   H79   1.108268 S    
C49   C50   1.401325 A    
C4    H8    1.106480 S    
C13   H28   1.111504 S    
P6    C38   1.845377 S    
C62   H59   1.109957 S    
C37   C38   1.408280 A    
P1    C39   1.856867 S    
C72   H85   1.106515 S    
C20   O26   1.218493 D    
C52   C53   1.429776 A    
C63   H62   1.107152 S    
C15   C16   1.523083 S    
P5    O19   1.742986 S    
C63   C64   1.521835 S    
N1    C36   1.476110 S    
C9    H18   1.103411 S    
P1    Ba1   3.375817 S    
C64   H65   1.110630 S    
P7    C51   1.848727 S    
C43   C48   1.323506 D    
O5    C6    1.391805 S    
C7    H14   1.117158 S    
C59   H52   1.109617 S    
C70   H78   1.110751 S    
C67   H71   1.105124 S    
C65   C66   1.522492 S    
C4    C5    1.546409 S    
C12   H24   1.110896 S    
P4    Ba2   3.376416 S    
C40   H39   1.081489 S    
C14   H30   1.109006 S    
C8    H16   1.108451 S    
O35   C69   1.400569 S    
C34   C35   1.353261 D    
P3    O9    1.549118 D    
N2    C41   1.471797 S    
C19   N1    1.384947 Am   
O30   C59   1.419382 S    
C29   C30   1.431364 A    
P7    O22   1.748327 S    
N1    C20   1.391688 Am   
C3    H27   1.109824 S    
P8    C33   1.863428 S    
O3    Ba1   2.731836 S    
P4    O15   1.742501 S    
C43   C44   1.517709 S    
C32   H38   1.085936 S    
C4    H9    1.110197 S    
