data_mof_unit_56091.cif
_audit_creation_date              2012-12-11T14:21:10-0500
_audit_creation_method            fapswitch 2.2
_symmetry_space_group_name_H-M    P1
_symmetry_Int_Tables_number       1
_space_group_crystal_system       triclinic
_cell_length_a                    11.638655
_cell_length_b                    11.506809
_cell_length_c                    19.597497
_cell_angle_alpha                 91.157998
_cell_angle_beta                  90.803799
_cell_angle_gamma                 59.978909
_cell_volume                      2271.97446552

loop_
_atom_site_label
_atom_site_type_symbol
_atom_type_description
_atom_site_fract_x
_atom_site_fract_y
_atom_site_fract_z
_atom_type_partial_charge
C1    C     C_R   0.640325 0.117674 0.599233 0.550868
C2    C     C_1   0.641317 0.705124 0.668198 0.004838
C3    C     C_1   0.125775 0.197648 0.859117 0.011066
C4    C     C_1   0.172136 0.170612 0.727693 -0.028100
C5    C     C_1   0.149731 0.181675 0.798849 -0.026276
C6    C     C_1   0.196453 0.161649 0.667537 0.003013
C7    C     C_1   0.679060 0.190467 0.860721 0.009975
C8    C     C_1   0.658591 0.167352 0.729055 -0.028973
C9    C     C_1   0.665996 0.180396 0.800295 -0.027657
C10   C     C_1   0.652842 0.150148 0.668662 0.004457
C11   C     C_R   0.664451 0.683322 0.188826 0.061575
C12   C     C_R   0.612071 0.747126 0.598811 0.549881
C13   C     C_R   0.535590 0.765628 0.213421 0.056664
C14   C     C_R   0.514162 0.756083 0.283095 0.034498
C15   C     C_R   0.753794 0.636199 0.303338 -0.164170
C16   C     C_R   0.772219 0.620922 0.233964 -0.145178
C17   C     C_R   0.425825 0.837609 0.169024 0.259698
C18   C     C_R   0.299499 0.869614 0.189751 -0.059063
C19   C     C_R   0.281131 0.835327 0.254509 -0.166857
C20   C     C_R   0.384794 0.784858 0.301745 -0.066188
C21   C     C_R   0.626193 0.705144 0.328824 0.020846
C22   C     C_R   0.076462 0.251412 0.204522 0.004039
C23   C     C_R   0.241988 0.145342 0.598431 0.557538
C24   C     C_R   0.148547 0.312545 0.230926 0.052752
C25   C     C_R   0.235470 0.249516 0.285576 0.027322
C26   C     C_R   0.125360 0.122255 0.307860 -0.137177
C27   C     C_R   0.058160 0.165373 0.246184 -0.168818
C28   C     C_R   0.139593 0.432442 0.205402 -0.092920
C29   C     C_R   0.225368 0.475854 0.227881 -0.111030
C30   C     C_R   0.317667 0.405754 0.277153 -0.091219
C31   C     C_R   0.328910 0.288800 0.301813 -0.090946
C32   C     C_R   0.221278 0.156040 0.325875 0.005209
C33   C     C_R   0.729148 0.203615 0.206660 0.016155
C34   C     C_R   0.643724 0.108754 0.401330 0.522204
C35   C     C_R   0.803579 0.068192 0.231358 0.007007
C36   C     C_R   0.756259 0.035500 0.288675 0.018208
C37   C     C_R   0.626100 0.273303 0.317679 -0.140334
C38   C     C_R   0.643881 0.305268 0.252107 0.185839
C39   C     C_R   0.922562 0.962945 0.201421 -0.081779
C40   C     C_R   0.972096 0.830367 0.217656 -0.131039
C41   C     C_R   0.909682 0.797041 0.266087 -0.119959
C42   C     C_R   0.799395 0.898254 0.299516 -0.071195
C43   C     C_R   0.672621 0.140177 0.334441 -0.046814
C44   C     C_R   0.081162 0.230755 0.928418 0.579794
C45   C     C_R   0.610141 0.745502 0.400277 0.529588
C46   C     C_R   0.684005 0.603160 0.929317 0.570969
C47   C     C_R   0.708639 0.206259 0.930110 0.561014
C48   C     C_R   0.027530 0.270680 0.133577 0.535417
C49   C     C_R   0.682664 0.615880 0.123662 0.613605
C50   C     C_R   0.742109 0.233927 0.134870 0.561728
C51   C     C_R   0.284735 0.122375 0.393382 0.526280
C52   C     C_1   0.669534 0.645530 0.860040 0.014301
C53   C     C_1   0.654483 0.684408 0.728561 -0.028608
C54   C     C_1   0.662631 0.666400 0.799754 -0.027370
Cr1   Cr    Cr6+3 0.404720 0.198220 0.499960 1.025590
Cr2   Cr    Cr6+3 0.698290 0.897110 0.500380 1.026219
Cr3   Cr    Cr6+3 0.396970 0.904720 0.499610 1.023034
Cr4   Cr    Cr6+3 0.926180 0.151990 0.028120 1.039980
Cr5   Cr    Cr6+3 0.921330 0.451820 0.027470 1.036178
Cr6   Cr    Cr6+3 0.626260 0.446870 0.028710 1.101729
H1    H     H_    0.839021 0.591753 0.337270 0.126082
H2    H     H_    0.222813 0.562634 0.206795 0.136641
H3    H     H_    0.376999 0.445462 0.297595 0.166308
H4    H     H_    0.408214 0.230734 0.335169 0.149180
H5    H     H_    0.569617 0.352546 0.354595 0.144365
H6    H     H_    0.984329 0.978791 0.166728 0.141081
H7    H     H_    0.057909 0.754861 0.191141 0.101683
H8    H     H_    0.949389 0.693070 0.278880 0.113153
H9    H     H_    0.749286 0.867685 0.333812 0.162002
H10   H     H_    0.870529 0.552265 0.215884 0.116098
H11   H     H_    0.216218 0.917928 0.155027 0.149351
H12   H     H_    0.184640 0.852855 0.269414 0.112907
H13   H     H_    0.361894 0.758340 0.349955 0.165356
H14   H     H_    0.104226 0.060625 0.340622 0.137376
H15   H     H_    0.064090 0.499646 0.170635 0.140909
H16   H     H_    0.989759 0.134085 0.231288 0.103656
O1    O     O_R   0.267740 0.231960 0.575440 -0.498693
O2    O     O_R   0.685970 0.784660 0.430010 -0.518624
O3    O     O_R   0.502530 0.767000 0.423990 -0.536895
O4    O     O_R   0.288330 0.026350 0.429250 -0.503493
O5    O     O_3   0.499990 0.000020 0.499980 -0.270846
O6    O     O_R   0.821500 0.119340 0.952830 -0.498109
O7    O     O_R   0.037130 0.162530 0.957360 -0.479247
O8    O     O_R   0.056440 0.344740 0.951340 -0.494659
O9    O     O_R   0.797900 0.560360 0.957470 -0.494900
O10   O     O_R   0.596130 0.579390 0.952730 -0.486683
O11   O     O_R   0.639060 0.321160 0.958670 -0.492055
O12   O     O_R   0.527280 0.186640 0.570530 -0.491545
O13   O     O_R   0.821240 0.124200 0.104370 -0.540889
O14   O     O_R   0.036890 0.167040 0.097840 -0.499613
O15   O     O_R   0.056180 0.349610 0.102880 -0.508727
O16   O     O_R   0.797660 0.564870 0.097950 -0.541242
O17   O     O_R   0.595880 0.584250 0.104270 -0.431943
O18   O     O_R   0.638830 0.325670 0.099150 -0.425693
O19   O     O_3   0.824590 0.350230 0.028100 -0.315320
O20   O     O_R   0.728090 0.003450 0.576380 -0.498948
O21   O     O_R   0.682970 0.789190 0.570490 -0.488667
O22   O     O_R   0.499290 0.771880 0.575530 -0.501826
O23   O     O_R   0.285330 0.030870 0.569730 -0.487992
O24   O     O_R   0.270980 0.227080 0.423890 -0.513228
O25   O     O_R   0.530280 0.182120 0.430050 -0.532504
O26   O     O_R   0.731330 0.998570 0.424830 -0.517967
Cl1   Cl    Cl    0.558940 0.473699 0.229848 -0.669210
Cl2   Cl    Cl    0.442210 0.890807 0.087732 -0.584043

loop_
_geom_bond_atom_site_label_1
_geom_bond_atom_site_label_2
_ccdc_geom_bond_type
C25   C31   A    
C23   O23   A    
C26   C32   A    
C41   C42   A    
Cr3   O3    S    
C22   C48   S    
C35   C36   A    
C44   O7    A    
C2    C12   S    
Cr2   O5    S    
C53   C54   S    
C26   C27   A    
C38   Cl1   S    
C14   C21   A    
C28   C29   A    
C17   Cl2   S    
Cr4   O6    S    
C30   C31   A    
Cr1   O1    S    
Cr3   O22   S    
C15   C16   A    
Cr3   O23   S    
C46   C52   S    
C51   O24   A    
Cr2   O2    S    
C7    C9    T    
C18   C19   A    
C47   O6    A    
Cr1   O12   S    
C51   O4    A    
C33   C35   A    
C36   C42   A    
C19   C20   A    
C8    C9    S    
C48   O15   A    
C37   H5    S    
Cr1   O24   S    
C45   O2    A    
Cr1   O5    S    
C12   O22   A    
C46   O9    A    
Cr6   O17   S    
C25   C32   A    
C48   O14   A    
C30   H3    S    
Cr3   O4    S    
C19   H12   S    
Cr5   O19   S    
Cr2   O21   S    
Cr6   O11   S    
C52   C54   T    
C41   H8    S    
C21   C45   S    
C3    C44   S    
C34   O25   A    
C34   C43   S    
C14   C20   A    
C16   H10   S    
Cr5   O8    S    
C4    C6    T    
C39   C40   A    
Cr6   O10   S    
C50   O18   A    
Cr5   O15   S    
C3    C5    T    
C33   C50   S    
C40   H7    S    
C42   H9    S    
C23   O1    A    
C47   O11   A    
C37   C43   A    
C35   C39   A    
Cr4   O19   S    
Cr5   O9    S    
C32   C51   S    
C29   C30   A    
C11   C49   S    
C11   C16   A    
C50   O13   A    
C17   C18   A    
C15   H1    S    
C45   O3    A    
C34   O26   A    
C24   C25   A    
Cr4   O14   S    
C12   O21   A    
C40   C41   A    
C37   C38   A    
C22   C27   A    
C39   H6    S    
C22   C24   A    
C49   O16   A    
C27   H16   S    
C18   H11   S    
Cr2   O20   S    
C29   H2    S    
C31   H4    S    
C1    C10   S    
C24   C28   A    
C4    C5    S    
C44   O8    A    
C2    C53   T    
Cr1   O25   S    
C33   C38   A    
C13   C17   A    
Cr2   O26   S    
Cr4   O7    S    
C11   C13   A    
C1    O12   A    
C1    O20   A    
C6    C23   S    
C26   H14   S    
C20   H13   S    
Cr3   O5    S    
Cr5   O16   S    
Cr4   O13   S    
Cr6   O19   S    
C15   C21   A    
C8    C10   T    
C36   C43   A    
C49   O17   A    
C13   C14   A    
C28   H15   S    
C7    C47   S    
C46   O10   A    
Cr6   O18   S    
