data_mof_unit_47205.cif
_audit_creation_date              2012-12-10T17:22:43-0500
_audit_creation_method            fapswitch 2.2
_symmetry_space_group_name_H-M    P1
_symmetry_Int_Tables_number       1
_space_group_crystal_system       triclinic
_cell_length_a                    10.624385
_cell_length_b                    10.859375
_cell_length_c                    9.606716
_cell_angle_alpha                 90.252342
_cell_angle_beta                  89.908469
_cell_angle_gamma                 93.001726
_cell_volume                      1106.8344913

loop_
_atom_site_label
_atom_site_type_symbol
_atom_type_description
_atom_site_fract_x
_atom_site_fract_y
_atom_site_fract_z
_atom_type_partial_charge
C1    C     C_R   0.510113 0.263305 0.500268 0.814987
C2    C     C_R   0.538154 0.065868 0.629228 0.105665
C3    C     C_R   0.521987 0.129657 0.502466 -0.121879
C4    C     C_R   0.259392 0.499745 0.499885 0.809282
C5    C     C_R   0.499922 0.063290 0.378935 -0.212457
C6    C     C_R   0.489375 0.935964 0.380681 -0.214087
C7    C     C_R   0.489077 0.872339 0.507201 -0.115248
C8    C     C_R   0.668699 0.663948 0.144263 -0.138731
C9    C     C_R   0.751583 0.743653 0.072262 -0.224401
C10   C     C_R   0.751873 0.743338 0.928769 -0.197381
C11   C     C_R   0.669035 0.663560 0.856337 -0.137667
C12   C     C_3   0.963768 0.603399 0.437252 -0.177692
C13   C     C_R   0.583003 0.580517 0.925295 0.150232
C14   C     C_R   0.582889 0.580574 0.074853 0.197842
C15   C     C_R   0.421665 0.423363 0.075055 -0.097395
C16   C     C_R   0.493526 0.737548 0.501547 0.770637
C17   C     C_R   0.421006 0.422757 0.927929 0.239573
C18   C     C_R   0.740537 0.500689 0.500079 0.753087
C19   C     C_3   0.035796 0.397781 0.562420 -0.155394
C20   C     C_3   0.952358 0.400828 0.430903 -0.172401
C21   C     C_3   0.877465 0.500927 0.500477 0.022784
C22   C     C_3   0.958676 0.497951 0.632171 -0.127461
C23   C     C_3   0.041012 0.503245 0.367578 -0.125542
C24   C     C_3   0.047327 0.600410 0.568822 -0.169091
C25   C     C_3   0.122295 0.500192 0.499319 0.017121
C26   C     C_R   0.588679 0.123505 0.751075 -0.135759
C27   C     C_R   0.576729 0.065749 0.879905 -0.133084
C28   C     C_R   0.514149 0.950683 0.889306 -0.126996
C29   C     C_R   0.475567 0.888051 0.768456 -0.157963
C30   C     C_R   0.500276 0.939774 0.634997 0.092660
Cu1   Cu    Cu3+1 0.499990 0.499990 0.640660 0.945008
Cu2   Cu    Cu3+1 0.500010 0.500010 0.359340 0.930730
H1    H     H_    0.910324 0.319246 0.374540 0.133962
H2    H     H_    0.067459 0.313112 0.612906 0.161024
H3    H     H_    0.922414 0.495930 0.740654 0.150064
H4    H     H_    0.089282 0.681983 0.625269 0.132101
H5    H     H_    0.930946 0.687336 0.385976 0.122144
H6    H     H_    0.077157 0.505363 0.259061 0.147471
H7    H     H_    0.490512 0.109700 0.280172 0.167428
H8    H     H_    0.639283 0.212423 0.748200 0.155903
H9    H     H_    0.612341 0.112086 0.972927 0.134644
H10   H     H_    0.497720 0.908597 0.990136 0.137602
H11   H     H_    0.422365 0.801807 0.783092 0.168836
H12   H     H_    0.478996 0.887401 0.282264 0.165381
H13   H     H_    0.357752 0.360797 0.131517 0.161428
H14   H     H_    0.676233 0.671844 0.254094 0.197085
H15   H     H_    0.815998 0.806305 0.128559 0.147789
H16   H     H_    0.816238 0.805993 0.872807 0.152334
H17   H     H_    0.675952 0.671958 0.746567 0.201213
I1    I     I_    0.288594 0.293088 0.838169 -0.414812
N1    N     N_R   0.501210 0.501210 0.147910 -0.214122
N2    N     N_R   0.501250 0.501290 0.852040 -0.220049
O1    O     O_R   0.499990 0.319640 0.618810 -0.556875
O2    O     O_R   0.500000 0.319660 0.381240 -0.583853
O3    O     O_R   0.316850 0.499960 0.618770 -0.549349
O4    O     O_R   0.316860 0.499980 0.381190 -0.586233
O5    O     O_R   0.500000 0.680340 0.618760 -0.615299
O6    O     O_R   0.500010 0.680360 0.381190 -0.599064
O7    O     O_R   0.683140 0.500020 0.618810 -0.610653
O8    O     O_R   0.683150 0.500040 0.381230 -0.595080

loop_
_geom_bond_atom_site_label_1
_geom_bond_atom_site_label_2
_ccdc_geom_bond_type
C17   I1    S    
C1    O2    A    
C19   H2    S    
Cu2   N1    S    
C6    C7    A    
C11   H17   S    
C15   N1    A    
C13   N2    A    
C9    C10   A    
C27   H9    S    
C14   N1    A    
C20   C23   S    
Cu2   O6    S    
Cu1   N2    S    
C2    C30   A    
Cu1   O5    S    
C19   C20   S    
C23   C25   S    
C2    C3    A    
C16   O6    A    
C3    C5    A    
C2    C26   A    
C7    C30   A    
C6    H12   S    
C21   C22   S    
C29   H11   S    
C18   C21   S    
C22   H3    S    
C11   C13   A    
C12   C23   S    
C26   H8    S    
C26   C27   A    
C24   H4    S    
Cu1   O7    S    
C20   H1    S    
C17   N2    A    
Cu2   O2    S    
C7    C16   S    
C9    H15   S    
C22   C24   S    
C16   O5    A    
C5    H7    S    
C4    O3    A    
C10   H16   S    
C5    C6    A    
C19   C25   S    
C8    H14   S    
Cu1   O1    S    
C10   C11   A    
Cu2   O8    S    
C29   C30   A    
C23   H6    S    
C4    C25   S    
C18   O7    A    
C27   C28   A    
C19   C22   S    
C24   C25   S    
C18   O8    A    
C12   C24   S    
C28   H10   S    
C12   H5    S    
C15   C17   A    
C1    O1    A    
C28   C29   A    
C8    C14   A    
Cu1   O3    S    
C20   C21   S    
C13   C14   A    
C12   C21   S    
Cu2   O4    S    
C4    O4    A    
Cu1   Cu2   S    
C8    C9    A    
C1    C3    S    
C15   H13   S    
