data_mof_unit_29858.cif
_audit_creation_date              2012-12-10T18:54:28-0500
_audit_creation_method            fapswitch 2.2
_symmetry_space_group_name_H-M    P1
_symmetry_Int_Tables_number       1
_space_group_crystal_system       triclinic
_cell_length_a                    19.449955
_cell_length_b                    18.178413
_cell_length_c                    9.039529
_cell_angle_alpha                 89.993232
_cell_angle_beta                  90.146205
_cell_angle_gamma                 90.034269
_cell_volume                      3196.08907579

loop_
_atom_site_label
_atom_site_type_symbol
_atom_type_description
_atom_site_fract_x
_atom_site_fract_y
_atom_site_fract_z
_atom_type_partial_charge
C1    C     C_R   0.367864 0.499997 0.500248 0.842944
C2    C     C_R   0.632773 0.500061 0.499064 0.845141
C3    C     C_R   0.489248 0.721535 0.371451 -0.086721
C4    C     C_R   0.503769 0.279041 0.631021 -0.028807
C5    C     C_R   0.509448 0.721180 0.629195 -0.013425
C6    C     C_R   0.495405 0.277858 0.370499 -0.021204
C7    C     C_R   0.487046 0.799724 0.368771 0.309043
C8    C     C_R   0.504966 0.201705 0.635959 0.328729
C9    C     C_R   0.510092 0.798507 0.632615 0.268582
C10   C     C_R   0.494252 0.200355 0.369239 0.282320
C11   C     C_R   0.498766 0.838728 0.501434 -0.082912
C12   C     C_R   0.499910 0.160870 0.503373 -0.126549
C13   C     C_R   0.455380 0.960962 0.597404 -0.148924
C14   C     C_R   0.544264 0.038287 0.411111 -0.160385
C15   C     C_R   0.543794 0.961026 0.410139 -0.170137
C16   C     C_R   0.455517 0.038285 0.597671 -0.188239
C17   C     C_R   0.499912 0.078096 0.504343 0.156861
C18   C     C_R   0.499223 0.921322 0.502961 0.197081
C19   C     C_R   0.499711 0.500004 0.220512 0.841481
C20   C     C_R   0.499780 0.499996 0.779485 0.840795
C21   C     C_1   0.499519 0.500008 0.065572 -0.198597
C22   C     C_1   0.499545 0.499989 0.934423 -0.196936
C23   C     C_R   0.746067 0.433946 0.474975 0.386501
C24   C     C_R   0.256891 0.549946 0.592450 0.381243
C25   C     C_R   0.256147 0.450117 0.411196 0.385575
C26   C     C_R   0.746143 0.566761 0.520288 0.383543
C27   C     C_R   0.818022 0.435300 0.472456 -0.236953
C28   C     C_R   0.185142 0.550440 0.590522 -0.224674
C29   C     C_R   0.184438 0.449537 0.414993 -0.225969
C30   C     C_R   0.817993 0.565294 0.526790 -0.237405
C31   C     C_R   0.853594 0.500197 0.501201 0.001089
C32   C     C_R   0.148996 0.499997 0.503133 -0.013363
C33   C     C_R   0.709070 0.500264 0.498163 -0.240648
C34   C     C_R   0.292734 0.500002 0.501375 -0.245527
C35   C     C_R   0.965091 0.523024 0.374732 -0.067480
C36   C     C_R   0.037190 0.477766 0.630387 -0.064739
C37   C     C_R   0.037294 0.522986 0.375107 -0.064559
C38   C     C_R   0.964970 0.477652 0.629670 -0.067767
C39   C     C_R   0.073320 0.500326 0.502969 0.012830
C40   C     C_R   0.929111 0.500277 0.501899 0.008550
Cu1   Cu    Cu3+1 0.500000 0.573360 0.500000 0.965490
Cu2   Cu    Cu3+1 0.500000 0.426640 0.500000 0.968278
H1    H     H_    0.846341 0.385469 0.447884 0.157524
H2    H     H_    0.157595 0.589797 0.658101 0.168084
H3    H     H_    0.156352 0.410377 0.347583 0.167378
H4    H     H_    0.846191 0.615446 0.549955 0.157965
H5    H     H_    0.482513 0.691292 0.270072 0.142001
H6    H     H_    0.506484 0.308570 0.734277 0.170719
H7    H     H_    0.517883 0.691802 0.731333 0.157230
H8    H     H_    0.491901 0.306535 0.266283 0.159521
H9    H     H_    0.420255 0.931993 0.669702 0.158356
H10   H     H_    0.579811 0.067065 0.339499 0.167229
H11   H     H_    0.578841 0.932105 0.337649 0.153992
H12   H     H_    0.420177 0.067035 0.669681 0.166507
N1    N     N_R   0.500000 0.683620 0.500000 -0.198784
N2    N     N_R   0.500000 0.316380 0.500000 -0.214836
O1    O     O_R   0.400190 0.561980 0.499980 -0.543573
O2    O     O_R   0.599810 0.438020 0.500020 -0.539739
O3    O     O_R   0.599810 0.561980 0.500020 -0.537858
O4    O     O_R   0.400190 0.438020 0.499980 -0.542981
O5    O     O_R   0.500000 0.561940 0.288400 -0.601824
O6    O     O_R   0.500000 0.438060 0.711600 -0.602435
O7    O     O_R   0.500000 0.561940 0.711600 -0.589762
O8    O     O_R   0.500000 0.438060 0.288400 -0.584690
O9    O     O_3   0.712352 0.369327 0.438639 -0.551999
C41   C     C_3   0.717887 0.319215 0.557635 0.108004
H13   H     H_    0.686361 0.338472 0.652657 0.146124
H14   H     H_    0.772031 0.311696 0.595159 0.129192
C42   C     C_3   0.691384 0.244484 0.508004 -0.788336
H15   H     H_    0.721910 0.224402 0.412547 0.248900
H16   H     H_    0.696215 0.204407 0.600002 0.190059
H17   H     H_    0.636670 0.248639 0.474556 0.251495
O10   O     O_3   0.291630 0.600513 0.679175 -0.555329
C43   C     C_3   0.303493 0.569029 0.819767 0.088476
H18   H     H_    0.334679 0.517853 0.810517 0.115018
H19   H     H_    0.254005 0.556185 0.876084 0.150878
C44   C     C_3   0.343238 0.623455 0.915208 -0.777275
H20   H     H_    0.312734 0.674508 0.930486 0.246205
H21   H     H_    0.353932 0.598832 0.025308 0.184110
H22   H     H_    0.392839 0.637599 0.861650 0.256962
O11   O     O_3   0.290225 0.400322 0.322031 -0.560158
C45   C     C_3   0.299351 0.432334 0.181063 0.072027
H23   H     H_    0.329621 0.484274 0.188830 0.116435
H24   H     H_    0.248795 0.444020 0.127721 0.156566
C46   C     C_3   0.338704 0.379064 0.082987 -0.764429
H25   H     H_    0.309285 0.327062 0.070243 0.245855
H26   H     H_    0.346727 0.403848 0.972105 0.190921
H27   H     H_    0.389581 0.366624 0.132918 0.248932
O12   O     O_3   0.712588 0.632681 0.545609 -0.559169
C47   C     C_3   0.718446 0.677313 0.418077 0.118884
H28   H     H_    0.689825 0.652173 0.323886 0.150105
H29   H     H_    0.773071 0.685727 0.385303 0.131851
C48   C     C_3   0.687871 0.752629 0.449659 -0.812186
H30   H     H_    0.715823 0.779281 0.542592 0.237565
H31   H     H_    0.691882 0.788006 0.349887 0.199068
H32   H     H_    0.633014 0.746959 0.479486 0.247106
C49   C     C_1   0.927666 0.546139 0.243609 0.265786
N3    N     N_1   0.897760 0.564595 0.139181 -0.267836
C50   C     C_1   0.074342 0.453549 0.761100 0.263209
N4    N     N_1   0.104026 0.434291 0.865249 -0.285411
C51   C     C_1   0.074541 0.547306 0.244955 0.262542
N5    N     N_1   0.104299 0.566644 0.141262 -0.285794
C52   C     C_1   0.927408 0.454519 0.760202 0.265935
N6    N     N_1   0.897395 0.436048 0.864174 -0.265543
O13   O     O_3   0.477365 0.840168 0.239367 -0.590417
C53   C     C_3   0.429986 0.806977 0.141093 0.067185
H33   H     H_    0.386326 0.780357 0.200403 0.138183
H34   H     H_    0.456876 0.765784 0.071099 0.161819
C54   C     C_3   0.400170 0.865884 0.040048 -0.732574
H35   H     H_    0.442072 0.895547 0.981957 0.280201
H36   H     H_    0.365761 0.840117 0.956605 0.203291
H37   H     H_    0.370142 0.906053 0.106139 0.231390
O14   O     O_3   0.506452 0.167189 0.772267 -0.600770
C55   C     C_3   0.573978 0.143265 0.805209 0.080642
H38   H     H_    0.604998 0.128934 0.705686 0.124630
H39   H     H_    0.569984 0.092059 0.871675 0.174405
C56   C     C_3   0.611544 0.200682 0.898102 -0.806158
H40   H     H_    0.581259 0.213690 0.998762 0.285749
H41   H     H_    0.662584 0.179091 0.932058 0.206874
H42   H     H_    0.619305 0.251772 0.833074 0.224454
O15   O     O_3   0.519715 0.834329 0.765796 -0.590658
C57   C     C_3   0.590931 0.843508 0.789512 0.058632
H43   H     H_    0.614862 0.875379 0.697667 0.145498
H44   H     H_    0.617038 0.789192 0.799802 0.154555
C58   C     C_3   0.602054 0.885968 0.932579 -0.783144
H45   H     H_    0.580789 0.854503 0.027294 0.274404
H46   H     H_    0.657903 0.894763 0.951224 0.194200
H47   H     H_    0.576094 0.940300 0.926041 0.245142
O16   O     O_3   0.488984 0.163623 0.235875 -0.585777
C59   C     C_3   0.418857 0.149449 0.206277 0.101373
H48   H     H_    0.393979 0.199958 0.161790 0.152320
H49   H     H_    0.390194 0.130800 0.306392 0.141230
C60   C     C_3   0.413411 0.088496 0.091533 -0.771116
H50   H     H_    0.438234 0.037651 0.134022 0.258254
H51   H     H_    0.358502 0.076687 0.067382 0.193553
H52   H     H_    0.439138 0.105405 0.987704 0.283698

loop_
_geom_bond_atom_site_label_1
_geom_bond_atom_site_label_2
_ccdc_geom_bond_type
C15   C18   A    
C41   H14   S    
C11   C18   S    
C51   N5    T    
Cu1   Cu2   S    
Cu1   O5    S    
C4    C8    A    
Cu2   O2    S    
C55   H38   S    
C44   H20   S    
C26   O12   S    
C7    C11   A    
C48   H30   S    
C43   H19   S    
C13   C18   A    
C15   H11   S    
C35   C37   A    
O14   C55   S    
C29   C32   A    
C3    C7    A    
C54   H36   S    
C30   C31   A    
C24   O10   S    
C46   H27   S    
C41   C42   S    
C53   H33   S    
C31   C40   S    
O10   C43   S    
C32   C39   S    
C3    H5    S    
C42   H16   S    
Cu1   N1    S    
Cu2   N2    S    
C13   H9    S    
C3    N1    A    
C14   H10   S    
C16   C17   A    
C23   C33   A    
C43   C44   S    
C20   O7    A    
C12   C17   S    
C58   H47   S    
C9    O15   S    
C7    O13   S    
C23   C27   A    
Cu2   O6    S    
C25   C34   A    
C46   H26   S    
C41   H13   S    
C48   H31   S    
C38   C40   A    
C21   C22   T    
C4    N2    A    
C25   O11   S    
C14   C17   A    
C5    H7    S    
C30   H4    S    
C1    C34   S    
C49   N3    T    
C44   H21   S    
C25   C29   A    
C43   H18   S    
C27   C31   A    
C28   C32   A    
Cu1   O3    S    
C56   H42   S    
Cu2   O4    S    
C2    O3    A    
O11   C45   S    
C46   H25   S    
C28   H2    S    
C24   C34   A    
C29   H3    S    
C42   H17   S    
C59   H49   S    
C5    C9    A    
C38   C52   S    
C1    O1    A    
C60   H52   S    
C26   C33   A    
C47   H29   S    
C50   N4    T    
C19   O8    A    
C8    C12   A    
C6    H8    S    
C9    C11   A    
O15   C57   S    
C10   C12   A    
C8    O14   S    
C2    C33   S    
C20   C22   S    
C26   C30   A    
C48   H32   S    
C45   H24   S    
C58   H45   S    
C54   H37   S    
C59   C60   S    
Cu1   O7    S    
C57   H44   S    
Cu2   O8    S    
C47   C48   S    
C58   H46   S    
O16   C59   S    
C4    H6    S    
C44   H22   S    
C19   C21   S    
C5    N1    A    
C36   C39   A    
C24   C28   A    
C6    N2    A    
C6    C10   A    
C55   H39   S    
C2    O2    A    
C45   C46   S    
O13   C53   S    
C23   O9    S    
C57   C58   S    
C56   H41   S    
C59   H48   S    
C57   H43   S    
C10   O16   S    
Cu1   O1    S    
C37   C39   A    
C35   C49   S    
C56   H40   S    
C37   C51   S    
C47   H28   S    
C60   H50   S    
C53   H34   S    
C19   O5    A    
C36   C38   A    
C35   C40   A    
C36   C50   S    
C20   O6    A    
C42   H15   S    
C1    O4    A    
C16   H12   S    
C55   C56   S    
C27   H1    S    
O9    C41   S    
C13   C16   A    
C52   N6    T    
C60   H51   S    
C14   C15   A    
C45   H23   S    
O12   C47   S    
C54   H35   S    
C53   C54   S    
