data_mof_unit_22896.cif
_audit_creation_date              2012-12-10T17:42:36-0500
_audit_creation_method            fapswitch 2.2
_symmetry_space_group_name_H-M    P1
_symmetry_Int_Tables_number       1
_space_group_crystal_system       triclinic
_cell_length_a                    9.925592
_cell_length_b                    10.763013
_cell_length_c                    13.102266
_cell_angle_alpha                 89.419007
_cell_angle_beta                  71.367591
_cell_angle_gamma                 89.547822
_cell_volume                      1326.25982008

loop_
_atom_site_label
_atom_site_type_symbol
_atom_type_description
_atom_site_fract_x
_atom_site_fract_y
_atom_site_fract_z
_atom_type_partial_charge
C1    C     C_R   0.502443 0.739445 0.489614 0.913420
C2    C     C_R   0.379299 0.433105 0.814470 -0.223014
C3    C     C_R   0.243511 0.888809 0.489176 -0.106110
C4    C     C_R   0.423183 0.479659 0.701750 0.913692
C5    C     C_R   0.113826 0.947112 0.538780 -0.162514
C6    C     C_R   0.110128 0.056961 0.594076 -0.178877
C7    C     C_R   0.237233 0.114337 0.589522 -0.122986
C8    C     C_R   0.370042 0.060840 0.531098 0.023828
C9    C     C_R   0.372026 0.938792 0.496486 0.039258
C10   C     C_R   0.502236 0.872362 0.472354 -0.331375
C11   C     C_R   0.631797 0.935980 0.444455 0.404006
C12   C     C_R   0.442527 0.419345 0.978398 -0.107917
C13   C     C_R   0.631281 0.063815 0.456579 0.407069
C14   C     C_R   0.500283 0.125994 0.502348 -0.337045
C15   C     C_R   0.799642 0.654643 0.644270 -0.265867
C16   C     C_R   0.499261 0.259773 0.503216 0.952457
C17   C     C_R   0.837131 0.725707 0.720633 0.539252
C18   C     C_R   0.977104 0.722816 0.719666 -0.264752
C19   C     C_R   0.077578 0.649715 0.646306 -0.214744
C20   C     C_R   0.041346 0.573522 0.572535 0.147695
C21   C     C_R   0.897320 0.574608 0.572037 0.127840
C22   C     C_R   0.958637 0.430192 0.430231 -0.073706
C23   C     C_R   0.482833 0.411862 0.865787 -0.195584
C24   C     C_R   0.101454 0.429880 0.430596 -0.110960
C25   C     C_R   0.578281 0.502932 0.295780 0.890601
C26   C     C_R   0.802061 0.471138 0.003653 -0.291848
C27   C     C_R   0.624429 0.496847 0.178109 -0.198052
C28   C     C_R   0.236222 0.407213 0.872683 0.445609
C29   C     C_R   0.197529 0.387363 0.984390 -0.355194
C30   C     C_R   0.297957 0.394624 0.038161 0.506056
C31   C     C_3   0.957035 0.620735 0.111174 -0.328471
C32   C     C_3   0.848242 0.115206 0.472914 -0.224654
C33   C     C_3   0.606153 0.761599 0.833195 -0.352543
C34   C     C_R   0.550437 0.445755 0.024250 0.093739
C35   C     C_3   0.082701 0.272732 0.833843 -0.371845
C36   C     C_3   0.282337 0.236055 0.156380 -0.324745
C37   C     C_3   0.597369 0.188708 0.742382 -0.339142
C38   C     C_3   0.794548 0.861248 0.293788 -0.245352
C39   C     C_R   0.695248 0.441600 0.959747 0.017646
C40   C     C_R   0.731358 0.402618 0.853392 -0.312216
C41   C     C_R   0.625102 0.377169 0.809141 0.596353
C42   C     C_R   0.518182 0.482800 0.130537 -0.283154
C43   C     C_R   0.768347 0.498153 0.113481 0.531842
H1    H     H_    0.240940 0.807108 0.442718 0.166510
H2    H     H_    0.179488 0.372304 0.374235 0.182737
H3    H     H_    0.911550 0.469817 0.953282 0.201540
H4    H     H_    0.409518 0.501586 0.177681 0.235612
H5    H     H_    0.088798 0.365388 0.030421 0.207891
H6    H     H_    0.023932 0.646667 0.161046 0.197013
H7    H     H_    0.889791 0.702382 0.106198 0.137710
H8    H     H_    0.030364 0.598960 0.029749 0.168981
H9    H     H_    0.827800 0.031607 0.526304 0.155049
H10   H     H_    0.840395 0.198575 0.523487 0.198596
H11   H     H_    0.959208 0.109091 0.417780 0.175562
H12   H     H_    0.016453 0.905115 0.536022 0.159476
H13   H     H_    0.605496 0.661513 0.855321 0.176168
H14   H     H_    0.544999 0.777964 0.776544 0.158320
H15   H     H_    0.550774 0.812761 0.908107 0.190176
H16   H     H_    0.000655 0.261163 0.913877 0.172988
H17   H     H_    0.167683 0.201080 0.823485 0.154658
H18   H     H_    0.029970 0.255051 0.772704 0.187203
H19   H     H_    0.398430 0.215799 0.125790 0.170823
H20   H     H_    0.224829 0.177513 0.114319 0.161628
H21   H     H_    0.243745 0.209540 0.242833 0.183314
H22   H     H_    0.480374 0.193631 0.759157 0.152237
H23   H     H_    0.009254 0.100113 0.636792 0.139203
H24   H     H_    0.640182 0.126406 0.672929 0.184661
H25   H     H_    0.622750 0.144984 0.811599 0.170776
H26   H     H_    0.792113 0.951979 0.252720 0.167053
H27   H     H_    0.722178 0.793886 0.274167 0.146145
H28   H     H_    0.904643 0.824986 0.261970 0.174179
H29   H     H_    0.230585 0.200525 0.631663 0.170116
H30   H     H_    0.929741 0.373222 0.372998 0.193346
H31   H     H_    0.695424 0.667426 0.641244 0.215555
H32   H     H_    0.009648 0.780812 0.774633 0.171272
H33   H     H_    0.183442 0.658775 0.647680 0.233296
H34   H     H_    0.841042 0.388576 0.805347 0.187395
N1    N     N_R   0.856860 0.501200 0.500990 -0.096722
N2    N     N_R   0.142450 0.501280 0.501020 -0.118153
O1    O     O_R   0.385310 0.683220 0.500000 -0.666199
O2    O     O_3   0.756439 0.128990 0.410313 -0.589799
O3    O     O_3   0.745256 0.809103 0.790019 -0.612617
O4    O     O_3   0.137333 0.395038 0.819073 -0.594071
O5    O     O_3   0.254443 0.363616 0.146399 -0.617756
O6    O     O_3   0.660207 0.307197 0.716123 -0.593654
O7    O     O_3   0.760504 0.874013 0.406021 -0.585545
O8    O     O_R   0.614640 0.683250 0.500010 -0.588137
O9    O     O_R   0.328400 0.499950 0.653610 -0.594705
O10   O     O_R   0.557730 0.499970 0.653620 -0.615862
O11   O     O_R   0.385360 0.316750 0.499990 -0.636310
O12   O     O_R   0.614690 0.316780 0.500000 -0.544646
O13   O     O_R   0.442270 0.500030 0.346380 -0.630720
O14   O     O_R   0.671600 0.500050 0.346390 -0.554260
O15   O     O_3   0.874427 0.516711 0.159443 -0.586297
Zn1   Zn    Zn3+2 0.346880 0.499980 0.499990 0.937571
Zn2   Zn    Zn3+2 0.653120 0.500020 0.500010 1.012996

loop_
_geom_bond_atom_site_label_1
_geom_bond_atom_site_label_2
_ccdc_geom_bond_type
C1    O8    A    
C38   H27   S    
C16   O11   A    
C18   H32   S    
C19   C20   A    
C34   C42   A    
C7    C8    A    
C25   O14   A    
C32   O2    S    
C12   C23   A    
C33   H15   S    
C38   O7    S    
C24   H2    S    
C37   O6    S    
C28   C29   A    
C18   C19   A    
C5    C6    A    
C26   C39   A    
C11   O7    S    
C37   H25   S    
C13   O2    S    
C43   O15   S    
C35   H16   S    
C17   O3    S    
C32   H9    S    
O12   Zn2   S    
N1    Zn2   S    
C8    C9    A    
C37   H22   S    
C21   N1    A    
C8    C14   A    
C36   H20   S    
C9    C10   A    
C33   H13   S    
C38   H26   S    
C13   C14   A    
C28   O4    S    
C31   H6    S    
C36   H19   S    
C32   H11   S    
C26   C43   A    
C3    H1    S    
C29   H5    S    
C34   C39   A    
O11   Zn1   S    
C22   N1    A    
C7    H29   S    
C35   O4    S    
O13   Zn1   S    
C35   H17   S    
C2    C4    S    
N2    Zn1   S    
C29   C30   A    
C3    C9    A    
C24   N2    A    
C6    H23   S    
O8    Zn2   S    
C17   C18   A    
C35   H18   S    
O1    Zn1   S    
C40   C41   A    
O14   Zn2   S    
C14   C16   S    
C31   H7    S    
C12   C34   A    
C32   H10   S    
C39   C40   A    
C4    O10   A    
C33   O3    S    
C15   C17   A    
C38   H28   S    
C19   H33   S    
C25   O13   A    
C33   H14   S    
C20   N2    A    
C12   C30   A    
C5    H12   S    
C1    C10   S    
C31   H8    S    
C3    C5    A    
C6    C7    A    
C4    O9    A    
C25   C27   S    
C31   O15   S    
C41   O6    S    
C23   C41   A    
O10   Zn2   S    
C11   C13   A    
C27   C42   A    
C36   O5    S    
C37   H24   S    
C22   C24   A    
C42   H4    S    
C30   O5    S    
O9    Zn1   S    
C10   C11   A    
C26   H3    S    
C27   C43   A    
C15   C21   A    
C15   H31   S    
C20   C21   A    
C16   O12   A    
C2    C23   A    
C1    O1    A    
C40   H34   S    
C2    C28   A    
C22   H30   S    
C36   H21   S    
