data_mof_unit_23410.cif
_audit_creation_date              2012-12-10T19:42:56-0500
_audit_creation_method            fapswitch 2.2
_symmetry_space_group_name_H-M    P1
_symmetry_Int_Tables_number       1
_space_group_crystal_system       triclinic
_cell_length_a                    10.829856
_cell_length_b                    12.997506
_cell_length_c                    11.652342
_cell_angle_alpha                 99.842169
_cell_angle_beta                  93.878541
_cell_angle_gamma                 90.518085
_cell_volume                      1612.0013641

loop_
_atom_site_label
_atom_site_type_symbol
_atom_type_description
_atom_site_fract_x
_atom_site_fract_y
_atom_site_fract_z
_atom_type_partial_charge
C1    C     C_R   0.498328 0.299018 0.478615 0.801490
C2    C     C_R   0.501661 0.700982 0.521384 0.801533
C3    C     C_R   0.871678 0.494355 0.499842 -0.081472
C4    C     C_R   0.128324 0.505631 0.500157 -0.081461
C5    C     C_R   0.945301 0.462762 0.592149 0.001154
C6    C     C_R   0.054703 0.537231 0.407853 0.001130
C7    C     C_R   0.501726 0.814362 0.533791 -0.051218
C8    C     C_R   0.498235 0.185638 0.466208 -0.051217
C9    C     C_R   0.502566 0.015206 0.344498 -0.224752
C10   C     C_R   0.497371 0.984794 0.655501 -0.224739
C11   C     C_R   0.500927 0.123312 0.355446 -0.198690
C12   C     C_R   0.499029 0.876688 0.644553 -0.198700
C13   C     C_R   0.496264 0.139226 0.565969 -0.284757
C14   C     C_R   0.503671 0.860773 0.434030 -0.284770
C15   C     C_R   0.498346 0.031243 0.555804 0.179709
C16   C     C_R   0.501587 0.968757 0.444196 0.179686
C17   C     C_R   0.385281 0.400014 0.021198 -0.353913
C18   C     C_R   0.614713 0.599991 0.978802 -0.353864
C19   C     C_R   0.395978 0.409818 0.143595 0.110574
C20   C     C_R   0.604020 0.590184 0.856406 0.110608
C21   C     C_R   0.549056 0.543593 0.157440 0.020666
C22   C     C_R   0.450942 0.456408 0.842559 0.020632
C23   C     C_R   0.262223 0.503177 0.500315 0.795916
C24   C     C_R   0.737778 0.496819 0.499685 0.795886
C25   C     C_R   0.541523 0.536430 0.034464 0.063277
C26   C     C_R   0.458473 0.463573 0.965536 0.063281
C27   C     C_R   0.230690 0.712435 0.243728 -0.119535
C28   C     C_R   0.769209 0.287749 0.756395 -0.119487
C29   C     C_R   0.178882 0.673491 0.334803 -0.097484
C30   C     C_R   0.821013 0.326625 0.665286 -0.097309
C31   C     C_R   0.107255 0.580586 0.311404 0.127968
C32   C     C_R   0.892757 0.419466 0.688631 0.127953
C33   C     C_R   0.086507 0.528449 0.195583 -0.165051
C34   C     C_R   0.913641 0.471599 0.804436 -0.165139
C35   C     C_R   0.138736 0.567611 0.104877 -0.142356
C36   C     C_R   0.861418 0.432505 0.895177 -0.142440
C37   C     C_R   0.211165 0.659274 0.128970 -0.106986
C38   C     C_R   0.788860 0.340913 0.871135 -0.106991
C39   C     C_R   0.926894 0.530050 0.408463 -0.243070
C40   C     C_R   0.073111 0.469931 0.591533 -0.243096
Cu1   Cu    Cu3+1 0.509250 0.507730 0.615930 0.939866
Cu2   Cu    Cu3+1 0.490750 0.492270 0.384070 0.939886
H1    H     H_    0.252094 0.689101 0.058711 0.122871
H2    H     H_    0.747928 0.311141 0.941419 0.122907
H3    H     H_    0.660931 0.639353 0.814302 0.122237
H4    H     H_    0.339067 0.360650 0.185698 0.122228
H5    H     H_    0.320157 0.343322 0.970662 0.134242
H6    H     H_    0.679837 0.656683 0.029339 0.134241
H7    H     H_    0.286039 0.783793 0.262070 0.121669
H8    H     H_    0.713762 0.216444 0.738094 0.121634
H9    H     H_    0.195319 0.715044 0.423468 0.103628
H10   H     H_    0.804474 0.285072 0.576635 0.103593
H11   H     H_    0.031583 0.456757 0.175909 0.121076
H12   H     H_    0.968669 0.543236 0.824073 0.121110
H13   H     H_    0.123915 0.526457 0.015990 0.128219
H14   H     H_    0.876339 0.473660 0.984050 0.128244
H15   H     H_    0.870219 0.556004 0.338902 0.151515
H16   H     H_    0.129788 0.443982 0.661093 0.151513
H17   H     H_    0.506908 0.813075 0.348340 0.147013
H18   H     H_    0.493015 0.186923 0.651659 0.146977
H19   H     H_    0.497619 0.841991 0.722619 0.154852
H20   H     H_    0.502350 0.158010 0.277380 0.154850
H21   H     H_    0.504814 0.968081 0.258446 0.130411
H22   H     H_    0.495123 0.031920 0.741553 0.130408
N1    N     N_R   0.523180 0.519350 0.790130 -0.175866
N2    N     N_R   0.476820 0.480650 0.209870 -0.175859
O1    O     O_R   0.506570 0.354460 0.582000 -0.587266
O2    O     O_R   0.493430 0.645540 0.418000 -0.587238
O3    O     O_R   0.490940 0.341410 0.386200 -0.595343
O4    O     O_R   0.509060 0.658590 0.613800 -0.595348
O5    O     O_R   0.327460 0.506540 0.597900 -0.591968
O6    O     O_R   0.672540 0.493460 0.402100 -0.591958
O7    O     O_R   0.311830 0.493480 0.402100 -0.573164
O8    O     O_R   0.688170 0.506520 0.597900 -0.573168
H23   H     H_    0.387196 0.400718 0.788648 0.114514
H24   H     H_    0.612802 0.599283 0.211351 0.114511

loop_
_geom_bond_atom_site_label_1
_geom_bond_atom_site_label_2
_ccdc_geom_bond_type
C8    C13   A    
C21   N2    A    
C27   C29   A    
C1    C8    S    
Cu1   Cu2   S    
C2    C7    S    
C11   H20   S    
C19   H4    S    
Cu1   O1    S    
C13   H18   S    
C14   H17   S    
C21   H24   S    
C17   C26   A    
C35   C37   A    
C9    C16   A    
C2    O2    A    
C10   C15   A    
C15   C16   A    
C39   H15   S    
C19   N2    A    
C30   H10   S    
C17   C19   A    
Cu1   O8    S    
C28   H8    S    
C7    C14   A    
C4    C40   A    
C31   C33   A    
C34   C36   A    
C20   H3    S    
Cu1   O5    S    
C5    C32   S    
C6    C31   S    
C3    C39   A    
Cu2   O2    S    
C3    C24   S    
C18   C25   A    
C22   H23   S    
C23   O7    A    
C33   H11   S    
C7    C12   A    
C40   H16   S    
C35   H13   S    
C23   O5    A    
C20   N1    A    
C4    C6    A    
C4    C23   S    
Cu1   N1    S    
C25   C26   A    
Cu2   O3    S    
C1    O3    A    
C32   C34   A    
C37   H1    S    
C22   N1    A    
C38   H2    S    
C36   H14   S    
C28   C38   A    
Cu2   O6    S    
C9    C11   A    
C10   C12   A    
C34   H12   S    
C13   C15   A    
C14   C16   A    
C24   O6    A    
C29   H9    S    
C21   C25   A    
Cu2   O7    S    
C9    H21   S    
C10   H22   S    
C17   H5    S    
C3    C5    A    
C18   H6    S    
C1    O1    A    
C28   C30   A    
C29   C31   A    
C30   C32   A    
C12   H19   S    
C24   O8    A    
C27   C37   A    
C8    C11   A    
C36   C38   A    
C33   C35   A    
C18   C20   A    
C22   C26   A    
C5    C40   A    
Cu2   N2    S    
C6    C39   A    
C2    O4    A    
C27   H7    S    
Cu1   O4    S    
