data_mof_unit_61315.cif
_audit_creation_date              2012-12-10T17:10:42-0500
_audit_creation_method            fapswitch 2.2
_symmetry_space_group_name_H-M    P1
_symmetry_Int_Tables_number       1
_space_group_crystal_system       triclinic
_cell_length_a                    18.523619
_cell_length_b                    18.628923
_cell_length_c                    18.766957
_cell_angle_alpha                 109.229118
_cell_angle_beta                  109.751775
_cell_angle_gamma                 108.904621
_cell_volume                      5017.25498593

loop_
_atom_site_label
_atom_site_type_symbol
_atom_type_description
_atom_site_fract_x
_atom_site_fract_y
_atom_site_fract_z
_atom_type_partial_charge
Br1   Br    Br    0.793074 0.736524 0.294911 -0.340383
Br2   Br    Br    0.206890 0.299454 0.202569 -0.279380
Br3   Br    Br    0.747074 0.519436 0.505418 -0.325444
Br4   Br    Br    0.774163 0.445920 0.334934 -0.183095
Br5   Br    Br    0.800247 0.668367 0.709148 -0.315167
Br6   Br    Br    0.747214 0.485603 0.972961 -0.317883
Br7   Br    Br    0.957102 0.677982 0.865372 -0.282273
Br8   Br    Br    0.979693 0.341387 0.475463 -0.168502
Br9   Br    Br    0.820615 0.746854 0.941415 -0.375466
Br10  Br    Br    0.053377 0.003611 0.291767 -0.459143
Br11  Br    Br    0.249506 0.409702 0.069017 -0.300829
Br12  Br    Br    0.997226 0.130239 0.994382 -0.210676
C1    C     C_R   0.627377 0.619469 0.506706 0.908360
C2    C     C_R   0.746001 0.660307 0.466820 -0.042152
C3    C     C_R   0.704470 0.684315 0.515027 -0.016807
C4    C     C_R   0.379627 0.500541 0.379631 1.056677
C5    C     C_R   0.727263 0.771861 0.560371 -0.099133
C6    C     C_R   0.784214 0.833880 0.552616 -0.161588
C7    C     C_R   0.811815 0.808139 0.492981 0.012569
C8    C     C_R   0.576557 0.376539 0.676792 -0.245184
C9    C     C_R   0.548555 0.331340 0.716714 -0.268751
C10   C     C_R   0.604238 0.358959 0.803102 0.685566
C11   C     C_R   0.690783 0.427483 0.847754 0.207638
C12   C     C_3   0.172862 0.455676 0.244256 -0.098764
C13   C     C_R   0.724285 0.463965 0.802481 -0.082862
C14   C     C_R   0.663452 0.446007 0.720912 0.029306
C15   C     C_R   0.689081 0.502662 0.689091 -0.155521
C16   C     C_R   0.377313 0.380127 0.497465 0.927570
C17   C     C_R   0.773954 0.574836 0.736642 0.254202
C18   C     C_R   0.838809 0.580952 0.806914 0.279230
C19   C     C_R   0.814865 0.520079 0.835660 -0.224773
C20   C     C_R   0.208456 0.378276 0.461166 0.474402
C21   C     C_R   0.134485 0.384244 0.458235 0.567302
C22   C     C_R   0.080017 0.331878 0.477321 0.209448
C23   C     C_3   0.252986 0.538716 0.328038 -0.143100
C24   C     C_R   0.097454 0.270792 0.495829 -0.285152
C25   C     C_R   0.170082 0.261054 0.495750 -0.032895
C26   C     C_R   0.229487 0.319238 0.483941 -0.104658
C27   C     C_R   0.306747 0.314601 0.493519 -0.006279
C28   C     C_R   0.622416 0.501351 0.620873 0.913708
C29   C     C_R   0.320988 0.249875 0.506547 -0.209839
C30   C     C_R   0.260599 0.190206 0.513198 -0.138336
C31   C     C_R   0.185408 0.194870 0.507379 0.011371
C32   C     C_R   0.000981 0.619641 0.121173 0.939273
C33   C     C_R   0.124603 0.500253 0.124693 1.015274
C34   C     C_3   0.311850 0.500212 0.313341 -0.267246
C35   C     C_R   0.008184 0.379807 0.887882 1.046241
C36   C     C_R   0.882624 0.507801 0.890544 0.897030
C37   C     C_R   0.996643 0.117899 0.619012 0.921769
C38   C     C_R   0.879480 0.876631 0.496366 0.871977
C39   C     C_R   0.006660 0.885142 0.380962 1.012926
C40   C     C_3   0.328970 0.544093 0.260665 0.598413
C41   C     C_R   0.119933 0.124414 0.504283 0.869334
C42   C     C_R   0.920097 0.719575 0.075937 -0.105836
C43   C     C_R   0.895375 0.777526 0.057874 0.311646
C44   C     C_R   0.928350 0.860118 0.125327 -0.152960
C45   C     C_R   0.749466 0.580881 0.440712 0.171619
C46   C     C_R   0.977913 0.881695 0.211442 0.284245
C47   C     C_R   0.986899 0.816686 0.231207 -0.030004
C48   C     C_R   0.968046 0.739758 0.163016 -0.050204
C49   C     C_R   0.997360 0.684913 0.184019 -0.264107
C50   C     C_R   0.031984 0.697589 0.268189 0.577060
C51   C     C_R   0.037559 0.765113 0.332946 0.577970
C52   C     C_3   0.270212 0.583427 0.274483 -0.272026
C53   C     C_R   0.014221 0.824587 0.315285 -0.331255
C54   C     C_R   0.010350 0.225530 0.901173 0.571044
C55   C     C_R   0.992992 0.144922 0.897035 0.165592
C56   C     C_R   0.771918 0.553939 0.375943 0.159510
C57   C     C_R   0.971716 0.074690 0.821742 0.577415
C58   C     C_R   0.970751 0.085417 0.751604 -0.277185
C59   C     C_R   0.988765 0.166407 0.754429 -0.122437
C60   C     C_R   0.003052 0.235815 0.827552 -0.148493
C61   C     C_R   0.010011 0.312702 0.823885 -0.298715
C62   C     C_R   0.008125 0.321682 0.752192 0.552280
C63   C     C_R   0.999903 0.255756 0.683799 0.549774
C64   C     C_3   0.191421 0.500320 0.191737 -0.226247
C65   C     C_R   0.991932 0.179370 0.685243 -0.247638
C66   C     C_3   0.250177 0.462048 0.177389 0.215604
C67   C     C_R   0.790546 0.604708 0.337641 0.618075
C68   C     C_3   0.233001 0.417973 0.230758 0.240323
C69   C     C_R   0.796983 0.686858 0.369826 0.092422
C70   C     C_R   0.785560 0.719416 0.442639 -0.105323
F1    F     F_    0.802915 0.574153 0.268810 -0.551533
F2    F     F_    0.953432 0.995960 0.816772 -0.577322
F3    F     F_    0.001102 0.267182 0.616404 -0.616978
F4    F     F_    0.572290 0.322132 0.844898 -0.592253
F5    F     F_    0.410908 0.589219 0.271117 -0.609624
F6    F     F_    0.255746 0.427151 0.436874 -0.647845
F7    F     F_    0.115778 0.441223 0.436464 -0.566880
F8    F     F_    0.059194 0.643337 0.287177 -0.593873
F9    F     F_    0.064102 0.770799 0.412470 -0.573423
F10   F     F_    0.012080 0.393955 0.747294 -0.573636
F11   F     F_    0.038352 0.293432 0.978686 -0.625199
H1    H     H_    0.284218 0.651073 0.290397 0.207553
H2    H     H_    0.954200 0.029161 0.694602 0.187485
H3    H     H_    0.107255 0.419077 0.236041 0.232977
H4    H     H_    0.255425 0.569707 0.391092 0.251263
H5    H     H_    0.699886 0.792467 0.600763 0.185054
H6    H     H_    0.804471 0.901936 0.591033 0.137641
H7    H     H_    0.529467 0.358023 0.612077 0.156586
H8    H     H_    0.481495 0.278825 0.682568 0.188471
H9    H     H_    0.379626 0.245948 0.512390 0.148232
H10   H     H_    0.053917 0.231924 0.510769 0.255227
H11   H     H_    0.271782 0.139003 0.521111 0.169724
H12   H     H_    0.899488 0.658233 0.022128 0.146779
H13   H     H_    0.918405 0.908805 0.110562 0.212187
O1    O     O_R   0.592050 0.539910 0.448690 -0.593372
O2    O     O_R   0.051390 0.091590 0.643040 -0.618264
O3    O     O_R   0.856260 0.908400 0.447890 -0.592178
O4    O     O_R   0.591210 0.643330 0.551330 -0.626246
O5    O     O_R   0.960490 0.908380 0.552100 -0.600672
O6    O     O_R   0.948610 0.908430 0.356980 -0.576951
O7    O     O_R   0.052850 0.908400 0.461190 -0.558055
O8    O     O_R   0.039510 0.091640 0.447910 -0.591445
O9    O     O_R   0.143740 0.091610 0.552120 -0.629498
O10   O     O_R   0.408100 0.448300 0.356370 -0.588517
O11   O     O_R   0.407270 0.551720 0.459020 -0.587740
O12   O     O_R   0.054880 0.643340 0.094680 -0.635081
O13   O     O_R   0.408790 0.356670 0.448670 -0.618297
O14   O     O_R   0.407950 0.460090 0.551310 -0.587982
O15   O     O_R   0.592730 0.448280 0.540980 -0.595682
O16   O     O_R   0.591900 0.551700 0.643630 -0.597703
O17   O     O_R   0.951420 0.539930 0.094700 -0.551974
O18   O     O_R   0.044450 0.448300 0.096090 -0.570489
O19   O     O_R   0.147910 0.551710 0.096070 -0.625225
O20   O     O_R   0.952850 0.356690 0.912870 -0.593102
O21   O     O_R   0.056310 0.460100 0.912850 -0.561408
O22   O     O_R   0.859820 0.448320 0.911480 -0.612173
O23   O     O_R   0.963280 0.551730 0.911460 -0.570751
O24   O     O_R   0.947150 0.091620 0.538830 -0.587430
Zn1   Zn    Zn3+2 0.500560 0.430950 0.431460 1.122693
Zn2   Zn    Zn3+2 0.499440 0.569050 0.568540 1.098997
Zn3   Zn    Zn3+2 0.934790 0.430970 0.003790 1.155661
Zn4   Zn    Zn3+2 0.072940 0.569060 0.003760 1.131176
Zn5   Zn    Zn3+2 0.930400 0.000020 0.430430 1.108247
Zn6   Zn    Zn3+2 0.069600 0.999990 0.569590 1.102399

loop_
_geom_bond_atom_site_label_1
_geom_bond_atom_site_label_2
_ccdc_geom_bond_type
O19   Zn4   S    
C13   C19   A    
C34   C68   S    
C43   C44   A    
C51   C53   A    
C39   O6    A    
C15   C17   A    
C29   C30   A    
O24   Zn5   S    
O21   Zn4   S    
C1    O1    A    
C69   C70   A    
C27   C29   A    
C42   C48   A    
C28   O15   A    
C14   C15   A    
C50   C51   A    
O18   Zn3   S    
O17   Zn3   S    
C24   H10   S    
C24   C25   A    
Br10  C46   S    
C25   C26   A    
C64   C66   S    
O2    Zn6   S    
C12   H3    S    
C39   C53   S    
C26   C27   A    
C66   C68   S    
O5    Zn6   S    
O3    Zn5   S    
O9    Zn6   S    
Br1   C69   S    
C20   F6    S    
C34   C40   S    
C29   H9    S    
C6    C7    A    
C61   C62   A    
C62   F10   S    
O11   Zn2   S    
C12   C68   S    
C54   C60   A    
O20   Zn3   S    
C33   O19   A    
O7    Zn6   S    
O13   Zn1   S    
O8    Zn5   S    
O4    Zn2   S    
C58   C59   A    
Br9   C43   S    
C20   C26   A    
C7    C70   A    
C5    H5    S    
O12   Zn4   S    
C9    H8    S    
C56   C67   A    
C11   C13   A    
C54   C55   A    
C47   C48   A    
Br7   C18   S    
C9    C10   A    
C49   C50   A    
O15   Zn1   S    
C40   C66   S    
C4    O10   A    
O16   Zn2   S    
C31   C41   S    
C21   C22   A    
C37   O2    A    
Br5   C17   S    
C44   C46   A    
C33   O18   A    
Br12  C55   S    
C12   C23   S    
C62   C63   A    
C35   C61   S    
O1    Zn1   S    
C40   C52   S    
C4    C34   S    
C67   C69   A    
C12   C64   S    
C16   C27   S    
C13   C14   A    
Br4   C56   S    
C38   O3    A    
C48   C49   A    
C55   C57   A    
C25   C31   A    
C17   C18   A    
Br11  C66   S    
C21   F7    S    
C36   O22   A    
C8    H7    S    
C32   O12   A    
C15   C28   S    
C2    C3    A    
C5    C6    A    
C52   C64   S    
Br8   C22   S    
C63   C65   A    
C1    O4    A    
C44   H13   S    
C23   C52   S    
C54   F11   S    
Br3   C45   S    
C19   C36   S    
C1    C3    S    
C16   O14   A    
C36   O23   A    
C6    H6    S    
C2    C70   A    
C45   C56   A    
C59   C65   A    
C41   O8    A    
C35   O20   A    
C63   F3    S    
C3    C5    A    
C2    C45   A    
C42   C43   A    
C42   H12   S    
O14   Zn2   S    
C39   O7    A    
C40   F5    S    
C60   C61   A    
C16   O13   A    
C30   H11   S    
C35   O21   A    
C32   C49   S    
C28   O16   A    
C37   O24   A    
C32   O17   A    
C20   C21   A    
C58   H2    S    
C46   C47   A    
C52   H1    S    
C59   C60   A    
C57   F2    S    
C23   H4    S    
O22   Zn3   S    
C47   C53   A    
C67   F1    S    
C7    C38   S    
C18   C19   A    
O10   Zn1   S    
C8    C14   A    
Br6   C11   S    
C50   F8    S    
C33   C64   S    
C38   O5    A    
C37   C65   S    
C22   C24   A    
C10   F4    S    
C57   C58   A    
Br2   C68   S    
O23   Zn4   S    
C8    C9    A    
C30   C31   A    
C51   F9    S    
C10   C11   A    
O6    Zn5   S    
C4    O11   A    
C23   C34   S    
C41   O9    A    
