data_mof_unit_54844.cif
_audit_creation_date              2012-10-26T19:42:17-0400
_audit_creation_method            fapswitch 2.2
_symmetry_space_group_name_H-M    P1
_symmetry_Int_Tables_number       1
_space_group_crystal_system       triclinic
_cell_length_a                    9.601413
_cell_length_b                    10.782185
_cell_length_c                    17.322393
_cell_angle_alpha                 93.332628
_cell_angle_beta                  86.029055
_cell_angle_gamma                 90.740986
_cell_volume                      1785.88510492

loop_
_atom_site_label
_atom_site_type_symbol
_atom_type_description
_atom_site_fract_x
_atom_site_fract_y
_atom_site_fract_z
_atom_type_partial_charge
C1    C     C_R   0.500765 0.737628 0.503161 0.607978
C2    C     C_R   0.527491 0.495990 0.265451 0.012532
C3    C     C_R   0.398627 0.888722 0.644759 0.280677
C4    C     C_R   0.481643 0.493319 0.649339 0.582378
C5    C     C_R   0.322225 0.959137 0.703213 -0.102613
C6    C     C_R   0.300256 0.084779 0.695694 -0.177420
C7    C     C_R   0.357158 0.142088 0.630684 -0.122632
C8    C     C_R   0.429390 0.072286 0.569177 -0.011370
C9    C     C_R   0.441663 0.942259 0.573749 0.023176
C10   C     C_R   0.504092 0.872200 0.508842 0.003098
C11   C     C_R   0.568309 0.931157 0.445989 -0.164246
C12   C     C_R   0.342895 0.484162 0.775803 -0.122696
C13   C     C_R   0.566975 0.059092 0.444830 -0.152494
C14   C     C_R   0.495822 0.129397 0.504804 0.015183
C15   C     C_R   0.866811 0.334610 0.395881 -0.089368
C16   C     C_R   0.498932 0.262749 0.500537 0.521017
C17   C     C_R   0.944366 0.253557 0.345174 -0.176179
C18   C     C_R   0.087917 0.253107 0.345562 -0.170473
C19   C     C_R   0.154839 0.333825 0.396593 -0.087624
C20   C     C_R   0.080069 0.418401 0.449069 0.154003
C21   C     C_R   0.930522 0.418635 0.448908 0.159279
C22   C     C_R   0.921148 0.577454 0.548659 -0.008632
C23   C     C_R   0.412569 0.499039 0.145714 -0.109324
C24   C     C_R   0.069059 0.577456 0.548615 -0.007207
C25   C     C_R   0.518203 0.499237 0.350136 0.525880
C26   C     C_R   0.471849 0.475541 0.732568 0.014748
C27   C     C_R   0.591961 0.445237 0.768895 -0.149299
C28   C     C_R   0.584329 0.427812 0.847754 -0.112491
C29   C     C_R   0.456595 0.441947 0.891662 0.043026
C30   C     C_R   0.335403 0.466982 0.855022 -0.121280
C31   C     C_3   0.573757 0.792208 0.696574 -0.116808
C32   C     C_R   0.405504 0.504609 0.226070 -0.134780
C33   C     C_R   0.657103 0.482959 0.223235 -0.135705
C34   C     C_R   0.664056 0.477073 0.142582 -0.118806
C35   C     C_R   0.541786 0.483057 0.103386 0.043251
C36   C     C_2   0.448026 0.435793 0.976138 -0.137123
C37   C     C_2   0.552748 0.477334 0.018395 -0.135816
Cu1   Cu    Cu3+1 0.359340 0.500010 0.500010 0.942883
Cu2   Cu    Cu3+1 0.640660 0.499990 0.499990 0.929879
H1    H     H_    0.692065 0.434757 0.736437 0.124767
H2    H     H_    0.892353 0.190462 0.305327 0.114788
H3    H     H_    0.304327 0.516258 0.257235 0.132056
H4    H     H_    0.148188 0.189646 0.306030 0.120259
H5    H     H_    0.265191 0.325815 0.392370 0.183235
H6    H     H_    0.120233 0.640985 0.588473 0.129136
H7    H     H_    0.752780 0.476411 0.252348 0.127607
H8    H     H_    0.649849 0.509819 0.990174 0.113302
H9    H     H_    0.235836 0.476872 0.888141 0.095953
H10   H     H_    0.316950 0.509557 0.117298 0.100264
H11   H     H_    0.248452 0.505712 0.748741 0.126705
H12   H     H_    0.764739 0.466448 0.110705 0.097947
H13   H     H_    0.350444 0.403718 0.003922 0.112054
H14   H     H_    0.678450 0.403440 0.874110 0.100601
H15   H     H_    0.613466 0.701890 0.712230 0.141594
H16   H     H_    0.561043 0.851927 0.751194 0.106980
H17   H     H_    0.654475 0.832510 0.655784 0.113376
H18   H     H_    0.618651 0.877556 0.397208 0.123104
H19   H     H_    0.286811 0.917468 0.756571 0.121587
H20   H     H_    0.244733 0.139381 0.742158 0.120732
H21   H     H_    0.344679 0.241334 0.629854 0.152093
H22   H     H_    0.618562 0.103461 0.395898 0.105655
H23   H     H_    0.861876 0.640956 0.588541 0.107096
H24   H     H_    0.757472 0.327134 0.390857 0.177789
N1    N     N_R   0.852190 0.498790 0.499250 -0.244861
N2    N     N_R   0.148060 0.498710 0.499220 -0.249250
O1    O     O_R   0.381190 0.680360 0.500010 -0.475012
O2    O     O_R   0.618760 0.680340 0.500000 -0.496738
O3    O     O_R   0.367440 0.500030 0.613600 -0.491342
O4    O     O_R   0.605010 0.500010 0.613590 -0.509096
O5    O     O_R   0.381240 0.319660 0.500000 -0.533703
O6    O     O_R   0.618810 0.319640 0.499990 -0.517860
O7    O     O_R   0.394990 0.499990 0.386410 -0.529089
O8    O     O_R   0.632560 0.499970 0.386400 -0.528416
O9    O     O_3   0.445452 0.773663 0.661842 -0.567915

loop_
_geom_bond_atom_site_label_1
_geom_bond_atom_site_label_2
_ccdc_geom_bond_type
Cu1   O5    S    
C19   C20   A    
C7    C8    A    
Cu2   N1    S    
C29   C36   S    
C34   H12   S    
C5    H19   S    
C24   H6    S    
C30   H9    S    
C36   C37   D    
C35   C37   S    
C34   C35   A    
C5    C6    A    
C23   H10   S    
C2    C32   A    
C18   C19   A    
C3    O9    S    
C21   N1    A    
Cu1   O1    S    
C8    C9    A    
C8    C14   A    
C31   H17   S    
C37   H8    S    
C9    C10   A    
C25   O8    A    
C36   H13   S    
C13   C14   A    
C33   H7    S    
C16   O6    A    
C4    O4    A    
C33   C34   A    
Cu2   O4    S    
Cu1   Cu2   S    
Cu1   O7    S    
C20   N2    A    
C16   O5    A    
C4    O3    A    
C31   O9    S    
C12   C26   A    
C1    O1    A    
C29   C30   A    
C3    C9    A    
C22   H23   S    
C4    C26   S    
Cu1   N2    S    
C27   H1    S    
C17   C18   A    
C26   C27   A    
C25   O7    A    
C24   N2    A    
C2    C33   A    
Cu1   O3    S    
C23   C35   A    
C14   C16   S    
C7    H21   S    
C19   H5    S    
C15   C17   A    
C28   C29   A    
Cu2   O6    S    
C12   C30   A    
Cu2   O2    S    
C6    H20   S    
C1    C10   S    
C3    C5    A    
C12   H11   S    
C28   H14   S    
C6    C7    A    
C23   C32   A    
C18   H4    S    
C11   C13   A    
C32   H3    S    
C1    O2    A    
C2    C25   S    
C22   C24   A    
Cu2   O8    S    
C31   H15   S    
C17   H2    S    
C10   C11   A    
C22   N1    A    
C15   C21   A    
C13   H22   S    
C20   C21   A    
C27   C28   A    
C15   H24   S    
C31   H16   S    
C11   H18   S    
