data_mof_unit_55181.cif
_audit_creation_date              2012-12-11T17:34:22-0500
_audit_creation_method            fapswitch 2.2
_symmetry_space_group_name_H-M    P1
_symmetry_Int_Tables_number       1
_space_group_crystal_system       triclinic
_cell_length_a                    24.138223
_cell_length_b                    7.224651
_cell_length_c                    20.283655
_cell_angle_alpha                 89.999574
_cell_angle_beta                  105.372053
_cell_angle_gamma                 89.997682
_cell_volume                      3410.72487368

loop_
_atom_site_label
_atom_site_type_symbol
_atom_type_description
_atom_site_fract_x
_atom_site_fract_y
_atom_site_fract_z
_atom_type_partial_charge
O1    O     O_R   0.449110 0.494310 0.552140 -0.542242
O2    O     O_R   0.550890 0.994310 0.447860 -0.542256
O3    O     O_R   0.440010 0.824420 0.415850 -0.537152
O4    O     O_R   0.559990 0.324420 0.584150 -0.537135
C1    C     C_R   0.425116 0.656543 0.389767 0.684722
C2    C     C_R   0.574882 0.156536 0.610234 0.684752
O5    O     O_R   0.442260 0.824040 0.549660 -0.530928
O6    O     O_R   0.557740 0.324040 0.450340 -0.530905
O7    O     O_R   0.553160 0.993960 0.582620 -0.527505
O8    O     O_R   0.446840 0.493960 0.417380 -0.527555
C3    C     C_R   0.428008 0.654470 0.567612 0.671676
C4    C     C_R   0.571991 0.154469 0.432386 0.671815
O9    O     O_3   0.536380 0.660670 0.510660 -0.372764
O10   O     O_3   0.463620 0.160670 0.489340 -0.372829
V1    V     V_3+5 0.493250 0.935680 0.498020 1.364856
V2    V     V_3+5 0.506750 0.435680 0.501980 1.364894
C5    C     C_R   0.837928 0.937878 0.191695 -0.136582
C6    C     C_R   0.162078 0.437841 0.808312 -0.136586
H1    H     H_    0.825617 0.817701 0.216462 0.105407
H2    H     H_    0.174390 0.317659 0.783549 0.105405
C7    C     C_R   0.872174 0.913946 0.145870 -0.171848
C8    C     C_R   0.127830 0.413922 0.854135 -0.171844
H3    H     H_    0.886127 0.775887 0.137014 0.118791
H4    H     H_    0.113877 0.275868 0.862994 0.118789
C9    C     C_R   0.889055 0.067670 0.113136 -0.051289
C10   C     C_R   0.110946 0.567654 0.886865 -0.051285
C11   C     C_R   0.869756 0.244881 0.126812 -0.167231
C12   C     C_R   0.130244 0.744858 0.873186 -0.167238
H5    H     H_    0.881249 0.367443 0.102692 0.129305
H6    H     H_    0.118750 0.867425 0.897304 0.129301
C13   C     C_R   0.835779 0.268194 0.172410 -0.146593
C14   C     C_R   0.164223 0.768159 0.827591 -0.146583
C15   C     C_R   0.820007 0.115515 0.205644 0.131410
C16   C     C_R   0.179998 0.615472 0.794362 0.131414
C17   C     C_1   0.783861 0.141122 0.252006 -0.065882
C18   C     C_1   0.216146 0.641066 0.748001 -0.065880
C19   C     C_1   0.751828 0.156794 0.288838 -0.053572
C20   C     C_1   0.248180 0.656734 0.711171 -0.053576
C21   C     C_R   0.679543 0.995082 0.330203 -0.153966
C22   C     C_R   0.320476 0.495043 0.669809 -0.153974
H7    H     H_    0.692362 0.873214 0.306777 0.108745
H8    H     H_    0.307662 0.373171 0.693234 0.108738
C23   C     C_R   0.632122 0.987228 0.358440 0.093338
C24   C     C_R   0.367896 0.487208 0.641570 0.093384
C25   C     C_R   0.618636 0.145800 0.394547 -0.098485
C26   C     C_R   0.381370 0.645789 0.605459 -0.098436
C27   C     C_R   0.653770 0.304390 0.397291 -0.201935
C28   C     C_R   0.346226 0.804365 0.602711 -0.201984
H9    H     H_    0.647622 0.423946 0.426525 0.133143
H10   H     H_    0.352365 0.923921 0.573473 0.133128
C29   C     C_R   0.697445 0.312391 0.363168 -0.153492
C30   C     C_R   0.302553 0.812349 0.636837 -0.153438
H11   H     H_    0.721568 0.439241 0.364166 0.114788
H12   H     H_    0.278422 0.939189 0.635837 0.114789
C31   C     C_R   0.710071 0.156790 0.328970 0.098097
C32   C     C_R   0.289939 0.656742 0.671040 0.098095
C33   C     C_R   0.652686 0.247691 0.799659 0.076660
C34   C     C_R   0.347294 0.748025 0.200369 0.076695
H13   H     H_    0.734942 0.152671 0.915858 0.134831
H14   H     H_    0.265027 0.653287 0.084152 0.134822
C35   C     C_R   0.619592 0.156725 0.678487 -0.111229
C36   C     C_R   0.380407 0.656775 0.321513 -0.111316
C37   C     C_R   0.901961 0.022134 0.765223 -0.196663
C38   C     C_R   0.098052 0.521880 0.234773 -0.196659
C39   C     C_R   0.864266 0.020392 0.700565 -0.146434
C40   C     C_R   0.135751 0.520100 0.299428 -0.146428
C41   C     C_R   0.804802 0.047930 0.689942 0.096732
C42   C     C_R   0.195208 0.547794 0.310052 0.096725
C43   C     C_R   0.781180 0.067486 0.747914 0.051603
C44   C     C_R   0.218822 0.567528 0.252081 0.051594
C45   C     C_R   0.821962 0.068841 0.814664 0.054156
C46   C     C_R   0.178034 0.568962 0.185335 0.054161
C47   C     C_R   0.720699 0.099125 0.744255 0.050312
C48   C     C_R   0.279298 0.599254 0.255742 0.050307
C49   C     C_R   0.706210 0.159748 0.804313 0.091791
C50   C     C_R   0.293774 0.660056 0.195699 0.091800
C51   C     C_R   0.746107 0.134975 0.868109 -0.207883
C52   C     C_R   0.253872 0.635420 0.131899 -0.207865
C53   C     C_R   0.802398 0.089523 0.873096 -0.184189
C54   C     C_R   0.197589 0.589864 0.126905 -0.184186
C55   C     C_R   0.673587 0.071997 0.685249 -0.278150
C56   C     C_R   0.326414 0.572037 0.314738 -0.278164
C57   C     C_R   0.611735 0.261212 0.734753 0.046507
C58   C     C_R   0.388263 0.761354 0.265267 0.046631
C59   C     C_R   0.882073 0.050153 0.822643 -0.081365
C60   C     C_R   0.117928 0.550121 0.177356 -0.081377
H15   H     H_    0.677573 0.986842 0.643518 0.148559
H16   H     H_    0.322431 0.486806 0.356451 0.148568
H17   H     H_    0.882307 0.001815 0.657421 0.119521
H18   H     H_    0.117718 0.501383 0.342571 0.119523
H19   H     H_    0.831276 0.079602 0.923932 0.107814
H20   H     H_    0.168707 0.580030 0.076069 0.107821
O11   O     O_R   0.053190 0.709680 0.082610 -0.530071
O12   O     O_R   0.946810 0.209680 0.917390 -0.530068
O13   O     O_R   0.057740 0.380240 0.950340 -0.539378
O14   O     O_R   0.942260 0.880240 0.049660 -0.539381
C61   C     C_R   0.070860 0.549844 0.931724 0.671254
C62   C     C_R   0.929140 0.049848 0.068276 0.671248
O15   O     O_R   0.060000 0.379940 0.084150 -0.532376
O16   O     O_R   0.940000 0.879940 0.915850 -0.532378
O17   O     O_R   0.949110 0.210100 0.052140 -0.537590
O18   O     O_R   0.050890 0.710100 0.947860 -0.537592
C63   C     C_R   0.074479 0.547630 0.109676 0.682885
C64   C     C_R   0.925521 0.047637 0.890324 0.682890
O19   O     O_3   0.963630 0.543720 0.989330 -0.372235
O20   O     O_3   0.036370 0.043720 0.010670 -0.372236
V3    V     V_3+5 0.006750 0.268680 0.001980 1.408675
V4    V     V_3+5 0.993250 0.768680 0.998020 1.408661
C65   C     C_3   0.641004 0.338167 0.863118 -0.375432
C66   C     C_3   0.610127 0.202396 0.899420 -0.311962
C67   C     C_3   0.598121 0.289921 0.962679 -0.770313
H21   H     H_    0.639018 0.331043 0.999722 0.231226
H22   H     H_    0.570250 0.413714 0.948129 0.226173
H23   H     H_    0.575747 0.188387 0.987712 0.217802
H24   H     H_    0.568733 0.159279 0.863893 0.195387
H25   H     H_    0.636800 0.076443 0.915040 0.196210
H26   H     H_    0.681043 0.390084 0.898850 0.168758
H27   H     H_    0.615842 0.467423 0.851198 0.185733
C68   C     C_3   0.358951 0.838742 0.136939 -0.375404
C69   C     C_3   0.389818 0.703144 0.100556 -0.311948
C70   C     C_3   0.401833 0.790968 0.037351 -0.770329
H28   H     H_    0.360941 0.832297 0.000341 0.231223
H29   H     H_    0.429728 0.914673 0.051978 0.226159
H30   H     H_    0.424185 0.689545 0.012245 0.217802
H31   H     H_    0.431208 0.659862 0.136054 0.195365
H32   H     H_    0.363134 0.577259 0.084858 0.196192
H33   H     H_    0.318904 0.890752 0.101244 0.168736
H34   H     H_    0.384108 0.967986 0.148911 0.185794
H35   H     H_    0.947462 0.002988 0.770405 0.113234
H36   H     H_    0.052557 0.502607 0.229590 0.113242
C71   C     C_3   0.772015 0.065185 0.615391 -0.373588
C72   C     C_3   0.757719 0.872047 0.583504 -0.318692
C73   C     C_3   0.716128 0.883701 0.512713 -0.749698
H37   H     H_    0.674538 0.942375 0.516319 0.226335
H38   H     H_    0.734470 0.972060 0.478971 0.241766
H39   H     H_    0.708333 0.743059 0.490074 0.206506
H40   H     H_    0.797927 0.804072 0.579151 0.193921
H41   H     H_    0.738749 0.782528 0.616400 0.194437
H42   H     H_    0.734630 0.158962 0.607319 0.174347
H43   H     H_    0.799266 0.137484 0.586939 0.166691
C74   C     C_3   0.227991 0.565066 0.384604 -0.373605
C75   C     C_3   0.242310 0.371938 0.416496 -0.318695
C76   C     C_3   0.283902 0.383624 0.487286 -0.749677
H44   H     H_    0.325485 0.442338 0.483676 0.226345
H45   H     H_    0.265552 0.471962 0.521027 0.241752
H46   H     H_    0.291714 0.242987 0.509928 0.206496
H47   H     H_    0.202111 0.303924 0.420854 0.193910
H48   H     H_    0.261289 0.282440 0.383601 0.194435
H49   H     H_    0.265368 0.658871 0.392676 0.174360
H50   H     H_    0.200729 0.637337 0.413050 0.166701
H51   H     H_    0.821905 0.406065 0.181815 0.106540
H52   H     H_    0.178098 0.906026 0.818184 0.106536
C77   C     C_3   0.600510 0.803744 0.347419 -0.359549
C78   C     C_3   0.578282 0.757154 0.270760 -0.329711
C79   C     C_3   0.544854 0.576489 0.260018 -0.794602
H53   H     H_    0.510254 0.582430 0.286379 0.226239
H54   H     H_    0.525675 0.552968 0.204593 0.218987
H55   H     H_    0.573845 0.459007 0.280754 0.250008
H56   H     H_    0.550846 0.871609 0.243866 0.196093
H57   H     H_    0.614040 0.740587 0.246418 0.199511
H58   H     H_    0.631369 0.695442 0.372351 0.166621
H59   H     H_    0.564415 0.794754 0.370356 0.199572
C80   C     C_3   0.399519 0.303722 0.652582 -0.359482
C81   C     C_3   0.421727 0.257032 0.729234 -0.329700
C82   C     C_3   0.455176 0.076394 0.739959 -0.794693
H60   H     H_    0.489816 0.082469 0.713660 0.226254
H61   H     H_    0.474304 0.052738 0.795386 0.218980
H62   H     H_    0.426210 0.958921 0.719149 0.250038
H63   H     H_    0.449145 0.371478 0.756160 0.196090
H64   H     H_    0.385959 0.240363 0.753551 0.199505
H65   H     H_    0.368671 0.195435 0.627620 0.166606
H66   H     H_    0.435629 0.294785 0.629669 0.199584
C83   C     C_3   0.562689 0.397950 0.725797 -0.368850
C84   C     C_3   0.584418 0.594710 0.718277 -0.273120
C85   C     C_3   0.544829 0.739271 0.735405 -0.785470
H67   H     H_    0.501603 0.729856 0.699045 0.230746
H68   H     H_    0.541114 0.720158 0.788403 0.221402
H69   H     H_    0.563338 0.877855 0.731805 0.225340
H70   H     H_    0.628153 0.616707 0.752704 0.189983
H71   H     H_    0.587241 0.616700 0.665052 0.217834
H72   H     H_    0.526426 0.367014 0.681454 0.177353
H73   H     H_    0.543569 0.387482 0.769482 0.179554
C86   C     C_3   0.437338 0.897969 0.274240 -0.368842
C87   C     C_3   0.415678 0.094757 0.281881 -0.273174
C88   C     C_3   0.455193 0.239266 0.264575 -0.785613
H74   H     H_    0.498542 0.229358 0.300644 0.230739
H75   H     H_    0.458584 0.220558 0.211429 0.221381
H76   H     H_    0.436818 0.377891 0.268489 0.225386
H77   H     H_    0.371880 0.116843 0.247620 0.190022
H78   H     H_    0.413033 0.116729 0.335174 0.217979
H79   H     H_    0.473615 0.866802 0.318542 0.177223
H80   H     H_    0.456422 0.887599 0.230523 0.179660

loop_
_geom_bond_atom_site_label_1
_geom_bond_atom_site_label_2
_ccdc_geom_bond_type
O17   V3    S    
C76   H46   S    
C40   C42   A    
C37   C39   A    
C54   H20   S    
C82   H60   S    
C66   H25   S    
C11   H5    S    
C81   H64   S    
C80   C81   S    
O1    C3    A    
O2    C4    A    
C86   H80   S    
O11   C63   A    
C2    O7    A    
C45   C53   A    
C74   H49   S    
C27   H9    S    
C83   C84   S    
C39   H17   S    
H14   C52   S    
C48   C50   A    
C2    C35   S    
C81   C82   S    
C17   C19   T    
C50   C52   A    
C28   H10   S    
C1    O8    A    
O11   V4    S    
C69   H32   S    
C88   H75   S    
C79   H54   S    
O20   V3    S    
C72   H41   S    
C76   H44   S    
O16   C64   A    
C46   C54   A    
C87   C88   S    
C38   C60   A    
C43   C45   A    
C84   C85   S    
C70   H30   S    
C36   C58   A    
C71   H43   S    
C5    H1    S    
C45   C59   A    
C21   C31   A    
C67   H21   S    
C24   C26   A    
C72   C73   S    
C39   C41   A    
O14   C62   A    
C44   C48   A    
C73   H39   S    
C13   C15   A    
C43   C47   A    
C74   H50   S    
C24   C80   S    
C80   H65   S    
C29   C31   A    
C61   O18   A    
C68   H34   S    
C25   C27   A    
O14   V4    S    
O12   C64   A    
C82   H61   S    
C6    C8    A    
C37   C59   A    
C79   H55   S    
C47   C49   A    
H13   C51   S    
C81   H63   S    
C5    C15   A    
C48   C56   A    
C60   C63   S    
C47   C55   A    
C30   H12   S    
C65   H27   S    
C85   H69   S    
C51   C53   A    
O19   V4    S    
C26   C28   A    
O12   V3    S    
O16   V4    S    
C44   C46   A    
C34   C50   A    
C75   H48   S    
C12   C14   A    
C85   H68   S    
O15   C63   A    
C35   C57   A    
C69   H31   S    
C88   H76   S    
C21   C23   A    
O5    V1    S    
C22   C32   A    
C72   H40   S    
C11   C13   A    
C5    C7    A    
C66   C67   S    
C33   C65   S    
C29   H11   S    
C38   C40   A    
O4    V2    S    
O5    C3    A    
C86   C87   S    
C78   H57   S    
C80   H66   S    
C34   C58   A    
C13   H51   S    
C46   C60   A    
C85   H67   S    
C14   H52   S    
C28   C30   A    
O6    C4    A    
C33   C57   A    
C78   C79   S    
C52   C54   A    
C42   C74   S    
C67   H22   S    
O1    V2    S    
O18   V4    S    
O2    V1    S    
C6    C16   A    
C70   H28   S    
C55   H15   S    
C59   C64   S    
O13   V3    S    
C49   C51   A    
O4    C2    A    
C40   H18   S    
C38   H36   S    
C83   H73   S    
C82   H62   S    
C7    H3    S    
C73   H37   S    
C8    H4    S    
C65   H26   S    
C71   C72   S    
C84   H71   S    
O3    V1    S    
C69   C70   S    
C76   H45   S    
C7    C9    A    
C87   H78   S    
C75   C76   S    
C53   H19   S    
C75   H47   S    
C58   C86   S    
C41   C71   S    
C4    C25   S    
O3    C1    A    
C86   H79   S    
C27   C29   A    
C68   C69   S    
O13   C61   A    
C9    C11   A    
C62   O17   A    
O15   V3    S    
C10   C12   A    
C77   H59   S    
C33   C49   A    
C57   C83   S    
O7    V1    S    
C78   H56   S    
C23   C25   A    
C35   C55   A    
C65   C66   S    
C18   C20   T    
C88   H74   S    
C56   H16   S    
C66   H24   S    
C22   H8    S    
C34   C68   S    
C15   C17   S    
C16   C18   S    
C12   H6    S    
C1    C36   S    
C67   H23   S    
C6    H2    S    
C37   H35   S    
C36   C56   A    
C70   H29   S    
C71   H42   S    
C10   C61   S    
C83   H72   S    
C19   C31   S    
C9    C62   S    
C22   C24   A    
C20   C32   S    
C21   H7    S    
O6    V2    S    
C8    C10   A    
O9    V2    S    
C77   H58   S    
C79   H53   S    
C73   H38   S    
C42   C44   A    
O10   V1    S    
C3    C26   S    
O8    V2    S    
C41   C43   A    
C77   C78   S    
C74   C75   S    
C23   C77   S    
C84   H70   S    
C87   H77   S    
C30   C32   A    
C14   C16   A    
C68   H33   S    
