data_mof_unit_19863.cif
_audit_creation_date              2012-12-11T16:19:52-0500
_audit_creation_method            fapswitch 2.2
_symmetry_space_group_name_H-M    P1
_symmetry_Int_Tables_number       1
_space_group_crystal_system       triclinic
_cell_length_a                    13.503093
_cell_length_b                    14.029792
_cell_length_c                    30.067196
_cell_angle_alpha                 97.749592
_cell_angle_beta                  90.114299
_cell_angle_gamma                 118.730444
_cell_volume                      4934.58342197

loop_
_atom_site_label
_atom_site_type_symbol
_atom_type_description
_atom_site_fract_x
_atom_site_fract_y
_atom_site_fract_z
_atom_type_partial_charge
C1    C     C_R   0.721176 0.099111 0.568817 0.545611
C2    C     C_1   0.326350 0.627093 0.757374 -0.041992
C3    C     C_1   0.330873 0.634769 0.718113 -0.047543
C4    C     C_R   0.383399 0.787936 0.551058 0.540144
C5    C     C_R   0.296034 0.590170 0.894871 0.004275
C6    C     C_3   0.281593 0.043270 0.715230 -0.227670
C7    C     C_3   0.250562 0.206599 0.714407 -0.085705
C8    C     C_3   0.239998 0.213190 0.766285 -0.192708
C9    C     C_1   0.295957 0.198943 0.876884 -0.022130
C10   C     C_3   0.331741 0.159018 0.700729 0.087785
C11   C     C_3   0.272525 0.051109 0.766887 -0.223310
C12   C     C_R   0.336238 0.650833 0.672110 0.036020
C13   C     C_3   0.313405 0.171771 0.788342 0.062245
C14   C     C_3   0.438187 0.243300 0.778154 -0.215370
C15   C     C_3   0.449684 0.232435 0.726785 -0.207345
C16   C     C_R   0.397406 0.118907 0.569228 0.546428
C17   C     C_1   0.304120 0.181628 0.837176 -0.077714
C18   C     C_1   0.345318 0.148796 0.652102 -0.074538
C19   C     C_1   0.364413 0.137401 0.613268 -0.025801
C20   C     C_3   0.737929 0.197208 0.726790 -0.208188
C21   C     C_3   0.948139 0.259959 0.719099 -0.082284
C22   C     C_3   0.964197 0.272238 0.771384 -0.189470
C23   C     C_R   0.244942 0.650656 0.650053 -0.121756
C24   C     C_1   0.899172 0.205797 0.878552 -0.019529
C25   C     C_3   0.824321 0.169250 0.702365 0.088738
C26   C     C_3   0.757138 0.209231 0.778551 -0.219090
C27   C     C_3   0.855131 0.187192 0.790371 0.059469
C28   C     C_R   0.719557 0.094956 0.442551 0.541139
C29   C     C_3   0.825982 0.070292 0.767288 -0.221489
C30   C     C_3   0.806762 0.059314 0.715671 -0.229907
C31   C     C_1   0.873897 0.196388 0.839223 -0.076301
C32   C     C_1   0.801357 0.153525 0.653352 -0.073925
C33   C     C_1   0.771675 0.133022 0.613902 -0.027090
C34   C     C_R   0.257445 0.688027 0.608668 -0.129827
C35   C     C_3   0.267140 0.723604 0.270470 -0.200443
C36   C     C_3   0.308966 0.567089 0.271674 -0.201119
C37   C     C_3   0.294498 0.545129 0.219233 -0.095145
C38   C     C_1   0.309274 0.608099 0.110771 -0.034017
C39   C     C_3   0.351070 0.690069 0.289230 0.041769
C40   C     C_R   0.382330 0.784523 0.424875 0.546186
C41   C     C_3   0.262811 0.710323 0.218148 -0.096248
C42   C     C_3   0.337343 0.657142 0.200374 0.116121
C43   C     C_3   0.463437 0.736700 0.219381 -0.093395
C44   C     C_3   0.469045 0.759588 0.271821 -0.198881
C45   C     C_R   0.235844 0.635663 0.828005 0.012468
C46   C     C_1   0.327026 0.636071 0.150817 -0.072278
C47   C     C_1   0.358630 0.710761 0.338566 -0.081055
C48   C     C_1   0.367042 0.737452 0.378642 -0.020774
C49   C     C_R   0.358367 0.131162 0.400161 0.021266
C50   C     C_R   0.420629 0.232006 0.384320 -0.126308
C51   C     C_R   0.405177 0.239321 0.339356 -0.114886
C52   C     C_R   0.396294 0.114352 0.442842 0.541022
C53   C     C_R   0.327330 0.146231 0.310085 0.039519
C54   C     C_R   0.258664 0.048011 0.326244 -0.121445
C55   C     C_R   0.273481 0.040579 0.371264 -0.131109
C56   C     C_R   0.225492 0.620610 0.873239 -0.109024
C57   C     C_R   0.240125 0.087681 0.146640 -0.116803
C58   C     C_R   0.232627 0.108647 0.103139 -0.127332
C59   C     C_R   0.411053 0.278877 0.119465 -0.129444
C60   C     C_R   0.418203 0.257735 0.162961 -0.119006
C61   C     C_R   0.330706 0.164303 0.176924 0.037843
C62   C     C_1   0.327764 0.153977 0.223459 -0.038100
C63   C     C_1   0.325740 0.149244 0.262923 -0.037667
C64   C     C_R   0.361780 0.726333 0.589166 0.018797
C65   C     C_R   0.315517 0.206953 0.089867 0.020275
C66   C     C_R   0.777312 0.131457 0.401776 0.020605
C67   C     C_R   0.382800 0.582564 0.871630 -0.139330
C68   C     C_R   0.795704 0.058237 0.370732 -0.129597
C69   C     C_R   0.821812 0.080728 0.327230 -0.119263
C70   C     C_R   0.830724 0.176749 0.314672 0.037983
C71   C     C_R   0.821815 0.254238 0.346295 -0.115299
C72   C     C_R   0.795643 0.231978 0.389806 -0.126153
C73   C     C_R   0.879870 0.300539 0.166171 -0.123165
C74   C     C_R   0.905360 0.308798 0.121470 -0.136143
C75   C     C_R   0.854284 0.115552 0.107953 -0.125810
C76   C     C_R   0.450280 0.718387 0.610096 -0.132433
C77   C     C_R   0.828868 0.107587 0.152581 -0.115467
C78   C     C_R   0.393718 0.597426 0.826689 -0.139273
C79   C     C_R   0.846007 0.201038 0.182006 0.039256
C80   C     C_1   0.840390 0.196705 0.229082 -0.038403
C81   C     C_1   0.837467 0.189891 0.268385 -0.037512
C82   C     C_R   0.897769 0.217482 0.092577 0.020711
C83   C     C_R   0.283662 0.232602 0.922542 0.545210
C84   C     C_R   0.265396 0.545733 0.937513 0.539346
C85   C     C_R   0.945738 0.222320 0.923374 0.545984
C86   C     C_R   0.292560 0.242979 0.049222 0.541181
C87   C     C_R   0.275285 0.558811 0.064837 0.545026
C88   C     C_R   0.437607 0.681266 0.651544 -0.120278
C89   C     C_R   0.318837 0.620833 0.804497 0.048846
C90   C     C_R   0.953744 0.232922 0.050229 0.540386
C91   C     C_3   0.285936 0.318921 0.699592 -0.422182
C92   C     C_3   0.155805 0.663245 0.804894 -0.408653
C93   C     C_3   0.982851 0.371875 0.704125 -0.431171
C94   C     C_3   0.171696 0.457075 0.202623 -0.424841
C95   C     C_3   0.294186 0.820636 0.201959 -0.431922
C96   C     C_3   0.547262 0.695979 0.203714 -0.438478
Cr1   Cr    Cr6+3 0.583400 0.162540 0.509180 1.015221
Cr2   Cr    Cr6+3 0.584070 0.916690 0.495550 1.014928
Cr3   Cr    Cr6+3 0.332550 0.920810 0.495240 1.015357
Cr4   Cr    Cr6+3 0.086700 0.177000 0.983690 1.015532
Cr5   Cr    Cr6+3 0.336880 0.419130 0.994740 1.014137
Cr6   Cr    Cr6+3 0.084850 0.422220 0.995960 1.014732
H1    H     H_    0.158399 0.626879 0.890824 0.129128
H2    H     H_    0.468109 0.331115 0.792174 0.112880
H3    H     H_    0.777247 0.293616 0.794292 0.111058
H4    H     H_    0.744283 0.273971 0.717610 0.112840
H5    H     H_    0.006787 0.231759 0.704116 0.123935
H6    H     H_    0.985907 0.356740 0.787730 0.129088
H7    H     H_    0.036843 0.260018 0.780358 0.098851
H8    H     H_    0.719388 0.992064 0.704283 0.120109
H9    H     H_    0.866436 0.035288 0.698699 0.104889
H10   H     H_    0.748327 0.007678 0.780499 0.120697
H11   H     H_    0.650151 0.130478 0.715736 0.107465
H12   H     H_    0.196173 0.987769 0.697658 0.108727
H13   H     H_    0.677914 0.150279 0.792183 0.112224
H14   H     H_    0.896138 0.053305 0.775051 0.111885
H15   H     H_    0.173527 0.654155 0.204739 0.132258
H16   H     H_    0.180911 0.670926 0.281010 0.102875
H17   H     H_    0.371208 0.543368 0.283341 0.105054
H18   H     H_    0.228086 0.515953 0.286483 0.126522
H19   H     H_    0.347293 0.507448 0.206895 0.138009
H20   H     H_    0.498551 0.848650 0.282939 0.114055
H21   H     H_    0.531891 0.741556 0.287403 0.120996
H22   H     H_    0.172320 0.014993 0.157368 0.104715
H23   H     H_    0.149653 0.161799 0.772770 0.094814
H24   H     H_    0.198064 0.975748 0.303610 0.100782
H25   H     H_    0.224379 0.961713 0.382451 0.130101
H26   H     H_    0.486268 0.303114 0.405842 0.125852
H27   H     H_    0.531582 0.747125 0.595896 0.128634
H28   H     H_    0.488658 0.317268 0.186417 0.104358
H29   H     H_    0.476220 0.355132 0.110197 0.128963
H30   H     H_    0.458141 0.315808 0.326908 0.103598
H31   H     H_    0.892802 0.373059 0.188904 0.100628
H32   H     H_    0.829079 0.328947 0.336697 0.105582
H33   H     H_    0.782522 0.290177 0.413075 0.124857
H34   H     H_    0.265792 0.298838 0.782493 0.125592
H35   H     H_    0.782105 0.980212 0.378945 0.128422
H36   H     H_    0.846912 0.043733 0.086374 0.126354
H37   H     H_    0.458168 0.586800 0.808768 0.103423
H38   H     H_    0.828914 0.020532 0.302750 0.103983
H39   H     H_    0.508784 0.682023 0.668627 0.103835
H40   H     H_    0.220995 0.344182 0.707975 0.125451
H41   H     H_    0.368002 0.383810 0.717050 0.139515
H42   H     H_    0.292681 0.313962 0.662663 0.144332
H43   H     H_    0.165143 0.148413 0.697252 0.120261
H44   H     H_    0.096106 0.672117 0.828251 0.117759
H45   H     H_    0.505316 0.195366 0.718510 0.105411
H46   H     H_    0.204777 0.742042 0.791699 0.134094
H47   H     H_    0.105392 0.596877 0.776511 0.125136
H48   H     H_    0.073433 0.429645 0.715051 0.128608
H49   H     H_    0.973163 0.363175 0.666903 0.142028
H50   H     H_    0.931684 0.408692 0.719206 0.132402
H51   H     H_    0.166275 0.627426 0.665971 0.102816
H52   H     H_    0.109360 0.480341 0.217020 0.127414
H53   H     H_    0.159194 0.442618 0.165348 0.150722
H54   H     H_    0.153086 0.377730 0.213355 0.141500
H55   H     H_    0.187648 0.692696 0.593267 0.128497
H56   H     H_    0.492518 0.315288 0.716420 0.113855
H57   H     H_    0.493656 0.816057 0.206530 0.135722
H58   H     H_    0.292053 0.809787 0.285587 0.126499
H59   H     H_    0.377049 0.887712 0.217894 0.139841
H60   H     H_    0.296626 0.813052 0.164812 0.145153
H61   H     H_    0.229139 0.845233 0.211243 0.124681
H62   H     H_    0.533976 0.623482 0.219051 0.129269
H63   H     H_    0.539841 0.674766 0.166502 0.143091
H64   H     H_    0.635326 0.762441 0.214060 0.121810
H65   H     H_    0.158365 0.051460 0.080975 0.125174
H66   H     H_    0.938842 0.388424 0.110592 0.128437
H67   H     H_    0.493475 0.217476 0.794590 0.110084
H68   H     H_    0.801964 0.030103 0.164725 0.103689
H69   H     H_    0.438079 0.558651 0.887275 0.134422
H70   H     H_    0.183137 0.998037 0.774091 0.112268
H71   H     H_    0.335953 0.005527 0.705298 0.119938
H72   H     H_    0.324795 0.019879 0.781758 0.117139
O1    O     O_R   0.494060 0.188820 0.559230 -0.509126
O2    O     O_R   0.170530 0.527770 0.952070 -0.518131
O3    O     O_R   0.987720 0.318450 0.945940 -0.494925
O4    O     O_R   0.678470 0.153390 0.554100 -0.494864
O5    O     O_R   0.976400 0.159230 0.032040 -0.519174
O6    O     O_R   0.193740 0.188470 0.029020 -0.502765
O7    O     O_R   0.364860 0.335530 0.039220 -0.517847
O8    O     O_R   0.330170 0.515340 0.044800 -0.494157
O9    O     O_R   0.177230 0.536000 0.050040 -0.513115
O10   O     O_R   0.993930 0.326080 0.036750 -0.503175
O11   O     O_3   0.169480 0.339450 0.991460 -0.240918
O12   O     O_R   0.480140 0.824500 0.445020 -0.495069
O13   O     O_R   0.697870 0.003940 0.549410 -0.511875
O14   O     O_R   0.480980 0.827230 0.535590 -0.503419
O15   O     O_R   0.309390 0.811640 0.537920 -0.517441
O16   O     O_R   0.341810 0.023400 0.546180 -0.494125
O17   O     O_R   0.493150 0.185870 0.461540 -0.519073
O18   O     O_R   0.677630 0.150660 0.463530 -0.502898
O19   O     O_R   0.696960 0.000990 0.451710 -0.517752
O20   O     O_R   0.308480 0.808690 0.440220 -0.513617
O21   O     O_R   0.340970 0.020670 0.455610 -0.503546
O22   O     O_3   0.500010 0.000010 0.499990 -0.240209
O23   O     O_R   0.969690 0.151000 0.934080 -0.508726
O24   O     O_R   0.187530 0.180840 0.938210 -0.494632
O25   O     O_R   0.358160 0.327300 0.941250 -0.513115
O26   O     O_R   0.323950 0.507710 0.953980 -0.502396

loop_
_geom_bond_atom_site_label_1
_geom_bond_atom_site_label_2
_ccdc_geom_bond_type
C7    C10   S    
C66   C68   A    
C52   O21   A    
C8    C13   S    
Cr1   O1    S    
C8    H34   S    
C53   C63   S    
C41   C42   S    
C5    C56   A    
C28   C66   S    
C5    C67   A    
C78   H37   S    
C87   O8    A    
C74   H66   S    
C68   H35   S    
Cr5   O26   S    
C1    C33   S    
C7    C8    S    
C40   O20   A    
C53   C54   A    
C84   O26   A    
C54   H24   S    
C12   C23   A    
C59   H29   S    
C26   C27   S    
Cr2   O13   S    
C20   C26   S    
C30   H8    S    
Cr6   O9    S    
Cr1   O22   S    
C36   C37   S    
C74   C82   A    
C43   H57   S    
C10   C15   S    
C95   H59   S    
C87   O9    A    
C20   H11   S    
C92   H46   S    
C20   C25   S    
C30   H9    S    
Cr6   O2    S    
Cr3   O21   S    
C27   C29   S    
C18   C19   T    
C42   C46   S    
C37   C42   S    
C45   C92   S    
C36   H17   S    
C26   H13   S    
C6    H12   S    
Cr2   O14   S    
C3    C12   S    
C29   H10   S    
C35   H58   S    
Cr1   O18   S    
C66   C72   A    
C45   C56   A    
C77   H68   S    
C86   O7    A    
C70   C71   A    
C29   C30   S    
C45   C89   A    
C24   C85   S    
C76   C88   A    
C91   H41   S    
C91   H40   S    
Cr4   O23   S    
C23   C34   A    
C69   H38   S    
C1    O13   A    
C11   H70   S    
C13   C14   S    
C93   H48   S    
C61   C62   S    
C67   C78   A    
C71   H32   S    
C14   H67   S    
Cr5   O11   S    
C28   O18   A    
C26   H3    S    
C86   O6    A    
C43   C96   S    
C20   H4    S    
C77   C79   A    
C78   C89   A    
C73   C79   A    
Cr6   O11   S    
C12   C88   A    
C27   C31   S    
C65   C86   S    
C15   H56   S    
C95   H60   S    
C60   H28   S    
C6    C11   S    
Cr3   O15   S    
C5    C84   S    
C94   H53   S    
C72   H33   S    
C67   H69   S    
C49   C55   A    
C92   H44   S    
Cr3   O22   S    
C49   C52   S    
C96   H62   S    
Cr2   O19   S    
C60   C61   A    
C51   C53   A    
C52   O17   A    
C2    C89   S    
C35   C39   S    
C43   C44   S    
C62   C63   T    
C95   H61   S    
C1    O4    A    
C58   C65   A    
C14   H2    S    
C47   C48   T    
Cr3   O20   S    
C85   O3    A    
Cr1   O17   S    
C94   H52   S    
C22   H7    S    
C7    C91   S    
C76   H27   S    
C34   C64   A    
C50   C51   A    
C64   C76   A    
Cr2   O22   S    
C83   O24   A    
C58   H65   S    
C75   C77   A    
C21   H5    S    
C35   C41   S    
C16   O16   A    
C9    C83   S    
C37   H19   S    
C16   O1    A    
C9    C17   T    
C29   H14   S    
C90   O10   A    
C22   C27   S    
C23   H51   S    
C96   H64   S    
C93   H49   S    
C50   H26   S    
C42   C43   S    
C83   O25   A    
Cr4   O6    S    
C73   C74   A    
C88   H39   S    
Cr5   O7    S    
C39   C47   S    
C91   H42   S    
C85   O23   A    
C25   C30   S    
C40   C48   S    
C21   C25   S    
C54   C55   A    
C11   H72   S    
C90   O5    A    
C4    O15   A    
C68   C69   A    
C36   C39   S    
C14   C15   S    
C56   H1    S    
C55   H25   S    
C80   C81   T    
C35   H16   S    
C75   H36   S    
C28   O19   A    
C6    C10   S    
Cr3   O16   S    
C51   H30   S    
Cr5   O25   S    
C75   C82   A    
C57   C61   A    
C39   C44   S    
C6    H71   S    
C4    C64   S    
C44   H21   S    
C82   C90   S    
C13   C17   S    
C38   C87   S    
Cr6   O10   S    
C32   C33   T    
C4    O14   A    
C2    C3    T    
C24   C31   T    
C71   C72   A    
Cr2   O12   S    
C84   O2    A    
C59   C65   A    
C57   H22   S    
C15   H45   S    
C11   C13   S    
Cr1   O4    S    
C41   C95   S    
C21   C93   S    
C10   C18   S    
C16   C19   S    
C22   H6    S    
C44   H20   S    
C37   C94   S    
Cr4   O11   S    
C69   C70   A    
C36   H18   S    
C38   C46   T    
C79   C80   S    
C34   H55   S    
C8    H23   S    
C59   C60   A    
C40   O12   A    
C94   H54   S    
C49   C50   A    
C73   H31   S    
C92   H47   S    
Cr6   O3    S    
C96   H63   S    
C93   H50   S    
C70   C81   S    
C41   H15   S    
C57   C58   A    
C21   C22   S    
Cr4   O5    S    
Cr5   O8    S    
C7    H43   S    
C25   C32   S    
Cr4   O24   S    
