data_mof_unit_32758.cif
_audit_creation_date              2012-12-11T16:51:20-0500
_audit_creation_method            fapswitch 2.2
_symmetry_space_group_name_H-M    P1
_symmetry_Int_Tables_number       1
_space_group_crystal_system       triclinic
_cell_length_a                    24.64481
_cell_length_b                    17.279394
_cell_length_c                    15.523477
_cell_angle_alpha                 89.955828
_cell_angle_beta                  129.357206
_cell_angle_gamma                 90.106891
_cell_volume                      5111.38022763

loop_
_atom_site_label
_atom_site_type_symbol
_atom_type_description
_atom_site_fract_x
_atom_site_fract_y
_atom_site_fract_z
_atom_type_partial_charge
C1    C     C_R   0.849260 0.859499 0.239602 -0.127515
C2    C     C_R   0.150704 0.859769 0.761121 -0.125364
C3    C     C_R   0.349056 0.359745 0.238720 -0.124172
C4    C     C_R   0.650930 0.359938 0.761477 -0.116772
C5    C     C_R   0.915369 0.143797 0.593912 -0.217161
C6    C     C_R   0.084084 0.144275 0.406268 -0.217180
C7    C     C_R   0.415054 0.643633 0.593853 -0.218174
C8    C     C_R   0.602588 0.628565 0.407889 -0.196107
C9    C     C_R   0.861415 0.184607 0.502773 -0.057729
C10   C     C_R   0.137825 0.185407 0.497381 -0.061132
C11   C     C_R   0.361066 0.684325 0.502666 -0.060124
C12   C     C_R   0.664714 0.660826 0.502071 -0.008951
C13   C     C_R   0.853446 0.125213 0.133461 -0.003907
C14   C     C_R   0.146590 0.125017 0.866722 -0.004396
C15   C     C_R   0.354852 0.628832 0.136046 -0.005966
C16   C     C_R   0.644958 0.631721 0.861725 -0.005470
C17   C     C_R   0.773775 0.842675 0.601208 0.177833
C18   C     C_R   0.259103 0.856482 0.463891 0.157657
C19   C     C_R   0.240165 0.357590 0.535515 0.158832
C20   C     C_R   0.759382 0.356904 0.463882 0.173560
C21   C     C_R   0.760379 0.864230 0.502273 0.035361
C22   C     C_R   0.228933 0.827209 0.508441 0.031734
C23   C     C_R   0.270427 0.327977 0.491384 0.032279
C24   C     C_R   0.729380 0.327770 0.508762 0.030831
C25   C     C_R   0.696971 0.839103 0.401623 -0.181755
C26   C     C_R   0.256041 0.760809 0.574650 -0.178950
C27   C     C_R   0.243183 0.261421 0.425448 -0.181630
C28   C     C_R   0.756743 0.261525 0.575300 -0.182958
C29   C     C_R   0.195852 0.217045 0.422745 -0.155702
C30   C     C_R   0.803850 0.216929 0.577916 -0.152178
C31   C     C_R   0.663578 0.774157 0.401851 -0.172818
C32   C     C_R   0.303149 0.716230 0.577294 -0.155991
C33   C     C_R   0.175316 0.240125 0.484927 0.100181
C34   C     C_R   0.824009 0.239452 0.514985 0.097321
C35   C     C_R   0.691740 0.736596 0.503057 0.048067
C36   C     C_R   0.323536 0.738969 0.514742 0.100661
C37   C     C_R   0.192353 0.313837 0.532062 0.140378
C38   C     C_R   0.806940 0.312948 0.467230 0.138608
C39   C     C_R   0.740492 0.778467 0.601447 0.130713
C40   C     C_R   0.306667 0.812537 0.467280 0.139322
C41   C     C_3   0.803596 0.755974 0.716135 -0.382816
C42   C     C_3   0.281679 0.841887 0.356889 -0.451722
C43   C     C_3   0.217230 0.343623 0.642188 -0.451572
C44   C     C_3   0.781870 0.342273 0.356787 -0.456538
C45   C     C_R   0.111245 0.889068 0.407547 -0.118462
C46   C     C_R   0.885295 0.903422 0.592688 -0.151740
C47   C     C_R   0.611437 0.389358 0.407655 -0.118239
C48   C     C_R   0.388524 0.389351 0.592380 -0.119054
C49   C     C_3   0.839617 0.826521 0.717121 -0.593142
C50   C     C_3   0.228053 0.889547 0.352463 -0.486070
C51   C     C_3   0.271123 0.391050 0.646698 -0.488157
C52   C     C_3   0.728246 0.389914 0.352412 -0.487469
C53   C     C_2   0.145207 0.747059 0.859664 -0.238502
C54   C     C_2   0.853654 0.748179 0.138038 -0.245555
C55   C     C_2   0.645286 0.247311 0.860190 -0.235731
C56   C     C_2   0.354736 0.246987 0.140357 -0.236727
C57   C     C_2   0.191523 0.704031 0.862669 -0.093165
C58   C     C_2   0.808918 0.703517 0.137053 -0.082148
C59   C     C_2   0.691142 0.203691 0.862792 -0.092378
C60   C     C_2   0.308909 0.203166 0.137847 -0.093680
C61   C     C_2   0.807467 0.150703 0.015835 -0.060878
C62   C     C_2   0.192543 0.150213 0.984505 -0.059122
C63   C     C_2   0.309339 0.656042 0.019279 -0.058779
C64   C     C_2   0.690129 0.660699 0.977280 -0.060026
C65   C     C_2   0.737091 0.150931 0.956543 -0.114948
C66   C     C_2   0.262931 0.150341 0.044050 -0.114627
C67   C     C_2   0.238757 0.652671 0.957651 -0.118727
C68   C     C_2   0.760548 0.653538 0.040921 -0.131165
C69   C     C_R   0.185059 0.889483 0.593319 -0.125178
C70   C     C_R   0.811737 0.899453 0.408746 -0.097051
C71   C     C_R   0.685148 0.389686 0.593366 -0.092814
C72   C     C_R   0.314757 0.389707 0.406659 -0.124178
C73   C     C_R   0.059269 0.859977 0.761281 -0.127824
C74   C     C_R   0.939741 0.860614 0.237040 -0.130306
C75   C     C_R   0.559943 0.360417 0.762552 -0.128684
C76   C     C_R   0.440036 0.360356 0.237632 -0.128402
C77   C     C_R   0.880969 0.819080 0.204530 0.145604
C78   C     C_R   0.118301 0.818670 0.794578 0.143807
C79   C     C_R   0.381149 0.318905 0.204733 0.143450
C80   C     C_R   0.618823 0.319094 0.795580 0.138871
C81   C     C_R   0.176619 0.867398 0.501296 0.065919
C82   C     C_R   0.816835 0.887794 0.501617 0.086579
C83   C     C_R   0.676881 0.367808 0.501433 0.060839
C84   C     C_R   0.323006 0.367885 0.498622 0.066342
C85   C     C_R   0.833429 0.139951 0.408695 0.451601
C86   C     C_R   0.166095 0.140541 0.591376 0.452982
C87   C     C_R   0.333204 0.639741 0.408625 0.451881
C88   C     C_R   0.680745 0.621589 0.594212 0.419694
C89   C     C_R   0.923524 0.105680 0.197122 -0.136082
C90   C     C_R   0.076435 0.105622 0.802838 -0.134935
C91   C     C_R   0.424893 0.608716 0.199567 -0.130934
C92   C     C_R   0.575822 0.608687 0.800887 -0.131661
C93   C     C_R   0.166583 0.106001 0.803616 -0.067249
C94   C     C_R   0.833485 0.106139 0.196621 -0.068332
C95   C     C_R   0.665384 0.611642 0.799455 -0.089841
C96   C     C_R   0.334070 0.607913 0.197629 -0.071562
H1    H     H_    0.801348 0.845081 0.225009 0.119061
H2    H     H_    0.199267 0.845923 0.777873 0.107757
H3    H     H_    0.300618 0.345654 0.222373 0.103900
H4    H     H_    0.699392 0.346023 0.777935 0.103989
H5    H     H_    0.180211 0.161727 0.380183 0.149233
H6    H     H_    0.819603 0.161863 0.621055 0.150854
H7    H     H_    0.620328 0.750343 0.322024 0.137874
H8    H     H_    0.318768 0.661063 0.620177 0.147612
H9    H     H_    0.794674 0.758565 0.777876 0.206636
H10   H     H_    0.322006 0.878039 0.364828 0.191160
H11   H     H_    0.176936 0.379930 0.633842 0.190159
H12   H     H_    0.822151 0.378447 0.364635 0.191581
H13   H     H_    0.830501 0.703842 0.718119 0.255913
H14   H     H_    0.257280 0.797149 0.290950 0.248073
H15   H     H_    0.241377 0.299101 0.708325 0.248549
H16   H     H_    0.757455 0.297548 0.290852 0.249644
H17   H     H_    0.850274 0.871200 0.777672 0.211458
H18   H     H_    0.237027 0.952955 0.356262 0.204131
H19   H     H_    0.262333 0.454480 0.642550 0.202357
H20   H     H_    0.737174 0.453322 0.356135 0.206577
H21   H     H_    0.885632 0.809087 0.724198 0.206526
H22   H     H_    0.173124 0.870278 0.286000 0.201812
H23   H     H_    0.325971 0.371853 0.713403 0.202671
H24   H     H_    0.673324 0.370596 0.286041 0.201617
H25   H     H_    0.714164 0.124682 0.990271 0.132798
H26   H     H_    0.285854 0.124161 0.010370 0.132860
H27   H     H_    0.215737 0.623463 0.989420 0.133179
H28   H     H_    0.783071 0.621617 0.010219 0.136025
H29   H     H_    0.201357 0.715963 0.805215 0.184163
H30   H     H_    0.800915 0.713305 0.197157 0.190197
H31   H     H_    0.701677 0.216097 0.806304 0.182132
H32   H     H_    0.298329 0.215556 0.194256 0.182499
H33   H     H_    0.133534 0.734797 0.915098 0.159664
H34   H     H_    0.863501 0.737870 0.079937 0.152811
H35   H     H_    0.633041 0.234849 0.914853 0.160121
H36   H     H_    0.366991 0.234569 0.085727 0.160157
H37   H     H_    0.091078 0.887654 0.322215 0.094970
H38   H     H_    0.905113 0.916655 0.676003 0.109134
H39   H     H_    0.591340 0.388087 0.322358 0.096595
H40   H     H_    0.408640 0.388098 0.677692 0.095694
H41   H     H_    0.233194 0.889791 0.678719 0.121776
H42   H     H_    0.764291 0.903437 0.323187 0.109861
H43   H     H_    0.733264 0.390110 0.678781 0.134593
H44   H     H_    0.266624 0.390106 0.321259 0.120344
H45   H     H_    0.022829 0.844557 0.775198 0.104387
H46   H     H_    0.974890 0.845793 0.220471 0.105706
H47   H     H_    0.524402 0.345210 0.778257 0.107547
H48   H     H_    0.475584 0.345176 0.222012 0.106905
H49   H     H_    0.952835 0.101103 0.167200 0.091725
H50   H     H_    0.047023 0.100970 0.832593 0.091811
H51   H     H_    0.455013 0.606258 0.170927 0.092330
H52   H     H_    0.547080 0.604746 0.831874 0.093052
H53   H     H_    0.219552 0.100347 0.834239 0.160080
H54   H     H_    0.780543 0.100628 0.166207 0.160043
H55   H     H_    0.717942 0.612784 0.827027 0.157767
H56   H     H_    0.280954 0.603198 0.166633 0.161612
H57   H     H_    0.944022 0.158610 0.680471 0.134256
H58   H     H_    0.055398 0.159201 0.319750 0.134580
H59   H     H_    0.443326 0.658342 0.680316 0.133542
H60   H     H_    0.574974 0.641748 0.321238 0.121050
H61   H     H_    0.679187 0.860239 0.321930 0.145385
H62   H     H_    0.236783 0.740436 0.617020 0.161155
H63   H     H_    0.262525 0.240749 0.383395 0.161913
H64   H     H_    0.737645 0.241218 0.617924 0.161614
N1    N     N_R   0.888400 0.921830 0.294620 -0.047739
N2    N     N_R   0.111600 0.921830 0.705380 -0.046534
N3    N     N_R   0.388400 0.421830 0.294620 -0.046526
N4    N     N_R   0.611600 0.421830 0.705380 -0.043298
N5    N     N_R   0.079940 0.922160 0.443410 -0.043174
N6    N     N_R   0.920060 0.922160 0.556590 -0.042642
N7    N     N_R   0.579940 0.422160 0.443410 -0.045225
N8    N     N_R   0.420060 0.422160 0.556590 -0.044123
N9    N     N_R   0.125650 0.922400 0.556620 -0.041982
N10   N     N_R   0.874350 0.922400 0.443380 -0.045293
N11   N     N_R   0.625650 0.422400 0.556620 -0.040828
N12   N     N_R   0.374350 0.422400 0.443380 -0.042153
N13   N     N_R   0.054230 0.922730 0.705400 -0.045701
N14   N     N_R   0.945770 0.922730 0.294600 -0.045886
N15   N     N_R   0.554230 0.422730 0.705400 -0.047608
N16   N     N_R   0.445770 0.422730 0.294600 -0.047101
N17   N     N_R   0.873790 0.077030 0.443380 -0.076049
N18   N     N_R   0.126210 0.077030 0.556620 -0.075226
N19   N     N_R   0.373790 0.577030 0.443380 -0.075288
N20   N     N_R   0.626210 0.577030 0.556620 -0.071384
N21   N     N_R   0.945200 0.076700 0.294600 -0.038774
N22   N     N_R   0.054800 0.076700 0.705400 -0.039047
N23   N     N_R   0.445200 0.576700 0.294600 -0.041737
N24   N     N_R   0.554800 0.576700 0.705400 -0.039185
N25   N     N_R   0.111030 0.077600 0.705380 -0.051810
N26   N     N_R   0.888970 0.077600 0.294620 -0.051480
N27   N     N_R   0.611030 0.577600 0.705380 -0.043862
N28   N     N_R   0.388970 0.577600 0.294620 -0.052395
N29   N     N_R   0.919490 0.077280 0.556590 -0.058000
N30   N     N_R   0.080510 0.077280 0.443410 -0.058217
N31   N     N_R   0.419490 0.577280 0.556590 -0.058465
N32   N     N_R   0.580510 0.577280 0.443410 -0.060718
Ni1   Ni    Ni4+2 0.882160 0.999430 0.370180 0.243120
Ni2   Ni    Ni4+2 0.117840 0.999430 0.629820 0.246539
Ni3   Ni    Ni4+2 0.382160 0.499430 0.370180 0.245099
Ni4   Ni    Ni4+2 0.617840 0.499430 0.629820 0.262332
Ni5   Ni    Ni4+2 0.012460 0.999430 0.370180 0.209233
Ni6   Ni    Ni4+2 0.987540 0.999430 0.629820 0.206950
Ni7   Ni    Ni4+2 0.512460 0.499430 0.370180 0.211613
Ni8   Ni    Ni4+2 0.487540 0.499430 0.629820 0.209851
C97   C     C_2   0.841944 0.182715 0.972086 0.513580
H65   H     H_    0.893524 0.209038 0.029083 0.006510
O1    O     O_2   0.815248 0.176410 0.874073 -0.610103
C98   C     C_2   0.158075 0.182064 0.028229 0.511818
H66   H     H_    0.106650 0.208546 0.971298 0.006008
O2    O     O_2   0.184599 0.175449 0.126133 -0.610958
C99   C     C_2   0.344349 0.692837 0.979063 0.516356
H67   H     H_    0.395449 0.719706 0.038519 0.004585
O3    O     O_2   0.318821 0.690018 0.881332 -0.613639
C100  C     C_2   0.654931 0.702358 0.013905 0.520858
H68   H     H_    0.603830 0.728330 0.951860 0.003783
O4    O     O_2   0.680196 0.704886 0.111518 -0.606782
Cl1   Cl    Cl    0.745396 0.141921 0.286707 -0.738637
Cl2   Cl    Cl    0.254119 0.143362 0.713377 -0.735511
Cl3   Cl    Cl    0.245058 0.641288 0.286893 -0.735784
Cl4   Cl    Cl    0.763655 0.589440 0.710888 -0.757182

loop_
_geom_bond_atom_site_label_1
_geom_bond_atom_site_label_2
_ccdc_geom_bond_type
N29   Ni6   S    
C25   C31   A    
C49   H17   S    
C26   C32   A    
C55   C80   S    
C91   N23   A    
N27   Ni4   S    
C92   H52   S    
C1    C77   A    
C97   H65   S    
C96   N28   A    
N26   Ni1   S    
C93   H53   S    
C46   H38   S    
N22   Ni6   S    
C76   C79   A    
C28   H64   S    
N25   Ni2   S    
N21   Ni5   S    
C2    N2    A    
C91   H51   S    
C47   H39   S    
C95   N27   A    
C6    N30   A    
C39   C41   S    
N2    N13   A    
C73   H45   S    
C38   C44   S    
N18   Ni2   S    
C56   C79   S    
C41   H9    S    
C72   N12   A    
C11   C36   S    
N19   N31   A    
C24   C83   S    
C74   N14   A    
C52   H20   S    
C55   C59   D    
C57   H29   S    
C35   C39   A    
N18   N30   A    
C27   C29   A    
C4    N4    A    
C70   N10   A    
C27   H63   S    
C14   C62   S    
C3    H3    S    
C29   C33   A    
C86   N18   A    
C20   C38   A    
N4    N15   A    
C51   H19   S    
C17   C39   A    
N32   Ni7   S    
C18   C40   A    
C14   C90   A    
C19   C37   A    
C61   C97   S    
C46   C82   A    
C49   H21   S    
C90   N22   A    
N28   Ni3   S    
C11   C87   A    
N24   Ni8   S    
C74   C77   A    
C51   H23   S    
C73   C78   A    
C66   H26   S    
C55   H35   S    
C65   H25   S    
C88   Cl4   S    
C75   C80   A    
C14   C93   A    
N20   Ni4   S    
C3    N3    A    
C54   C77   S    
C9    C85   A    
C44   C52   S    
C7    H59   S    
C40   C42   S    
C32   C36   A    
C74   H46   S    
C3    C79   A    
C63   C99   S    
C69   H41   S    
C97   O1    D    
C7    N31   A    
C43   H15   S    
C57   C67   S    
C1    N1    A    
C70   C82   A    
N3    N16   A    
C41   C49   S    
C44   H16   S    
C58   H30   S    
C88   N20   A    
C71   C83   A    
C23   C27   A    
C44   H12   S    
N5    N9    A    
C54   H34   S    
C63   C67   D    
C72   C84   A    
N17   N29   A    
C23   C84   S    
C30   C34   A    
C75   N15   A    
C99   H67   S    
C22   C81   S    
C24   C28   A    
C36   C40   A    
C76   N16   A    
C89   N21   A    
N31   Ni8   S    
N20   N32   A    
C1    H1    S    
C15   C96   A    
C62   C66   D    
C34   C38   A    
C71   H43   S    
C43   H11   S    
C87   N19   A    
C33   C37   A    
N5    Ni5   S    
C56   C60   D    
C50   H18   S    
N22   N25   A    
C31   H7    S    
C37   C43   S    
C19   C23   A    
C17   C21   A    
C86   Cl2   S    
C5    C9    A    
C2    C78   A    
C85   Cl1   S    
C64   C100  S    
C47   N7    A    
C89   H49   S    
C7    C11   A    
C48   N8    A    
N3    Ni3   S    
C8    C12   A    
C12   C88   A    
C68   H28   S    
N2    Ni2   S    
C87   Cl3   S    
C32   H8    S    
C29   H5    S    
N6    Ni6   S    
C69   N9    A    
C21   C82   S    
C12   C35   S    
C42   H10   S    
C62   C98   S    
C56   H36   S    
C75   H47   S    
C30   H6    S    
C42   C50   S    
C60   C66   S    
C52   H24   S    
C58   C68   S    
C98   O2    D    
C70   H42   S    
C47   C83   A    
C4    H4    S    
C25   H61   S    
C9    C34   S    
C71   N11   A    
C95   H55   S    
N16   Ni7   S    
C17   C49   S    
C64   C68   D    
C18   C50   S    
C54   C58   D    
N8    N12   A    
C21   C25   A    
C10   C86   A    
C16   C95   A    
C53   C57   D    
C46   N6    A    
C13   C89   A    
N13   Ni6   S    
C50   H22   S    
C45   H37   S    
C48   H40   S    
C4    C80   A    
N7    Ni7   S    
C92   N24   A    
C94   N26   A    
C60   H32   S    
N11   Ni4   S    
C76   H48   S    
C67   H27   S    
C6    C10   A    
N10   Ni1   S    
N7    N11   A    
N21   N26   A    
N4    Ni4   S    
C59   H31   S    
C16   C92   A    
N9    Ni2   S    
C94   H54   S    
C20   C52   S    
N17   Ni1   S    
C100  O4    D    
N24   N27   A    
C13   C94   A    
N19   Ni3   S    
C18   C22   A    
C53   C78   S    
C42   H14   S    
C5    N29   A    
C90   H50   S    
N23   N28   A    
C59   C65   S    
N1    N14   A    
C6    H58   S    
C43   C51   S    
C8    N32   A    
C19   C51   S    
C5    H57   S    
N8    Ni8   S    
C31   C35   A    
C28   C30   A    
N6    N10   A    
C26   H62   S    
C10   C33   S    
C45   C81   A    
C61   C65   D    
C73   N13   A    
C8    H60   S    
N23   Ni7   S    
N15   Ni8   S    
N14   Ni5   S    
C69   C81   A    
N1    Ni1   S    
C15   C91   A    
C53   H33   S    
C48   C84   A    
C72   H44   S    
C13   C61   S    
C98   H66   S    
C2    H2    S    
C85   N17   A    
C100  H68   S    
C22   C26   A    
C99   O3    D    
C15   C63   S    
N12   Ni3   S    
C41   H13   S    
C16   C64   S    
C45   N5    A    
C20   C24   A    
N30   Ni5   S    
C93   N25   A    
C96   H56   S    
