data_mof_unit_25160.cif
_audit_creation_date              2012-12-10T19:48:33-0500
_audit_creation_method            fapswitch 2.2
_symmetry_space_group_name_H-M    P1
_symmetry_Int_Tables_number       1
_space_group_crystal_system       triclinic
_cell_length_a                    10.842432
_cell_length_b                    10.636994
_cell_length_c                    9.460192
_cell_angle_alpha                 93.310176
_cell_angle_beta                  91.409909
_cell_angle_gamma                 90.966901
_cell_volume                      1088.71922722

loop_
_atom_site_label
_atom_site_type_symbol
_atom_type_description
_atom_site_fract_x
_atom_site_fract_y
_atom_site_fract_z
_atom_type_partial_charge
Br1   Br    Br    0.837984 0.286441 0.295618 -0.482126
Br2   Br    Br    0.162016 0.713560 0.704381 -0.482127
C1    C     C_R   0.499312 0.259320 0.496564 0.795605
C2    C     C_3   0.397247 0.045288 0.558441 -0.155587
C3    C     C_3   0.500779 0.878025 0.508324 0.009759
C4    C     C_3   0.499221 0.121975 0.491676 0.009759
C5    C     C_3   0.497194 0.972338 0.636892 -0.123563
C6    C     C_3   0.502806 0.027661 0.363108 -0.123562
C7    C     C_3   0.395790 0.539628 0.050791 -0.009668
C8    C     C_3   0.604210 0.460372 0.949209 -0.009667
C9    C     C_3   0.412583 0.427745 0.941419 -0.130173
C10   C     C_3   0.587417 0.572254 0.058581 -0.130172
C11   C     C_3   0.483581 0.610792 0.958803 0.120771
C12   C     C_R   0.500688 0.740680 0.503436 0.795605
C13   C     C_3   0.516419 0.389208 0.041197 0.120771
C14   C     C_R   0.262639 0.500200 0.498148 0.846467
C15   C     C_R   0.737361 0.499800 0.501852 0.846467
C16   C     C_R   0.137146 0.295264 0.031221 -0.156303
C17   C     C_R   0.862854 0.704736 0.968779 -0.156302
C18   C     C_R   0.099325 0.376448 0.142408 -0.083114
C19   C     C_R   0.900676 0.623553 0.857592 -0.083114
C20   C     C_R   0.116833 0.344390 0.283452 0.183711
C21   C     C_R   0.883167 0.655610 0.716548 0.183711
C22   C     C_R   0.175296 0.231652 0.312002 -0.109418
C23   C     C_R   0.871404 0.497657 0.505212 -0.190635
C24   C     C_R   0.824702 0.768346 0.687998 -0.109416
C25   C     C_R   0.213658 0.151056 0.200113 -0.130450
C26   C     C_R   0.786340 0.848942 0.799887 -0.130452
C27   C     C_R   0.194498 0.182653 0.059992 -0.121153
C28   C     C_R   0.805501 0.817346 0.940008 -0.121153
C29   C     C_R   0.930637 0.416582 0.406985 0.216512
C30   C     C_R   0.069363 0.583418 0.593015 0.216512
C31   C     C_2   0.470321 0.742322 0.916159 0.422081
C32   C     C_2   0.529678 0.257678 0.083841 0.422081
C33   C     C_R   0.128596 0.502343 0.494787 -0.190635
C34   C     C_R   0.940908 0.578269 0.601988 -0.113845
C35   C     C_R   0.059092 0.421730 0.398013 -0.113846
C36   C     C_3   0.599187 0.051081 0.569963 -0.159538
C37   C     C_3   0.400812 0.948919 0.430037 -0.159537
C38   C     C_3   0.602753 0.954712 0.441559 -0.155589
Cu1   Cu    Cu3+1 0.500030 0.499990 0.643150 0.969930
Cu2   Cu    Cu3+1 0.499970 0.500010 0.356850 0.969930
H1    H     H_    0.223948 0.119765 0.973769 0.156976
H2    H     H_    0.947226 0.537625 0.881203 0.123362
H3    H     H_    0.187599 0.204724 0.419999 0.103402
H4    H     H_    0.812397 0.795274 0.580001 0.103400
H5    H     H_    0.256952 0.063294 0.221345 0.139509
H6    H     H_    0.743043 0.936703 0.778655 0.139509
H7    H     H_    0.687520 0.915315 0.394200 0.138309
H8    H     H_    0.312480 0.084685 0.605801 0.138308
H9    H     H_    0.680937 0.096952 0.625458 0.151692
H10   H     H_    0.319063 0.903048 0.374542 0.151691
H11   H     H_    0.493501 0.954210 0.750437 0.164166
H12   H     H_    0.776050 0.880234 0.026231 0.156976
H13   H     H_    0.506499 0.045790 0.249563 0.164166
H14   H     H_    0.546604 0.787267 0.866717 0.048386
H15   H     H_    0.453395 0.212733 0.133283 0.048386
H16   H     H_    0.341945 0.365086 0.886056 0.131632
H17   H     H_    0.658055 0.634913 0.113944 0.131632
H18   H     H_    0.308681 0.573970 0.097302 0.152275
H19   H     H_    0.691319 0.426030 0.902698 0.152275
H20   H     H_    0.121140 0.319306 0.922737 0.134298
H21   H     H_    0.878862 0.680695 0.077263 0.134299
H22   H     H_    0.052777 0.462376 0.118797 0.123361
N1    N     N_3   0.500090 0.499970 0.858290 -0.197085
N2    N     N_3   0.499910 0.500030 0.141710 -0.197085
O1    O     O_R   0.500060 0.316850 0.620870 -0.585119
O2    O     O_2   0.623060 0.199285 0.057721 -0.539033
O3    O     O_R   0.499940 0.683150 0.379130 -0.585119
O4    O     O_R   0.500000 0.316860 0.379090 -0.581075
O5    O     O_R   0.500000 0.683140 0.620910 -0.581074
O6    O     O_R   0.319670 0.500010 0.620890 -0.545931
O7    O     O_R   0.680330 0.499990 0.379110 -0.545931
O8    O     O_R   0.319620 0.500010 0.379110 -0.595025
O9    O     O_R   0.680380 0.499990 0.620890 -0.595025
O10   O     O_2   0.376939 0.800714 0.942279 -0.539033

loop_
_geom_bond_atom_site_label_1
_geom_bond_atom_site_label_2
_ccdc_geom_bond_type
C23   C29   A    
C25   C27   A    
Cu1   Cu2   S    
C14   O6    A    
C22   C25   A    
Cu2   O4    S    
C1    C4    S    
Cu1   O1    S    
C11   N1    S    
C28   H12   S    
C14   O8    A    
C22   H3    S    
C30   C34   A    
C17   C19   A    
C8    C13   S    
C14   C33   S    
C38   H7    S    
Br1   C29   S    
Br2   C30   S    
C12   O5    A    
C21   C24   A    
C7    C11   S    
C7    N2    S    
C10   H17   S    
C9    C13   S    
C17   H21   S    
C32   H15   S    
C4    C36   S    
C6    C37   S    
C9    H16   S    
C13   C32   S    
Cu1   O5    S    
C31   H14   S    
C37   H10   S    
C27   H1    S    
C15   O7    A    
C2    C5    S    
C6    H13   S    
C19   C21   A    
Cu2   O8    S    
C30   C33   A    
C1    O4    A    
C2    C4    S    
C32   O2    D    
C3    C5    S    
C16   H20   S    
C4    C6    S    
C36   H9    S    
C20   C35   S    
C10   N2    S    
Cu2   O3    S    
C29   C35   A    
C2    H8    S    
C18   H22   S    
C11   C31   S    
Cu1   O9    S    
C19   H2    S    
C31   O10   D    
C2    C37   S    
C16   C27   A    
C7    C9    S    
C3    C12   S    
C8    C10   S    
Cu1   O6    S    
C18   C20   A    
C3    C37   S    
C12   O3    A    
C20   C22   A    
C8    H19   S    
C5    H11   S    
C15   O9    A    
C8    N1    S    
C25   H5    S    
C26   H6    S    
Cu2   O7    S    
C33   C35   A    
C1    O1    A    
Cu1   N1    S    
C24   C26   A    
C7    H18   S    
C15   C23   S    
C26   C28   A    
C36   C38   S    
C13   N2    S    
C5    C36   S    
C16   C18   A    
C24   H4    S    
C23   C34   A    
C10   C11   S    
C21   C34   S    
C3    C38   S    
Cu2   N2    S    
C6    C38   S    
C17   C28   A    
C9    N1    S    
