data_mof_unit_27833.cif
_audit_creation_date              2012-12-10T20:14:10-0500
_audit_creation_method            fapswitch 2.2
_symmetry_space_group_name_H-M    P1
_symmetry_Int_Tables_number       1
_space_group_crystal_system       triclinic
_cell_length_a                    19.215995
_cell_length_b                    18.459528
_cell_length_c                    10.491906
_cell_angle_alpha                 89.881645
_cell_angle_beta                  90.016509
_cell_angle_gamma                 90.262831
_cell_volume                      3721.62274509

loop_
_atom_site_label
_atom_site_type_symbol
_atom_type_description
_atom_site_fract_x
_atom_site_fract_y
_atom_site_fract_z
_atom_type_partial_charge
C1    C     C_R   0.365781 0.499918 0.500494 0.858464
C2    C     C_R   0.467097 0.274293 0.404784 -0.032168
C3    C     C_R   0.361166 0.875868 0.337882 -0.120461
C4    C     C_R   0.575526 0.162325 0.698009 0.123089
C5    C     C_R   0.635194 0.122556 0.666804 -0.119352
C6    C     C_R   0.676190 0.092499 0.763199 -0.128197
C7    C     C_R   0.657064 0.100459 0.890899 -0.102307
C8    C     C_R   0.597471 0.139584 0.922523 -0.131597
C9    C     C_R   0.557290 0.171356 0.826593 -0.182593
C10   C     C_R   0.465788 0.725193 0.405914 -0.035163
C11   C     C_R   0.533160 0.274288 0.594755 -0.041075
C12   C     C_R   0.533059 0.802350 0.597112 -0.087232
C13   C     C_R   0.465637 0.198102 0.402405 -0.086677
C14   C     C_R   0.463238 0.801343 0.403710 -0.089726
C15   C     C_R   0.534649 0.198101 0.596814 -0.087475
C16   C     C_R   0.497789 0.841496 0.500327 -0.007146
C17   C     C_R   0.500068 0.158447 0.499619 -0.006459
C18   C     C_R   0.524805 0.961831 0.395327 -0.168004
C19   C     C_R   0.634424 0.500140 0.503115 0.867566
C20   C     C_R   0.472330 0.038055 0.604027 -0.168450
C21   C     C_R   0.471397 0.961978 0.603915 -0.170056
C22   C     C_R   0.525773 0.037920 0.395462 -0.168826
C23   C     C_R   0.499580 0.077004 0.499853 0.122257
C24   C     C_R   0.497755 0.922902 0.499679 0.124616
C25   C     C_R   0.500799 0.500116 0.257278 0.885337
C26   C     C_R   0.498454 0.499959 0.742768 0.884329
C27   C     C_3   0.509959 0.568586 0.041134 -0.207840
C28   C     C_3   0.488675 0.431629 0.959339 -0.199098
C29   C     C_3   0.560621 0.525585 0.955491 -0.250495
C30   C     C_R   0.963389 0.544871 0.455427 -0.055619
C31   C     C_3   0.437924 0.474773 0.044888 -0.238773
C32   C     C_3   0.447662 0.542642 0.960837 0.058077
C33   C     C_3   0.550922 0.457846 0.039540 0.053969
C34   C     C_3   0.497871 0.500054 0.877388 -0.015798
C35   C     C_3   0.500757 0.500380 0.122761 -0.016706
C36   C     C_R   0.747033 0.436196 0.503934 -0.201628
C37   C     C_R   0.251328 0.446239 0.451753 -0.203877
C38   C     C_R   0.259211 0.554565 0.582797 -0.183803
C39   C     C_R   0.743586 0.564838 0.553075 -0.198769
C40   C     C_R   0.818738 0.437069 0.517049 -0.175232
C41   C     C_R   0.038223 0.464687 0.639878 -0.057393
C42   C     C_R   0.179458 0.447665 0.462661 -0.165702
C43   C     C_R   0.187722 0.554374 0.597666 -0.163398
C44   C     C_R   0.815024 0.565148 0.569685 -0.162271
C45   C     C_R   0.852639 0.501706 0.548686 0.153364
C46   C     C_R   0.148095 0.501490 0.536219 0.166647
C47   C     C_R   0.709412 0.500528 0.518484 -0.034200
C48   C     C_R   0.291042 0.500239 0.510862 -0.022842
C49   C     C_R   0.391822 0.593419 0.915115 0.102111
C50   C     C_R   0.321054 0.576744 0.932353 -0.145860
C51   C     C_R   0.269995 0.625921 0.893935 -0.145194
C52   C     C_R   0.036195 0.545511 0.453470 -0.055792
C53   C     C_R   0.289115 0.691933 0.838294 -0.145352
C54   C     C_R   0.359390 0.708631 0.819881 -0.144590
C55   C     C_R   0.410569 0.659674 0.858365 -0.116204
C56   C     C_R   0.609707 0.412875 0.090742 0.129918
C57   C     C_R   0.607056 0.336858 0.086008 -0.126889
C58   C     C_R   0.661667 0.295912 0.136270 -0.124851
C59   C     C_R   0.719332 0.330489 0.190362 -0.134297
C60   C     C_R   0.722455 0.406053 0.194412 -0.157508
C61   C     C_R   0.667615 0.447189 0.145994 -0.163600
C62   C     C_R   0.923928 0.585760 0.357033 0.144515
C63   C     C_R   0.965292 0.464540 0.643064 -0.054372
C64   C     C_R   0.923184 0.661807 0.359199 -0.149216
C65   C     C_R   0.885134 0.700247 0.268068 -0.137858
C66   C     C_R   0.847512 0.663069 0.174595 -0.109493
C67   C     C_R   0.848116 0.587398 0.171775 -0.145432
C68   C     C_R   0.886438 0.548718 0.262281 -0.141234
C69   C     C_R   0.078549 0.425750 0.739197 0.149432
C70   C     C_R   0.084270 0.454885 0.862173 -0.146396
C71   C     C_R   0.123551 0.419238 0.955157 -0.150610
C72   C     C_R   0.156948 0.354249 0.926006 -0.111556
C73   C     C_R   0.150881 0.324625 0.803986 -0.131393
C74   C     C_R   0.072862 0.504317 0.544101 -0.049065
C75   C     C_R   0.111700 0.360131 0.710769 -0.148619
C76   C     C_R   0.074151 0.588052 0.355013 0.150208
C77   C     C_R   0.076799 0.563503 0.228656 -0.138778
C78   C     C_R   0.112419 0.603836 0.136274 -0.148917
C79   C     C_R   0.145669 0.668608 0.169466 -0.103460
C80   C     C_R   0.142888 0.693499 0.295031 -0.130306
C81   C     C_R   0.106946 0.653595 0.387522 -0.155100
C82   C     C_R   0.927633 0.421806 0.741715 0.140569
C83   C     C_R   0.930514 0.345790 0.740569 -0.148361
C84   C     C_R   0.894092 0.305422 0.831762 -0.142585
C85   C     C_R   0.928363 0.504210 0.550116 -0.046021
C86   C     C_R   0.854441 0.340599 0.924264 -0.100578
C87   C     C_R   0.851265 0.416204 0.925843 -0.131590
C88   C     C_R   0.887815 0.456846 0.835126 -0.146476
C89   C     C_R   0.572987 0.838884 0.698716 0.123165
C90   C     C_R   0.551085 0.833870 0.826083 -0.188586
C91   C     C_R   0.590164 0.866586 0.922736 -0.128034
C92   C     C_R   0.651959 0.903073 0.893017 -0.101158
C93   C     C_R   0.674501 0.907259 0.766539 -0.134773
C94   C     C_R   0.634818 0.875996 0.669327 -0.125057
C95   C     C_R   0.424897 0.162152 0.301003 0.120036
C96   C     C_R   0.532925 0.726185 0.594578 -0.052096
C97   C     C_R   0.365409 0.121386 0.332014 -0.125089
C98   C     C_R   0.325058 0.090302 0.235577 -0.130879
C99   C     C_R   0.344532 0.098388 0.108009 -0.101890
C100  C     C_R   0.403749 0.138816 0.076498 -0.133302
C101  C     C_R   0.443488 0.171322 0.172518 -0.186704
C102  C     C_R   0.420525 0.836272 0.304024 0.120752
C103  C     C_R   0.435807 0.825368 0.174520 -0.179791
C104  C     C_R   0.392833 0.854811 0.080327 -0.112600
C105  C     C_R   0.333688 0.893916 0.114742 -0.104729
C106  C     C_R   0.317591 0.903868 0.243388 -0.139960
H1    H     H_    0.518455 0.624234 0.078283 0.144164
H2    H     H_    0.148239 0.407167 0.414273 0.118592
H3    H     H_    0.163125 0.595974 0.654483 0.117229
H4    H     H_    0.841352 0.615082 0.595182 0.126560
H5    H     H_    0.560170 0.695973 0.667574 0.131156
H6    H     H_    0.440536 0.304945 0.331502 0.134084
H7    H     H_    0.438882 0.694067 0.333560 0.141826
H8    H     H_    0.559825 0.304957 0.668006 0.139134
H9    H     H_    0.545819 0.933206 0.314082 0.130942
H10   H     H_    0.451228 0.066654 0.685217 0.132410
H11   H     H_    0.449678 0.933484 0.685099 0.130556
H12   H     H_    0.479486 0.376385 0.921008 0.138551
H13   H     H_    0.547425 0.066418 0.314216 0.132007
H14   H     H_    0.305136 0.525976 0.975264 0.126655
H15   H     H_    0.215563 0.612609 0.906275 0.124265
H16   H     H_    0.249463 0.729799 0.808426 0.118442
H17   H     H_    0.374243 0.759582 0.776194 0.118936
H18   H     H_    0.464852 0.673658 0.845187 0.123733
H19   H     H_    0.562747 0.309138 0.044816 0.103513
H20   H     H_    0.659347 0.237376 0.133378 0.116420
H21   H     H_    0.761691 0.298769 0.228804 0.113326
H22   H     H_    0.767385 0.432795 0.235164 0.136380
H23   H     H_    0.610366 0.545819 0.914628 0.137026
H24   H     H_    0.670419 0.505731 0.151053 0.120183
H25   H     H_    0.951625 0.691119 0.431957 0.115573
H26   H     H_    0.884574 0.758854 0.270227 0.119591
H27   H     H_    0.817842 0.692892 0.104404 0.118060
H28   H     H_    0.818736 0.558879 0.099552 0.115396
H29   H     H_    0.886831 0.490093 0.258980 0.114069
H30   H     H_    0.058493 0.505181 0.885392 0.114438
H31   H     H_    0.128261 0.441919 0.049749 0.125613
H32   H     H_    0.187392 0.326774 0.998037 0.119078
H33   H     H_    0.176556 0.274163 0.781631 0.120893
H34   H     H_    0.388922 0.453717 0.087363 0.127942
H35   H     H_    0.107084 0.336567 0.616719 0.111179
H36   H     H_    0.051187 0.513388 0.202026 0.117131
H37   H     H_    0.114187 0.585001 0.038928 0.113709
H38   H     H_    0.173312 0.699676 0.097840 0.126085
H39   H     H_    0.168364 0.743834 0.320577 0.125167
H40   H     H_    0.104443 0.673780 0.484224 0.109931
H41   H     H_    0.960447 0.317929 0.668428 0.115437
H42   H     H_    0.896357 0.246858 0.830378 0.121611
H43   H     H_    0.826110 0.309226 0.994475 0.128605
H44   H     H_    0.820318 0.443243 0.997104 0.127656
H45   H     H_    0.721353 0.385801 0.479159 0.166347
H46   H     H_    0.884981 0.515419 0.837295 0.120773
H47   H     H_    0.503808 0.804890 0.850168 0.108933
H48   H     H_    0.572931 0.863158 0.020737 0.122374
H49   H     H_    0.682582 0.927715 0.968025 0.108014
H50   H     H_    0.722994 0.934278 0.743849 0.110011
H51   H     H_    0.652833 0.879487 0.571680 0.118081
H52   H     H_    0.349652 0.114867 0.430504 0.118577
H53   H     H_    0.278321 0.060521 0.259759 0.111111
H54   H     H_    0.313419 0.073842 0.033570 0.109592
H55   H     H_    0.418393 0.145444 0.977624 0.121728
H56   H     H_    0.275749 0.404259 0.395544 0.138681
H57   H     H_    0.488696 0.203440 0.147080 0.114024
H58   H     H_    0.480712 0.793863 0.146761 0.113480
H59   H     H_    0.404840 0.846636 0.980702 0.117385
H60   H     H_    0.300011 0.915961 0.041773 0.107593
H61   H     H_    0.270902 0.932589 0.269995 0.109382
H62   H     H_    0.347715 0.883378 0.437217 0.116594
H63   H     H_    0.650702 0.116228 0.568219 0.117321
H64   H     H_    0.723089 0.063506 0.738855 0.109156
H65   H     H_    0.688653 0.076720 0.965338 0.105550
H66   H     H_    0.582856 0.145830 0.021402 0.115172
H67   H     H_    0.289869 0.596390 0.628429 0.173189
H68   H     H_    0.512068 0.202920 0.852217 0.110353
H69   H     H_    0.715226 0.614721 0.567604 0.153098
H70   H     H_    0.847972 0.387991 0.500018 0.128632
N1    N     N_R   0.500000 0.689440 0.500000 -0.099456
N2    N     N_R   0.500000 0.310560 0.500000 -0.100193
O1    O     O_R   0.398180 0.560840 0.499970 -0.616122
O2    O     O_R   0.601820 0.439160 0.500030 -0.612295
O3    O     O_R   0.601820 0.560840 0.500030 -0.625003
O4    O     O_R   0.398180 0.439160 0.499970 -0.620368
O5    O     O_R   0.499980 0.560800 0.313940 -0.631788
O6    O     O_R   0.500020 0.439200 0.686060 -0.631077
O7    O     O_R   0.500020 0.560800 0.686060 -0.632596
O8    O     O_R   0.499980 0.439200 0.313940 -0.622869
Zn1   Zn    Zn3+2 0.500000 0.581210 0.500000 0.937648
Zn2   Zn    Zn3+2 0.500000 0.418790 0.500000 0.945907

loop_
_geom_bond_atom_site_label_1
_geom_bond_atom_site_label_2
_ccdc_geom_bond_type
C54   H17   S    
C93   C94   A    
C7    H65   S    
C27   C29   S    
C73   C75   A    
C87   C88   A    
C19   O3    A    
C97   C98   A    
O3    Zn1   S    
C7    C8    A    
C71   H31   S    
C77   C78   A    
C56   C57   A    
C2    H6    S    
C103  H58   S    
C17   C23   S    
C13   C95   S    
C18   C24   A    
C41   C69   S    
C84   C86   A    
C52   C74   A    
C53   H16   S    
C57   H19   S    
C5    C6    A    
C26   O7    A    
C19   C47   S    
O7    Zn1   S    
O1    Zn1   S    
C59   H21   S    
C29   C33   S    
C37   C42   A    
C105  H60   S    
C36   C47   A    
C42   C46   A    
C89   C94   A    
C11   H8    S    
C2    C13   A    
C77   H36   S    
C100  C101  A    
C21   H11   S    
O2    Zn2   S    
C41   C74   A    
C55   H18   S    
C11   C15   A    
C26   C34   S    
C29   H23   S    
C83   C84   A    
C8    C9    A    
C87   H44   S    
C62   C64   A    
C20   C23   A    
C70   C71   A    
C96   N1    A    
C75   H35   S    
C38   C48   A    
C93   H50   S    
N2    Zn2   S    
C33   C56   S    
C72   H32   S    
C66   C67   A    
C104  H59   S    
C28   C34   S    
C59   C60   A    
C16   C24   S    
C90   C91   A    
C99   H54   S    
C63   C85   A    
C70   H30   S    
C88   H46   S    
C22   H13   S    
C22   C23   A    
C104  C105  A    
C3    H62   S    
C6    C7    A    
C84   H42   S    
C3    C106  A    
C40   C45   A    
C96   H5    S    
C63   C82   S    
C67   C68   A    
C12   C16   A    
C12   C89   S    
C36   C40   A    
C67   H28   S    
C76   C77   A    
C91   H48   S    
C39   H69   S    
C10   C14   A    
C86   H43   S    
C91   C92   A    
C20   H10   S    
C78   C79   A    
C72   C73   A    
C38   H67   S    
C73   H33   S    
C27   C35   S    
C58   C59   A    
C49   C55   A    
C40   H70   S    
C29   C34   S    
C82   C83   A    
C38   C43   A    
O6    Zn2   S    
C60   C61   A    
C37   C48   A    
C32   C34   S    
C76   C81   A    
C45   C85   S    
C28   C31   S    
O5    Zn1   S    
C66   H27   S    
C31   C32   S    
C64   H25   S    
C27   H1    S    
C50   C51   A    
C9    H68   S    
C81   H40   S    
C11   N2    A    
O4    Zn2   S    
C20   C21   A    
C90   H47   S    
C100  H55   S    
C10   H7    S    
C25   O5    A    
C61   H24   S    
C25   C35   S    
C83   H41   S    
C79   H38   S    
C3    C102  A    
C69   C70   A    
C80   H39   S    
C28   C33   S    
C58   H20   S    
C94   H51   S    
C30   C62   S    
C51   H15   S    
C49   C50   A    
C14   C16   A    
C41   C63   A    
O8    Zn2   S    
C89   C90   A    
C46   C74   S    
C65   H26   S    
C44   C45   A    
C86   C87   A    
C39   C47   A    
C6    H64   S    
C15   C17   A    
C30   C52   A    
C54   C55   A    
C27   C32   S    
C18   C22   A    
C10   N1    A    
C68   H29   S    
C60   H22   S    
C80   C81   A    
C52   C76   S    
C18   H9    S    
C1    O4    A    
C95   C97   A    
C1    C48   S    
C53   C54   A    
C39   C44   A    
C62   C68   A    
C43   H3    S    
C105  C106  A    
C50   H14   S    
N1    Zn1   S    
C99   C100  A    
C13   C17   A    
C64   C65   A    
C4    C15   S    
C31   H34   S    
C71   C72   A    
C28   H12   S    
C78   H37   S    
C106  H61   S    
C97   H52   S    
C1    O1    A    
C57   C58   A    
C82   C88   A    
C101  H57   S    
C92   C93   A    
C33   C35   S    
C69   C75   A    
C92   H49   S    
C31   C35   S    
C65   C66   A    
C102  C103  A    
C43   C46   A    
C30   C85   A    
C32   C49   S    
C14   C102  S    
C25   O8    A    
C79   C80   A    
C95   C101  A    
C4    C5    A    
C98   H53   S    
C98   C99   A    
C21   C24   A    
C103  C104  A    
C5    H63   S    
C56   C61   A    
C12   C96   A    
C36   H45   S    
C2    N2    A    
C51   C53   A    
C4    C9    A    
C42   H2    S    
C19   O2    A    
C8    H66   S    
C44   H4    S    
C37   H56   S    
C26   O6    A    
