data_mof_unit_27100.cif
_audit_creation_date              2012-12-10T16:52:09-0500
_audit_creation_method            fapswitch 2.2
_symmetry_space_group_name_H-M    P1
_symmetry_Int_Tables_number       1
_space_group_crystal_system       triclinic
_cell_length_a                    7.774445
_cell_length_b                    8.559801
_cell_length_c                    14.875543
_cell_angle_alpha                 91.004607
_cell_angle_beta                  86.103227
_cell_angle_gamma                 93.620106
_cell_volume                      985.586702514

loop_
_atom_site_label
_atom_site_type_symbol
_atom_type_description
_atom_site_fract_x
_atom_site_fract_y
_atom_site_fract_z
_atom_type_partial_charge
C1    C     C_R   0.545722 0.794668 0.497671 0.980161
C2    C     C_R   0.554717 0.633449 0.811979 -0.311149
C3    C     C_R   0.491302 0.506989 0.232354 -0.076804
C4    C     C_R   0.506375 0.495816 0.767662 -0.113254
C5    C     C_R   0.562970 0.638619 0.186179 0.357444
C6    C     C_R   0.455060 0.357563 0.812922 0.411605
C7    C     C_R   0.545991 0.645947 0.092684 -0.111893
C8    C     C_R   0.438443 0.360382 0.907754 -0.033550
C9    C     C_R   0.485625 0.507381 0.047306 -0.008004
C10   C     C_R   0.491202 0.501374 0.953337 -0.047746
C11   C     C_R   0.420369 0.374275 0.096065 0.113959
C12   C     C_R   0.454284 0.205334 0.502390 0.981914
C13   C     C_R   0.549746 0.637009 0.904825 0.065971
C14   C     C_R   0.587561 0.784754 0.042713 0.399565
C15   C     C_R   0.365760 0.230379 0.957947 0.458719
C16   C     C_R   0.594948 0.776866 0.949345 -0.157971
C17   C     C_R   0.358360 0.239252 0.052038 -0.254471
C18   C     C_2   0.569815 0.958183 0.496331 -0.347487
C19   C     C_2   0.430203 0.041824 0.503847 -0.343278
C20   C     C_R   0.502377 0.499321 0.672632 0.960630
C21   C     C_R   0.497534 0.501130 0.327319 0.956504
C22   C     C_R   0.416979 0.377903 0.188918 -0.314045
H1    H     H_    0.364438 0.277354 0.227605 0.150265
H2    H     H_    0.490532 0.141134 0.787386 0.359223
H3    H     H_    0.533189 0.934824 0.137046 0.354442
H4    H     H_    0.252978 0.019763 0.960273 0.338277
H5    H     H_    0.594116 0.738120 0.773726 0.153138
H6    H     H_    0.630483 0.882550 0.911476 0.176984
H7    H     H_    0.304275 0.139974 0.091149 0.145763
H8    H     H_    0.701699 0.009173 0.489129 0.181478
H9    H     H_    0.298320 0.990834 0.511060 0.181779
H10   H     H_    0.013585 0.382661 0.432081 0.193533
H11   H     H_    0.986417 0.617350 0.567913 0.195744
H12   H     H_    0.753295 0.793612 0.194156 0.365577
N1    N     N_2   0.950330 0.457950 0.475660 -0.168977
N2    N     N_2   0.049670 0.542050 0.524340 -0.168170
O1    O     O_R   0.389250 0.738570 0.505970 -0.620088
O2    O     O_3   0.423784 0.223328 0.762475 -0.730192
O3    O     O_3   0.611391 0.931129 0.081714 -0.770947
O4    O     O_3   0.296284 0.098936 0.914933 -0.745000
O5    O     O_R   0.610750 0.261430 0.494030 -0.619991
O6    O     O_R   0.678390 0.711620 0.490370 -0.624331
O7    O     O_R   0.321610 0.288380 0.509630 -0.625682
O8    O     O_R   0.355420 0.513510 0.639950 -0.598437
O9    O     O_R   0.644580 0.486490 0.360050 -0.593507
O10   O     O_R   0.644560 0.486560 0.624350 -0.632863
O11   O     O_R   0.355440 0.513440 0.375650 -0.639756
O12   O     O_3   0.653756 0.752537 0.233845 -0.777973
Zn1   Zn    Zn3+2 0.306940 0.517990 0.510420 0.976158
Zn2   Zn    Zn3+2 0.693060 0.482010 0.489580 0.976730

loop_
_geom_bond_atom_site_label_1
_geom_bond_atom_site_label_2
_ccdc_geom_bond_type
O8    Zn1   S    
C16   H6    S    
C2    C4    A    
C1    O6    A    
C6    O2    S    
C15   C17   A    
C2    H5    S    
C18   H8    S    
C12   O7    A    
O1    Zn1   S    
C9    C10   A    
O10   Zn2   S    
C11   C22   A    
H2    O2    S    
N1    N2    D    
C1    O1    A    
C19   H9    S    
N1    Zn2   S    
O11   Zn1   S    
H3    O3    S    
C9    C11   A    
H4    O4    S    
C1    C18   S    
C12   O5    A    
O9    Zn2   S    
O6    Zn2   S    
C12   C19   S    
C8    C10   A    
C20   O8    A    
C8    C15   A    
C21   O9    A    
C5    O12   S    
C14   C16   A    
C15   O4    S    
C3    C21   S    
H12   O12   S    
O7    Zn1   S    
C4    C20   S    
H10   N1    S    
C7    C9    A    
O5    Zn2   S    
H11   N2    S    
C17   H7    S    
C4    C6    A    
C18   C19   D    
C13   C16   A    
C5    C7    A    
C2    C13   A    
C22   H1    S    
C11   C17   A    
C3    C22   A    
C6    C8    A    
C21   O11   A    
C14   O3    S    
C7    C14   A    
C20   O10   A    
N2    Zn1   S    
C3    C5    A    
C10   C13   A    
