data_mof_unit_7553.cif
_audit_creation_date              2012-12-10T17:03:42-0500
_audit_creation_method            fapswitch 2.2
_symmetry_space_group_name_H-M    P1
_symmetry_Int_Tables_number       1
_space_group_crystal_system       triclinic
_cell_length_a                    10.036545
_cell_length_b                    10.722717
_cell_length_c                    13.102337
_cell_angle_alpha                 90.953915
_cell_angle_beta                  70.19777
_cell_angle_gamma                 90.733732
_cell_volume                      1326.45817007

loop_
_atom_site_label
_atom_site_type_symbol
_atom_type_description
_atom_site_fract_x
_atom_site_fract_y
_atom_site_fract_z
_atom_type_partial_charge
C1    C     C_R   0.505285 0.736569 0.490523 0.963354
C2    C     C_R   0.433049 0.535435 0.984358 0.055102
C3    C     C_R   0.461190 0.570266 0.876051 0.058659
C4    C     C_R   0.542989 0.546709 0.028674 0.062960
C5    C     C_R   0.670849 0.610889 0.972073 0.087257
C6    C     C_R   0.684928 0.665011 0.872466 -0.316065
C7    C     C_R   0.579563 0.649135 0.825801 0.203080
C8    C     C_R   0.529285 0.492851 0.127516 -0.241623
C9    C     C_R   0.753848 0.579571 0.124042 -0.254440
C10   C     C_R   0.370169 0.523637 0.821907 -0.123133
C11   C     C_2   0.614817 0.070200 0.453982 -0.248072
C12   C     C_R   0.421515 0.508013 0.704042 0.910077
C13   C     C_2   0.495975 0.130988 0.511023 -0.174962
C14   C     C_2   0.629679 0.936802 0.461740 0.244130
C15   C     C_2   0.518825 0.865447 0.462278 -0.418533
C16   C     C_2   0.100567 0.426319 0.437321 0.263145
C17   C     C_2   0.943396 0.412768 0.455709 -0.167761
C18   C     C_R   0.498439 0.262711 0.502204 0.895049
C19   C     C_R   0.578730 0.500200 0.295640 0.858702
C20   C     C_R   0.778320 0.623756 0.019383 0.028416
C21   C     C_R   0.626745 0.517950 0.178996 -0.074967
C22   C     C_R   0.236093 0.475941 0.881762 -0.173265
C23   C     C_R   0.196786 0.465517 0.993478 -0.134679
C24   C     C_R   0.295236 0.491626 0.044422 -0.187273
H1    H     H_    0.830608 0.598048 0.164169 0.159332
H2    H     H_    0.429707 0.905401 0.445125 0.155488
H3    H     H_    0.074059 0.540767 0.564426 0.138044
H4    H     H_    0.905018 0.329821 0.425933 0.178500
H5    H     H_    0.891060 0.581503 0.518792 0.158817
H6    H     H_    0.775864 0.723097 0.831601 0.157893
H7    H     H_    0.439617 0.434297 0.168736 0.165065
H8    H     H_    0.163149 0.443723 0.841962 0.161419
H9    H     H_    0.259878 0.480491 0.131126 0.161727
H10   H     H_    0.092174 0.431339 0.040058 0.143291
H11   H     H_    0.706328 0.120766 0.401307 0.161079
N1    N     N_2   0.148270 0.498670 0.498870 -0.224585
N2    N     N_2   0.852610 0.498640 0.498840 -0.209048
O1    O     O_R   0.386950 0.680940 0.500020 -0.606685
O2    O     O_R   0.613110 0.680900 0.499980 -0.594993
O3    O     O_R   0.330780 0.500000 0.653640 -0.614042
O4    O     O_R   0.556930 0.499960 0.653610 -0.586127
O5    O     O_R   0.386890 0.319100 0.500020 -0.633755
O6    O     O_R   0.613050 0.319060 0.499980 -0.611806
O7    O     O_R   0.443070 0.500040 0.346390 -0.614544
O8    O     O_R   0.669220 0.500000 0.346360 -0.617813
Zn1   Zn    Zn3+2 0.349000 0.500030 0.500020 0.941968
Zn2   Zn    Zn3+2 0.651000 0.499970 0.499980 0.939467
C25   C     C_1   0.373951 0.075333 0.592317 0.158127
N3    N     N_1   0.276452 0.031428 0.657203 -0.204484
N4    N     N_2   0.757973 0.885701 0.467550 -0.276103
H12   H     H_    0.812867 0.831390 0.401267 0.234372
C26   C     C_3   0.846544 0.964711 0.508971 -0.786212
H13   H     H_    0.929677 0.907280 0.523207 0.235662
H14   H     H_    0.782354 0.008547 0.587400 0.258493
H15   H     H_    0.898977 0.037911 0.449433 0.228400
N5    N     N_2   0.199320 0.357087 0.350399 -0.281236
H16   H     H_    0.283757 0.320315 0.366276 0.279840
C27   C     C_3   0.148999 0.278181 0.280098 -0.896573
H17   H     H_    0.240767 0.243951 0.211123 0.250884
H18   H     H_    0.079919 0.331572 0.246147 0.251792
H19   H     H_    0.090996 0.196189 0.325337 0.244779
C28   C     C_1   0.911382 0.686392 0.964969 0.128502
N6    N     N_1   0.017952 0.736455 0.921445 -0.199501
N7    N     N_2   0.585886 0.723786 0.735309 -0.282389
H20   H     H_    0.686808 0.751714 0.689075 0.243966
C29   C     C_3   0.486965 0.826165 0.761998 -0.750069
H21   H     H_    0.499483 0.880584 0.688211 0.249340
H22   H     H_    0.507853 0.889281 0.823140 0.236664
H23   H     H_    0.376243 0.790735 0.793974 0.251898

loop_
_geom_bond_atom_site_label_1
_geom_bond_atom_site_label_2
_ccdc_geom_bond_type
C12   O3    A    
C13   C25   S    
C29   H22   S    
C23   C24   A    
C16   N5    S    
N1    Zn1   S    
C28   N6    T    
C1    C15   S    
H3    N1    S    
N2    Zn2   S    
C9    C20   A    
N4    C26   S    
C24   H9    S    
C26   H15   S    
C4    C8    A    
C23   H10   S    
N7    C29   S    
N7    H20   S    
C27   H19   S    
C11   H11   S    
C29   H21   S    
O4    Zn2   S    
C9    H1    S    
C3    C10   A    
C17   N2    D    
C18   O6    A    
C10   C22   A    
O3    Zn1   S    
C11   C13   D    
C9    C21   A    
C14   N4    S    
C16   N1    D    
C22   H8    S    
C13   C18   S    
C26   H13   S    
C2    C4    A    
C10   C12   S    
C25   N3    T    
C19   C21   S    
N5    C27   S    
C2    C3    A    
C6    C7    A    
C3    C7    A    
C18   O5    A    
C20   C28   S    
C5    C6    A    
C11   C14   S    
C7    N7    S    
O1    Zn1   S    
C29   H23   S    
C19   O8    A    
N5    H16   S    
C1    O2    A    
C27   H18   S    
C19   O7    A    
C12   O4    A    
O2    Zn2   S    
O5    Zn1   S    
O8    Zn2   S    
H5    N2    S    
C5    C20   A    
C14   C15   D    
C16   C17   S    
C15   H2    S    
C2    C24   A    
O7    Zn1   S    
N4    H12   S    
C27   H17   S    
C22   C23   A    
C17   H4    S    
O6    Zn2   S    
C6    H6    S    
C1    O1    A    
C8    H7    S    
C26   H14   S    
C4    C5    A    
C8    C21   A    
