data_mof_unit_37150.cif
_audit_creation_date              2012-12-11T16:45:22-0500
_audit_creation_method            fapswitch 2.2
_symmetry_space_group_name_H-M    P1
_symmetry_Int_Tables_number       1
_space_group_crystal_system       triclinic
_cell_length_a                    19.812639
_cell_length_b                    17.077165
_cell_length_c                    15.304645
_cell_angle_alpha                 90.000157
_cell_angle_beta                  52.590136
_cell_angle_gamma                 90.000109
_cell_volume                      4113.12033215

loop_
_atom_site_label
_atom_site_type_symbol
_atom_type_description
_atom_site_fract_x
_atom_site_fract_y
_atom_site_fract_z
_atom_type_partial_charge
C1    C     C_R   0.873966 0.693902 0.993260 -0.126600
C2    C     C_R   0.126034 0.693901 0.006739 -0.126599
C3    C     C_R   0.373971 0.193903 0.993257 -0.126614
C4    C     C_R   0.626037 0.193902 0.006739 -0.126589
C5    C     C_R   0.889497 0.315022 0.303714 0.065098
C6    C     C_R   0.110509 0.315025 0.696285 0.065102
C7    C     C_R   0.389489 0.815023 0.303710 0.065072
C8    C     C_R   0.610503 0.815021 0.696285 0.065094
C9    C     C_R   0.789279 0.347420 0.022315 0.143742
C10   C     C_R   0.210718 0.347419 0.977696 0.143716
C11   C     C_R   0.289283 0.847419 0.022305 0.143744
C12   C     C_R   0.710716 0.847418 0.977696 0.143750
C13   C     C_R   0.808014 0.638714 0.324868 0.073990
C14   C     C_R   0.191979 0.638714 0.675129 0.073986
C15   C     C_R   0.308017 0.138717 0.324869 0.073999
C16   C     C_R   0.691984 0.138716 0.675131 0.073993
C17   C     C_R   0.702668 0.635117 0.528939 0.082932
C18   C     C_R   0.297260 0.635138 0.471062 0.082931
C19   C     C_R   0.202669 0.135120 0.528939 0.082935
C20   C     C_R   0.797331 0.135119 0.471059 0.082934
C21   C     C_R   0.728355 0.664472 0.427332 0.063089
C22   C     C_R   0.271624 0.664472 0.572656 0.063087
C23   C     C_R   0.228360 0.164477 0.427331 0.063087
C24   C     C_R   0.771642 0.164475 0.572668 0.063090
C25   C     C_R   0.183696 0.228962 0.428256 -0.189357
C26   C     C_R   0.816308 0.228958 0.571744 -0.189356
C27   C     C_R   0.683687 0.728954 0.428258 -0.189364
C28   C     C_R   0.316326 0.728928 0.571713 -0.189364
C29   C     C_R   0.133101 0.274521 0.523521 -0.155014
C30   C     C_R   0.866904 0.274516 0.476479 -0.155023
C31   C     C_R   0.633092 0.774513 0.523524 -0.155028
C32   C     C_R   0.366922 0.774485 0.476446 -0.155021
C33   C     C_R   0.126961 0.254900 0.617530 -0.021521
C34   C     C_R   0.873044 0.254896 0.382469 -0.021515
C35   C     C_R   0.626954 0.754894 0.617531 -0.021517
C36   C     C_R   0.373024 0.754891 0.382458 -0.021532
C37   C     C_R   0.651867 0.679487 0.623177 0.063935
C38   C     C_R   0.348060 0.679507 0.376825 0.063946
C39   C     C_R   0.151869 0.179490 0.623177 0.063927
C40   C     C_R   0.848132 0.179489 0.376823 0.063925
C41   C     C_3   0.696735 0.650952 0.668106 0.643909
C42   C     C_3   0.303125 0.651044 0.331956 0.643818
C43   C     C_3   0.196729 0.150947 0.668112 0.643934
C44   C     C_3   0.803269 0.150950 0.331889 0.643916
C45   C     C_R   0.900349 0.301541 0.207181 -0.171599
C46   C     C_R   0.099657 0.301544 0.792817 -0.171587
C47   C     C_R   0.400345 0.801544 0.207176 -0.171618
C48   C     C_R   0.599652 0.801541 0.792818 -0.171588
C49   C     C_3   0.752638 0.603002 0.564992 -0.665655
C50   C     C_3   0.247223 0.603098 0.435071 -0.665653
C51   C     C_3   0.252632 0.102997 0.564997 -0.665664
C52   C     C_3   0.747366 0.103000 0.435002 -0.665654
C53   C     C_2   0.694624 0.235989 0.093020 -0.195064
C54   C     C_2   0.305427 0.236019 0.906929 -0.195048
C55   C     C_2   0.194614 0.735999 0.093023 -0.195077
C56   C     C_2   0.805388 0.736000 0.906975 -0.195103
C57   C     C_2   0.215724 0.807036 0.045921 -0.186280
C58   C     C_2   0.784276 0.807036 0.954078 -0.186266
C59   C     C_2   0.715710 0.307040 0.045952 -0.186283
C60   C     C_2   0.284286 0.307045 0.954078 -0.186175
C61   C     C_R   0.830221 0.410624 0.950972 -0.145018
C62   C     C_R   0.169776 0.410625 0.049034 -0.145012
C63   C     C_R   0.330224 0.910625 0.950966 -0.145004
C64   C     C_R   0.669775 0.910623 0.049036 -0.145013
C65   C     C_R   0.858238 0.578141 0.315303 -0.135831
C66   C     C_R   0.141757 0.578139 0.684698 -0.135815
C67   C     C_R   0.358240 0.078143 0.315304 -0.135832
C68   C     C_R   0.641761 0.078141 0.684696 -0.135833
C69   C     C_R   0.840670 0.320241 0.048310 -0.100458
C70   C     C_R   0.159327 0.320232 0.951705 -0.100479
C71   C     C_R   0.340671 0.820239 0.048303 -0.100486
C72   C     C_R   0.659329 0.820238 0.951697 -0.100493
C73   C     C_R   0.850406 0.672130 0.220937 -0.120539
C74   C     C_R   0.149593 0.672131 0.779060 -0.120549
C75   C     C_R   0.350407 0.172132 0.220937 -0.120548
C76   C     C_R   0.649593 0.172131 0.779063 -0.120538
C77   C     C_R   0.906764 0.393511 0.304300 -0.119770
C78   C     C_R   0.093239 0.393513 0.695700 -0.119767
C79   C     C_R   0.406760 0.893510 0.304300 -0.119768
C80   C     C_R   0.593236 0.893510 0.695700 -0.119768
C81   C     C_R   0.864360 0.602259 0.897673 -0.146055
C82   C     C_R   0.135639 0.602259 0.102328 -0.146026
C83   C     C_R   0.364367 0.102263 0.897665 -0.146033
C84   C     C_R   0.635641 0.102257 0.102325 -0.146042
C85   C     C_R   0.845479 0.679394 0.932472 0.157117
C86   C     C_R   0.154521 0.679394 0.067528 0.157115
C87   C     C_R   0.345489 0.179400 0.932462 0.157116
C88   C     C_R   0.654524 0.179391 0.067527 0.157106
H1    H     H_    0.880951 0.749894 0.019671 0.093107
H2    H     H_    0.119051 0.749893 0.980326 0.093108
H3    H     H_    0.380966 0.249894 0.019660 0.093108
H4    H     H_    0.619058 0.249894 0.980322 0.093095
H5    H     H_    0.108755 0.329429 0.517989 0.121860
H6    H     H_    0.891251 0.329422 0.482010 0.121862
H7    H     H_    0.608743 0.829419 0.517993 0.121858
H8    H     H_    0.391306 0.829374 0.481960 0.121864
H9    H     H_    0.731851 0.696826 0.677316 -0.009624
H10   H     H_    0.268024 0.696962 0.322788 -0.009545
H11   H     H_    0.231847 0.196816 0.677328 -0.009645
H12   H     H_    0.768152 0.196822 0.322676 -0.009630
H13   H     H_    0.819702 0.623515 0.513710 0.163588
H14   H     H_    0.180174 0.623655 0.486404 0.163621
H15   H     H_    0.319698 0.123505 0.513721 0.163582
H16   H     H_    0.680300 0.123512 0.486283 0.163582
H17   H     H_    0.743805 0.538789 0.579969 0.234273
H18   H     H_    0.256001 0.538885 0.420082 0.234257
H19   H     H_    0.243793 0.038784 0.579972 0.234278
H20   H     H_    0.756203 0.038786 0.420024 0.234275
H21   H     H_    0.718654 0.213902 0.135701 0.136667
H22   H     H_    0.281473 0.213971 0.864131 0.136625
H23   H     H_    0.218614 0.713931 0.135743 0.136718
H24   H     H_    0.781392 0.713936 0.864249 0.136673
H25   H     H_    0.189927 0.829925 0.005802 0.133266
H26   H     H_    0.810070 0.829924 0.994201 0.133263
H27   H     H_    0.689882 0.329946 0.005876 0.133257
H28   H     H_    0.310049 0.329925 0.994257 0.133218
H29   H     H_    0.908208 0.245394 0.169754 0.155250
H30   H     H_    0.091802 0.245397 0.830242 0.155241
H31   H     H_    0.408200 0.745398 0.169750 0.155316
H32   H     H_    0.591795 0.745394 0.830244 0.155246
H33   H     H_    0.809118 0.443973 0.911611 0.109434
H34   H     H_    0.190877 0.443977 0.088396 0.109450
H35   H     H_    0.309124 0.943974 0.911602 0.109439
H36   H     H_    0.690874 0.943970 0.088402 0.109434
H37   H     H_    0.843900 0.536538 0.377144 0.119374
H38   H     H_    0.156093 0.536539 0.622855 0.119373
H39   H     H_    0.343902 0.036541 0.377146 0.119373
H40   H     H_    0.656100 0.036540 0.622853 0.119373
H41   H     H_    0.831285 0.270831 0.098482 0.105492
H42   H     H_    0.168704 0.270805 0.901558 0.105512
H43   H     H_    0.331287 0.770823 0.098467 0.105558
H44   H     H_    0.668712 0.770821 0.901534 0.105500
H45   H     H_    0.829674 0.720821 0.197800 0.097154
H46   H     H_    0.170325 0.720825 0.802192 0.097165
H47   H     H_    0.329676 0.220822 0.197798 0.097154
H48   H     H_    0.670324 0.220823 0.802200 0.097154
H49   H     H_    0.917431 0.421249 0.358408 0.084326
H50   H     H_    0.082572 0.421250 0.641593 0.084322
H51   H     H_    0.417420 0.921244 0.358417 0.084326
H52   H     H_    0.582568 0.921248 0.641593 0.084322
H53   H     H_    0.860038 0.575113 0.837376 0.101450
H54   H     H_    0.139961 0.575113 0.162625 0.101477
H55   H     H_    0.360053 0.075120 0.837357 0.101441
H56   H     H_    0.639965 0.075109 0.162621 0.101445
H57   H     H_    0.196133 0.250398 0.353213 0.127020
H58   H     H_    0.803871 0.250393 0.646787 0.127020
H59   H     H_    0.696123 0.750388 0.353216 0.127017
H60   H     H_    0.303919 0.750344 0.646746 0.127028
N1    N     N_R   0.908660 0.628630 0.995840 -0.045237
N2    N     N_R   0.091340 0.628630 0.004160 -0.045237
N3    N     N_R   0.408660 0.128630 0.995840 -0.045235
N4    N     N_R   0.591340 0.128630 0.004160 -0.045236
N5    N     N_R   0.922310 0.368460 0.151950 -0.041123
N6    N     N_R   0.077690 0.368460 0.848050 -0.041121
N7    N     N_R   0.422310 0.868460 0.151950 -0.041125
N8    N     N_R   0.577690 0.868460 0.848050 -0.041120
N9    N     N_R   0.903470 0.421430 0.936420 -0.043773
N10   N     N_R   0.096530 0.421430 0.063580 -0.043773
N11   N     N_R   0.403470 0.921430 0.936420 -0.043774
N12   N     N_R   0.596530 0.921430 0.063580 -0.043772
N13   N     N_R   0.927500 0.575670 0.211370 -0.043943
N14   N     N_R   0.072500 0.575670 0.788630 -0.043943
N15   N     N_R   0.427500 0.075670 0.211370 -0.043942
N16   N     N_R   0.572500 0.075670 0.788630 -0.043943
N17   N     N_R   0.908660 0.365680 0.995820 -0.045543
N18   N     N_R   0.091340 0.365680 0.004180 -0.045539
N19   N     N_R   0.408660 0.865680 0.995820 -0.045542
N20   N     N_R   0.591340 0.865680 0.004180 -0.045541
N21   N     N_R   0.922310 0.631420 0.151980 -0.041517
N22   N     N_R   0.077690 0.631420 0.848020 -0.041516
N23   N     N_R   0.422310 0.131420 0.151980 -0.041517
N24   N     N_R   0.577690 0.131420 0.848020 -0.041517
N25   N     N_R   0.927500 0.426330 0.211360 -0.041298
N26   N     N_R   0.072500 0.426330 0.788640 -0.041299
N27   N     N_R   0.427500 0.926330 0.211360 -0.041294
N28   N     N_R   0.572500 0.926330 0.788640 -0.041296
N29   N     N_R   0.903470 0.570760 0.936440 -0.042699
N30   N     N_R   0.096530 0.570760 0.063560 -0.042705
N31   N     N_R   0.403470 0.070760 0.936440 -0.042700
N32   N     N_R   0.596530 0.070760 0.063560 -0.042698
Ni1   Ni    Ni4+2 0.000000 0.630300 0.000000 0.218138
Ni2   Ni    Ni4+2 0.500000 0.130300 0.000000 0.218133
Ni3   Ni    Ni4+2 0.000000 0.369700 0.000000 0.238366
Ni4   Ni    Ni4+2 0.500000 0.869700 0.000000 0.238362
Ni5   Ni    Ni4+2 0.988090 0.497570 0.863760 0.211631
Ni6   Ni    Ni4+2 0.011910 0.497570 0.136240 0.211634
Ni7   Ni    Ni4+2 0.488090 0.997570 0.863760 0.211629
Ni8   Ni    Ni4+2 0.511910 0.997570 0.136240 0.211630
F1    F     F_    0.644461 0.604532 0.760346 -0.682466
F2    F     F_    0.355331 0.604617 0.239704 -0.682511
F3    F     F_    0.144449 0.104526 0.760349 -0.682448
F4    F     F_    0.855547 0.104529 0.239649 -0.682450

loop_
_geom_bond_atom_site_label_1
_geom_bond_atom_site_label_2
_ccdc_geom_bond_type
C2    N2    A    
C79   H51   S    
C29   C33   A    
C7    C36   S    
N23   Ni2   S    
C83   C87   A    
C63   N11   A    
C82   H54   S    
N16   Ni7   S    
N7    N27   A    
C67   N15   A    
C53   C59   D    
C82   C86   A    
C48   H32   S    
C54   C60   D    
C46   H30   S    
C33   C39   A    
C7    C79   A    
C47   N7    A    
N3    Ni2   S    
C37   C41   S    
C9    C61   A    
C14   C74   A    
C61   H33   S    
C35   C37   A    
C77   H49   S    
C38   C42   S    
C67   H39   S    
C70   N18   A    
N26   Ni5   S    
C49   H13   S    
C54   C87   S    
C20   C40   A    
C11   C71   A    
C6    C78   A    
N31   Ni7   S    
C84   H56   S    
C51   H15   S    
C16   C76   A    
N5    N25   A    
C70   H42   S    
N29   Ni5   S    
C66   N14   A    
C3    H3    S    
N11   Ni7   S    
C76   N24   A    
C59   H27   S    
C41   H9    S    
N32   Ni8   S    
N27   Ni8   S    
C56   H24   S    
N8    N28   A    
C20   C24   A    
N11   N19   A    
N20   Ni4   S    
N8    Ni4   S    
C77   N25   A    
C62   N10   A    
C1    N1    A    
C16   C68   A    
C69   H41   S    
N15   N23   A    
C68   H40   S    
C81   C85   A    
N2    N30   A    
C12   C58   S    
C44   C52   S    
C15   C23   S    
C21   C27   A    
C52   H20   S    
C43   F3    S    
C16   C24   S    
C22   C28   A    
C5    C34   S    
N1    Ni1   S    
C72   N20   A    
C82   N30   A    
C10   C62   A    
C71   H43   S    
C4    N4    A    
C78   H50   S    
C41   C49   S    
C72   H44   S    
N2    Ni1   S    
C68   N16   A    
C25   C29   A    
C46   N6    A    
N25   Ni6   S    
C28   H60   S    
C30   C34   A    
C3    C87   A    
N17   Ni3   S    
N5    Ni3   S    
C28   C32   A    
C78   N26   A    
C80   N28   A    
N9    N17   A    
N6    N26   A    
N7    Ni4   S    
N4    Ni2   S    
C13   C65   A    
C26   H58   S    
C80   H52   S    
C27   C31   A    
C17   C21   A    
C66   H38   S    
N15   Ni8   S    
C9    C59   S    
C54   H22   S    
C65   H37   S    
N4    N32   A    
C19   C23   A    
C8    C48   A    
C13   C73   A    
N13   Ni6   S    
N30   Ni6   S    
C61   N9    A    
C84   N32   A    
C42   F2    S    
N3    N31   A    
N19   Ni4   S    
N14   N22   A    
C15   C67   A    
N6    Ni3   S    
C64   N12   A    
N1    N29   A    
C14   C66   A    
C13   C21   S    
C57   H25   S    
N21   Ni1   S    
C19   C39   A    
C42   C50   S    
C10   C70   A    
C27   H59   S    
C32   H8    S    
C73   H45   S    
C50   H14   S    
C25   H57   S    
C55   C57   D    
N22   Ni1   S    
C75   N23   A    
C9    C69   A    
C31   C35   A    
C60   H28   S    
C1    C85   A    
C45   N5    A    
C17   C37   A    
C17   C49   S    
C36   C38   A    
C32   C36   A    
C62   H34   S    
C47   H31   S    
C18   C50   S    
N28   Ni7   S    
C50   H18   S    
C15   C75   A    
C53   H21   S    
C10   C60   S    
C52   H16   S    
C73   N21   A    
C1    H1    S    
C2    H2    S    
C6    C46   A    
C55   H23   S    
C18   C22   A    
C49   H17   S    
N18   Ni3   S    
C84   C88   A    
N9    Ni5   S    
N14   Ni5   S    
C63   H35   S    
C26   C30   A    
C4    C88   A    
C83   N31   A    
C3    N3    A    
C6    C33   S    
C41   F1    S    
C20   C52   S    
C14   C22   S    
C55   C86   S    
C42   H10   S    
C18   C38   A    
N13   N21   A    
C30   H6    S    
C64   H36   S    
C43   H11   S    
C29   H5    S    
C44   H12   S    
C79   N27   A    
C43   C51   S    
C56   C85   S    
C75   H47   S    
C5    C45   A    
C19   C51   S    
C12   C64   A    
C74   H46   S    
C81   H53   S    
C56   C58   D    
C2    C86   A    
C53   C88   S    
N10   Ni6   S    
N12   N20   A    
C12   C72   A    
C48   N8    A    
C69   N17   A    
C45   H29   S    
C74   N22   A    
N16   N24   A    
C31   H7    S    
C58   H26   S    
C81   N29   A    
C76   H48   S    
N10   N18   A    
N24   Ni2   S    
C40   C44   S    
C23   C25   A    
C39   C43   S    
C24   C26   A    
C51   H19   S    
C65   N13   A    
C8    C80   A    
N12   Ni8   S    
C34   C40   A    
C83   H55   S    
C71   N19   A    
C11   C57   S    
C11   C63   A    
C5    C77   A    
C8    C35   S    
C44   F4    S    
C7    C47   A    
C4    H4    S    
