data_mof_unit_40486.cif
_audit_creation_date              2012-10-26T18:33:38-0400
_audit_creation_method            fapswitch 2.2
_symmetry_space_group_name_H-M    P1
_symmetry_Int_Tables_number       1
_space_group_crystal_system       triclinic
_cell_length_a                    15.064707
_cell_length_b                    13.688892
_cell_length_c                    10.736363
_cell_angle_alpha                 89.974635
_cell_angle_beta                  89.668846
_cell_angle_gamma                 90.053313
_cell_volume                      2214.00546023

loop_
_atom_site_label
_atom_site_type_symbol
_atom_type_description
_atom_site_fract_x
_atom_site_fract_y
_atom_site_fract_z
_atom_type_partial_charge
C1    C     C_R   0.328889 0.499922 0.500137 0.553935
C2    C     C_R   0.047176 0.624087 0.660269 -0.148800
C3    C     C_R   0.094018 0.563088 0.579044 0.019807
C4    C     C_R   0.502434 0.500091 0.259900 0.598302
C5    C     C_R   0.047781 0.499641 0.498470 0.066077
C6    C     C_R   0.095146 0.435354 0.419797 0.012878
C7    C     C_R   0.049479 0.372878 0.339802 -0.148022
C8    C     C_R   0.957171 0.373711 0.337274 -0.090428
C9    C     C_R   0.186526 0.563769 0.577772 -0.139539
C10   C     C_R   0.232862 0.499611 0.499961 -0.007148
C11   C     C_R   0.187623 0.434824 0.422289 -0.130166
C12   C     C_3   0.566448 0.420097 0.927214 -0.259447
C13   C     C_R   0.447644 0.793191 0.583201 0.025027
C14   C     C_R   0.447788 0.206625 0.583374 0.031496
C15   C     C_R   0.552403 0.793367 0.416980 0.026791
C16   C     C_R   0.551916 0.206730 0.416395 0.040377
C17   C     C_R   0.553673 0.896416 0.414963 -0.021879
C18   C     C_R   0.553364 0.103662 0.414603 -0.021127
C19   C     C_R   0.671487 0.500260 0.498299 0.610635
C20   C     C_R   0.500177 0.948138 0.500248 0.052897
C21   C     C_R   0.500100 0.051793 0.500161 0.052411
C22   C     C_R   0.446670 0.896261 0.585530 -0.016345
C23   C     C_R   0.815125 0.437566 0.414900 0.157980
C24   C     C_R   0.446664 0.103529 0.585524 -0.016164
C25   C     C_R   0.606868 0.948745 0.330043 -0.147093
C26   C     C_R   0.606605 0.051457 0.329732 -0.141022
C27   C     C_R   0.393641 0.051163 0.670640 -0.144995
C28   C     C_R   0.393615 0.948464 0.670601 -0.144280
C29   C     C_R   0.502699 0.500140 0.740149 0.555386
C30   C     C_3   0.530689 0.603881 0.069404 0.114030
C31   C     C_3   0.407277 0.478969 0.073220 0.126779
C32   C     C_3   0.537998 0.600977 0.926584 -0.217097
C33   C     C_3   0.407681 0.481999 0.927136 -0.235395
C34   C     C_R   0.768583 0.501514 0.494966 0.008830
C35   C     C_3   0.565421 0.418565 0.070561 -0.247374
C36   C     C_3   0.503268 0.500199 0.122287 0.044493
C37   C     C_3   0.503515 0.500790 0.877770 -0.018544
C38   C     C_3   0.682463 0.603729 0.133927 0.006702
C39   C     C_3   0.757074 0.675534 0.160359 -0.374155
C40   C     C_3   0.360619 0.309835 0.067203 -0.004657
C41   C     C_3   0.349157 0.225436 0.158093 -0.360235
C42   C     C_3   0.763226 0.723950 0.596773 0.000965
C43   C     C_3   0.702325 0.787567 0.675869 -0.355863
C44   C     C_R   0.814527 0.568133 0.571564 0.201955
C45   C     C_R   0.907600 0.564863 0.576257 0.006800
C46   C     C_R   0.954384 0.500541 0.496581 -0.020041
C47   C     C_R   0.908407 0.437014 0.415331 0.023175
C48   C     C_R   0.954867 0.624000 0.660215 -0.118014
Cl1   Cl    Cl    0.756344 0.361665 0.309718 -0.724857
Cu1   Cu    Cu3+1 0.499990 0.597420 0.500010 0.944066
Cu2   Cu    Cu3+1 0.499990 0.402580 0.500010 0.974642
H1    H     H_    0.081951 0.671627 0.724318 0.105139
H2    H     H_    0.648537 0.910252 0.263755 0.116958
H3    H     H_    0.648089 0.090046 0.263201 0.130160
H4    H     H_    0.352152 0.089606 0.737182 0.098924
H5    H     H_    0.352068 0.909893 0.737064 0.100615
H6    H     H_    0.472727 0.652163 0.088562 0.133099
H7    H     H_    0.365285 0.541906 0.102453 0.113606
H8    H     H_    0.497863 0.662018 0.887729 0.109112
H9    H     H_    0.364255 0.542982 0.895889 0.079076
H10   H     H_    0.607336 0.613389 0.894430 0.159221
H11   H     H_    0.379924 0.416173 0.881907 0.114580
H12   H     H_    0.222641 0.612724 0.638754 0.105402
H13   H     H_    0.633845 0.423731 0.105972 0.146346
H14   H     H_    0.542922 0.345803 0.103705 0.156059
H15   H     H_    0.635310 0.433522 0.893113 0.133635
H16   H     H_    0.546132 0.347114 0.891827 0.137235
H17   H     H_    0.920903 0.670720 0.726327 0.147707
H18   H     H_    0.699026 0.565512 0.045646 0.136151
H19   H     H_    0.680077 0.551735 0.213156 0.172831
H20   H     H_    0.744199 0.714281 0.249518 0.131137
H21   H     H_    0.821018 0.635666 0.167682 0.115521
H22   H     H_    0.762128 0.729880 0.083788 0.154740
H23   H     H_    0.224592 0.385638 0.362131 0.142106
H24   H     H_    0.420425 0.294524 0.009994 0.118147
H25   H     H_    0.301097 0.312407 0.006587 0.130806
H26   H     H_    0.288563 0.236509 0.215806 0.151984
H27   H     H_    0.342724 0.155737 0.106024 0.089823
H28   H     H_    0.407756 0.220783 0.220127 0.167488
H29   H     H_    0.736561 0.721687 0.500310 0.136952
H30   H     H_    0.829724 0.759089 0.593163 0.114757
H31   H     H_    0.730273 0.795990 0.770762 0.144328
H32   H     H_    0.695573 0.860856 0.632552 0.102714
H33   H     H_    0.635645 0.753410 0.683502 0.185668
H34   H     H_    0.085217 0.323273 0.278926 0.109462
H35   H     H_    0.924903 0.323802 0.273966 0.182432
H36   H     H_    0.406759 0.752166 0.647952 0.115905
H37   H     H_    0.407045 0.247509 0.648321 0.114940
H38   H     H_    0.593450 0.752495 0.352587 0.159261
H39   H     H_    0.592052 0.247644 0.350794 0.175331
N1    N     N_R   0.499930 0.743810 0.499950 -0.249309
N2    N     N_R   0.499930 0.256190 0.499950 -0.244525
O1    O     O_R   0.370250 0.582280 0.500040 -0.506227
O2    O     O_3   0.366911 0.397651 0.135538 -0.551326
O3    O     O_3   0.767550 0.629632 0.650557 -0.560937
O4    O     O_R   0.370250 0.417720 0.500040 -0.502146
O5    O     O_R   0.499970 0.582270 0.317700 -0.492264
O6    O     O_R   0.499970 0.417730 0.317700 -0.475563
O7    O     O_R   0.629730 0.582260 0.499980 -0.499032
O8    O     O_R   0.629730 0.417740 0.499980 -0.457736
O9    O     O_R   0.500000 0.582270 0.682320 -0.517919
O10   O     O_R   0.500000 0.417730 0.682320 -0.516974
O11   O     O_3   0.601691 0.655374 0.127517 -0.569151

loop_
_geom_bond_atom_site_label_1
_geom_bond_atom_site_label_2
_ccdc_geom_bond_type
C4    C36   S    
C42   H29   S    
C4    O6    A    
C18   C21   A    
C43   H32   S    
C35   C36   S    
C18   C26   A    
C24   C27   A    
C38   H19   S    
C28   H5    S    
C7    C8    A    
C7    H34   S    
C45   C46   A    
Cu2   O10   S    
C16   H39   S    
Cu1   O7    S    
C31   H7    S    
C25   H2    S    
C32   H10   S    
C41   H26   S    
C38   C39   S    
C27   H4    S    
C23   Cl1   S    
C35   H14   S    
C30   H6    S    
C17   C20   A    
C14   C24   A    
C12   C37   S    
C33   H11   S    
C30   O11   S    
C29   O10   A    
C39   H21   S    
C31   C33   S    
C35   H13   S    
C9    C10   A    
Cu2   O4    S    
Cu2   O6    S    
C38   H18   S    
C22   C28   A    
C4    O5    A    
C13   N1    A    
C43   H33   S    
C42   H30   S    
C26   H3    S    
C12   H16   S    
C23   C47   A    
C42   O3    S    
C34   C44   A    
C6    C11   A    
C19   O7    A    
C2    C48   A    
C25   C26   A    
C12   H15   S    
C11   H23   S    
C33   C37   S    
C40   H25   S    
C38   O11   S    
C3    C9    A    
Cu2   N2    S    
C15   H38   S    
C23   C34   A    
C13   H36   S    
Cu1   Cu2   S    
C29   O9    A    
C32   C37   S    
C48   H17   S    
C12   C35   S    
C14   N2    A    
C2    H1    S    
C1    O1    A    
C40   C41   S    
C20   C22   A    
C16   N2    A    
C33   H9    S    
C42   C43   S    
C41   H27   S    
C44   C45   A    
C45   C48   A    
Cu2   O8    S    
C15   C17   A    
C46   C47   A    
Cu1   O5    S    
C9    H12   S    
C1    C10   S    
C40   O2    S    
C3    C5    A    
C19   C34   S    
C41   H28   S    
C19   O8    A    
Cu1   O1    S    
C6    C7    A    
C31   O2    S    
C5    C46   A    
C40   H24   S    
C30   C36   S    
C17   C25   A    
C2    C3    A    
C8    C47   A    
C14   H37   S    
C44   O3    S    
C30   C32   S    
C5    C6    A    
C1    O4    A    
C13   C22   A    
C8    H35   S    
C39   H22   S    
C10   C11   A    
C15   N1    A    
Cu1   N1    S    
C20   C21   A    
Cu1   O9    S    
C16   C18   A    
C21   C24   A    
C29   C37   S    
C27   C28   A    
C43   H31   S    
C39   H20   S    
C31   C36   S    
C32   H8    S    
