data_mof_unit_52178.cif
_audit_creation_date              2013-03-05T15:47:25-0500
_audit_creation_method            fapswitch 2.2
_symmetry_space_group_name_H-M    P1
_symmetry_Int_Tables_number       1
_space_group_crystal_system       triclinic
_cell_length_a                    18.300498
_cell_length_b                    18.346945
_cell_length_c                    11.740017
_cell_angle_alpha                 89.703789
_cell_angle_beta                  74.812161
_cell_angle_gamma                 90.021188
_cell_volume                      3804.07145814

loop_
_atom_site_label
_atom_site_type_symbol
_atom_site_description
_atom_site_fract_x
_atom_site_fract_y
_atom_site_fract_z
_atom_type_partial_charge
O1    O     O_R   0.430030 0.075530 0.417420 -0.589159
O2    O     O_R   0.569970 0.924470 0.582580 -0.595512
O3    O     O_R   0.569970 0.075530 0.582580 -0.588016
O4    O     O_R   0.430030 0.924470 0.417420 -0.594250
O5    O     O_R   0.930030 0.575530 0.417420 -0.587626
O6    O     O_R   0.069970 0.424470 0.582580 -0.592996
O7    O     O_R   0.069970 0.575530 0.582580 -0.587075
O8    O     O_R   0.930030 0.424470 0.417420 -0.595481
O9    O     O_R   0.416860 0.075510 0.614610 -0.522773
O10   O     O_R   0.583140 0.924490 0.385390 -0.497974
O11   O     O_R   0.583140 0.075510 0.385390 -0.522587
O12   O     O_R   0.416860 0.924490 0.614610 -0.497990
O13   O     O_R   0.916860 0.575510 0.614610 -0.527216
O14   O     O_R   0.083140 0.424490 0.385390 -0.517554
O15   O     O_R   0.083140 0.575510 0.385390 -0.506034
O16   O     O_R   0.916860 0.424490 0.614610 -0.497998
C1    C     C_R   0.400863 0.101639 0.521551 0.879799
C2    C     C_R   0.598292 0.897625 0.478818 0.894298
C3    C     C_R   0.599350 0.101504 0.478099 0.877949
C4    C     C_R   0.401435 0.897783 0.521617 0.892459
C5    C     C_R   0.900868 0.601597 0.521521 0.890816
C6    C     C_R   0.098905 0.398171 0.478579 0.884385
C7    C     C_R   0.098929 0.601858 0.478232 0.868291
C8    C     C_R   0.901252 0.397949 0.521654 0.881522
C9    C     C_R   0.408904 0.002970 0.873456 0.496364
C10   C     C_R   0.591102 0.004085 0.126509 0.495633
C11   C     C_R   0.910939 0.514991 0.871224 0.502833
C12   C     C_R   0.089201 0.485696 0.128828 0.504836
Cu1   Cu    Cu3+1 0.507800 0.000000 0.383250 1.104461
Cu2   Cu    Cu3+1 0.492200 0.000000 0.616750 1.104713
Cu3   Cu    Cu3+1 0.007800 0.500000 0.383250 1.097329
Cu4   Cu    Cu3+1 0.992200 0.500000 0.616750 1.101691
C13   C     C_R   0.401751 0.020535 0.993990 0.307496
C14   C     C_R   0.598035 0.021787 0.005745 0.304396
C15   C     C_R   0.907634 0.534833 0.989320 0.301439
C16   C     C_R   0.092577 0.465397 0.010804 0.288700
C17   C     C_R   0.542567 0.008240 0.835358 0.075064
C18   C     C_R   0.457352 0.007644 0.164578 0.074932
C19   C     C_R   0.040737 0.485523 0.837277 0.075222
C20   C     C_R   0.959205 0.514106 0.162752 0.074164
C21   C     C_R   0.652548 0.161855 0.466208 -0.139604
C22   C     C_R   0.349777 0.836068 0.532241 -0.115222
C23   C     C_R   0.347820 0.162038 0.533166 -0.138821
C24   C     C_R   0.649558 0.835707 0.468838 -0.113687
C25   C     C_R   0.151280 0.662916 0.466936 -0.138213
C26   C     C_R   0.849239 0.336545 0.532533 -0.125055
C27   C     C_R   0.848163 0.662186 0.532793 -0.129028
C28   C     C_R   0.151362 0.337301 0.467521 -0.130601
C29   C     C_R   0.301097 0.717492 0.608205 -0.194513
C30   C     C_R   0.707578 0.275815 0.378873 -0.185589
C31   C     C_R   0.701546 0.719961 0.386806 -0.177884
C32   C     C_R   0.288621 0.272304 0.626817 -0.165228
C33   C     C_R   0.795793 0.221406 0.617470 -0.172235
C34   C     C_R   0.200771 0.780860 0.389273 -0.189644
C35   C     C_R   0.209709 0.226397 0.375061 -0.167270
C36   C     C_R   0.794394 0.776520 0.617967 -0.185696
C37   C     C_R   0.352170 0.774689 0.605262 0.364253
C38   C     C_R   0.656393 0.218691 0.382863 0.338865
C39   C     C_R   0.649105 0.776150 0.392251 0.358928
C40   C     C_R   0.340974 0.216123 0.620977 0.331723
C41   C     C_R   0.847845 0.277986 0.612291 0.345638
C42   C     C_R   0.149782 0.723576 0.392359 0.357735
C43   C     C_R   0.157337 0.282594 0.380827 0.344376
C44   C     C_R   0.845604 0.719477 0.614161 0.347894
C45   C     C_R   0.299290 0.837463 0.460931 -0.230202
C46   C     C_R   0.699064 0.163258 0.543705 -0.193615
C47   C     C_R   0.698181 0.835262 0.543163 -0.228124
C48   C     C_R   0.303803 0.165868 0.452186 -0.193769
C49   C     C_R   0.802158 0.335391 0.455825 -0.224955
C50   C     C_R   0.201793 0.661442 0.538074 -0.241977
C51   C     C_R   0.195265 0.333353 0.548703 -0.201594
C52   C     C_R   0.800438 0.663108 0.457202 -0.196716
C53   C     C_R   0.250494 0.779352 0.461676 0.101848
C54   C     C_R   0.749034 0.220663 0.540431 0.099001
C55   C     C_R   0.747466 0.777489 0.541169 0.096684
C56   C     C_R   0.253225 0.222774 0.456664 0.091757
C57   C     C_R   0.753004 0.277463 0.457918 0.096311
C58   C     C_R   0.251007 0.719302 0.536518 0.103532
C59   C     C_R   0.245519 0.276232 0.544648 0.094739
C60   C     C_R   0.750095 0.720180 0.460955 0.099792
N1    N     N_R   0.519530 0.000000 0.207810 -0.262962
N2    N     N_R   0.480470 0.000000 0.792190 -0.263211
N3    N     N_R   0.019530 0.500000 0.207810 -0.263188
N4    N     N_R   0.980470 0.500000 0.792190 -0.266192
H1    H     H_    0.402126 0.007724 0.226800 0.184219
H2    H     H_    0.597799 0.008873 0.773156 0.184020
H3    H     H_    0.905583 0.526849 0.223822 0.190493
H4    H     H_    0.094296 0.472631 0.776182 0.190510
H5    H     H_    0.696465 0.119199 0.606694 0.193694
H6    H     H_    0.298175 0.884160 0.404240 0.171472
H7    H     H_    0.308699 0.124052 0.385603 0.198499
H8    H     H_    0.697525 0.880233 0.603150 0.172071
H9    H     H_    0.202570 0.614916 0.595254 0.172084
H10   H     H_    0.804035 0.379836 0.393728 0.173237
H11   H     H_    0.802213 0.618818 0.395589 0.187227
H12   H     H_    0.190484 0.375189 0.615260 0.193609
H13   H     H_    0.793936 0.176397 0.678396 0.207083
H14   H     H_    0.199852 0.827827 0.333233 0.195267
H15   H     H_    0.214630 0.184114 0.309301 0.208295
H16   H     H_    0.792607 0.821127 0.678860 0.193979
H17   H     H_    0.302210 0.670251 0.663585 0.195831
H18   H     H_    0.710338 0.320029 0.316231 0.191622
H19   H     H_    0.702422 0.674435 0.327952 0.209489
H20   H     H_    0.283300 0.314204 0.693284 0.210392
C61   C     C_R   0.535684 0.012110 0.959671 -0.164061
C62   C     C_R   0.464188 0.011655 0.040220 -0.163409
C63   C     C_R   0.033478 0.486497 0.961622 -0.161419
C64   C     C_R   0.966534 0.513180 0.038434 -0.167960
S1    S     S_3+6 0.674922 0.966593 0.155401 0.093222
O17   O     O_2   0.695683 0.004255 0.255697 -0.282681
O18   O     O_2   0.661234 0.887105 0.182895 -0.266577
O19   O     O_3   0.750756 0.970462 0.038169 -0.433716
H21   H     H_    0.791826 0.945730 0.064032 0.393316
S2    S     S_3+6 0.325662 0.964160 0.844982 0.094822
O20   O     O_2   0.304131 0.002151 0.745035 -0.282456
O21   O     O_2   0.340604 0.885019 0.817138 -0.262991
O22   O     O_3   0.250065 0.966247 0.962687 -0.432222
H22   H     H_    0.209094 0.941464 0.936845 0.393138
S3    S     S_3+6 0.174410 0.524794 0.149740 0.110028
O23   O     O_2   0.238702 0.519127 0.040312 -0.180140
O24   O     O_2   0.160671 0.604573 0.173901 -0.257435
O25   O     O_3   0.202686 0.485731 0.260568 -0.515231
H23   H     H_    0.240102 0.520018 0.278051 0.361821
S4    S     S_3+6 0.824977 0.478218 0.849660 0.097013
O26   O     O_2   0.801931 0.514405 0.749657 -0.280948
O27   O     O_2   0.836446 0.398237 0.825515 -0.255082
O28   O     O_3   0.752287 0.485408 0.970968 -0.439649
H24   H     H_    0.709458 0.460036 0.951175 0.394458
N5    N     N_R   0.606496 0.221497 0.306673 0.144751
O29   O     O_R   0.631456 0.245190 0.198770 -0.269134
O30   O     O_R   0.533942 0.212802 0.350179 -0.327186
N6    N     N_R   0.407757 0.767200 0.671549 0.161871
O31   O     O_R   0.392061 0.729315 0.769016 -0.267264
O32   O     O_R   0.477237 0.788247 0.626842 -0.340458
N7    N     N_R   0.389036 0.217287 0.700066 0.147989
O33   O     O_R   0.361748 0.237360 0.809086 -0.286249
O34   O     O_R   0.462049 0.211401 0.658749 -0.319345
N8    N     N_R   0.593894 0.769184 0.325213 0.163954
O35   O     O_R   0.610340 0.732930 0.226763 -0.289760
O36   O     O_R   0.524021 0.788614 0.370259 -0.336569
N9    N     N_R   0.094773 0.730209 0.325037 0.161589
O37   O     O_R   0.112161 0.764590 0.224256 -0.267983
O38   O     O_R   0.024304 0.713210 0.372245 -0.327475
N10   N     N_R   0.901527 0.272295 0.682108 0.163143
O39   O     O_R   0.882323 0.240075 0.784693 -0.285998
O40   O     O_R   0.972636 0.287094 0.635450 -0.328196
N11   N     N_R   0.896582 0.722785 0.688645 0.144466
O41   O     O_R   0.873495 0.749357 0.794553 -0.274916
O42   O     O_R   0.968679 0.711916 0.644479 -0.330937
N12   N     N_R   0.108118 0.280528 0.303447 0.148411
O43   O     O_R   0.133235 0.255975 0.196540 -0.289353
O44   O     O_R   0.035513 0.289154 0.345932 -0.331983
S5    S     S_3+6 0.324000 0.072960 0.076536 0.061070
O45   O     O_2   0.271473 0.025126 0.166109 -0.275549
O46   O     O_2   0.353423 0.132628 0.139968 -0.290919
O47   O     O_3   0.276699 0.111480 0.986715 -0.419827
H25   H     H_    0.236536 0.141027 0.039297 0.402774
S6    S     S_3+6 0.675304 0.075071 0.922258 0.062127
O48   O     O_2   0.728569 0.027592 0.834159 -0.277933
O49   O     O_2   0.645533 0.133924 0.856951 -0.283442
O50   O     O_3   0.721784 0.114852 0.011615 -0.421063
H26   H     H_    0.763025 0.143157 0.958174 0.404242
S7    S     S_3+6 0.836218 0.595081 0.068491 0.062240
O51   O     O_2   0.780569 0.553755 0.163943 -0.287368
O52   O     O_2   0.872428 0.653720 0.124331 -0.265268
O53   O     O_3   0.790663 0.634302 0.976939 -0.423998
H27   H     H_    0.752555 0.666629 0.027882 0.404718
S8    S     S_3+6 0.165606 0.407004 0.930846 0.055475
O54   O     O_2   0.131086 0.347782 0.873606 -0.275986
O55   O     O_2   0.220403 0.449988 0.836624 -0.291500
O56   O     O_3   0.211938 0.368560 0.021995 -0.421293
H28   H     H_    0.249630 0.335803 0.971198 0.406367

loop_
_geom_bond_atom_site_label_1
_geom_bond_atom_site_label_2
_geom_bond_distance
_ccdc_geom_bond_type
C37   N6    1.439833 S    
C6    C28   1.456922 S    
O56   H28   0.990511 S    
Cu2   N2    2.014114 S    
C7    C25   1.456520 S    
O2    C2    1.292565 A    
C49   C57   1.388082 A    
O13   Cu4   1.959613 S    
O6    Cu4   1.953166 S    
S7    O51   1.503480 D    
C56   C59   1.408198 A    
O14   Cu3   1.959613 S    
C51   C59   1.387319 A    
O50   H26   0.990543 S    
C45   C53   1.389007 A    
N7    O33   1.301253 A    
C19   C63   1.430977 A    
O11   C3    1.294039 A    
C20   H3    1.079307 S    
C11   N4    1.392827 A    
S7    O52   1.503572 D    
C19   N4    1.368136 A    
S1    O18   1.498758 D    
C29   H17   1.084192 S    
C13   S5    1.782419 S    
C50   C58   1.388837 A    
C24   C39   1.420043 A    
C31   H19   1.084218 S    
C46   C54   1.388322 A    
C25   C42   1.417188 A    
C16   S8    1.780229 S    
C48   H7    1.084986 S    
Cu3   N3    2.014112 S    
C29   C58   1.397727 A    
N5    O30   1.301155 A    
C31   C60   1.397299 A    
C26   C49   1.400188 A    
C15   C64   1.405630 A    
C32   C40   1.397179 A    
S6    O50   1.682773 S    
C52   H11   1.085518 S    
C33   C41   1.398917 A    
C10   C14   1.425697 A    
S8    O56   1.682120 S    
C32   H20   1.084352 S    
N11   O41   1.301260 A    
C23   C48   1.399392 A    
C54   C57   1.407934 A    
C35   C43   1.397748 A    
C22   C45   1.400087 A    
C63   C64   1.407077 A    
C36   C44   1.398162 A    
O3    C3    1.291883 A    
S5    O46   1.503675 D    
C32   C59   1.398550 A    
C55   C60   1.407550 A    
O4    Cu1   1.949472 S    
C20   C64   1.430417 A    
O15   C7    1.294437 A    
O16   C8    1.295515 A    
C36   C55   1.398680 A    
C16   C63   1.406485 A    
S6    O49   1.503774 D    
C14   C61   1.396550 A    
C20   N3    1.367607 A    
O12   C4    1.295590 A    
C19   H4    1.079200 S    
C22   C37   1.419399 A    
O19   H21   0.990649 S    
S2    O20   1.500627 D    
C46   H5    1.085301 S    
S3    O24   1.501100 D    
C45   H6    1.085647 S    
Cu4   N4    2.014114 S    
N11   O42   1.300866 A    
C26   C41   1.417310 A    
C30   C38   1.397778 A    
C17   H2    1.080837 S    
S7    O53   1.682273 S    
N10   O40   1.300750 A    
C49   H10   1.085495 S    
S1    O19   1.680287 S    
C27   C44   1.416530 A    
N6    O31   1.301684 A    
C28   C43   1.416897 A    
C51   H12   1.085256 S    
C34   C42   1.399215 A    
C39   N8    1.440215 S    
C11   C15   1.421163 A    
C15   S7    1.780179 S    
O5    C5    1.292933 A    
S6    O48   1.503465 D    
C18   C62   1.433786 A    
O3    Cu2   1.949471 S    
C1    C23   1.456657 S    
C43   N12   1.437741 S    
C17   C61   1.433742 A    
Cu1   Cu2   2.680696 S    
C2    C24   1.459102 S    
C34   C53   1.398699 A    
C41   N10   1.438395 S    
C4    C22   1.458539 S    
Cu3   Cu4   2.680696 S    
C10   S1    1.792270 S    
C18   H1    1.080836 S    
C53   C58   1.407204 A    
C50   H9    1.085619 S    
O1    Cu1   1.953164 S    
O13   C5    1.292804 A    
C48   C56   1.387577 A    
S5    O47   1.682786 S    
C40   N7    1.436778 S    
O11   Cu1   1.959074 S    
N8    O36   1.299933 A    
C23   C40   1.416359 A    
S4    O28   1.680660 S    
C35   C56   1.398405 A    
O9    Cu2   1.959613 S    
O9    C1    1.292815 A    
S8    O54   1.503568 D    
Cu1   N1    2.014112 S    
C30   H18   1.084330 S    
C10   N1    1.405826 A    
N9    O37   1.301508 A    
C18   N1    1.368966 A    
O53   H27   0.990576 S    
N12   O44   1.301157 A    
C17   N2    1.368784 A    
C47   C55   1.388334 A    
C36   H16   1.084316 S    
C42   N9    1.438363 S    
O28   H24   0.990599 S    
C30   C57   1.399165 A    
C14   S6    1.782916 S    
S4    O27   1.500351 D    
N5    O29   1.301272 A    
S3    O25   1.678616 S    
N7    O34   1.301293 A    
O47   H25   0.990558 S    
O7    Cu4   1.949471 S    
O12   Cu2   1.959077 S    
C25   C50   1.398951 A    
O8    Cu3   1.949472 S    
C13   C62   1.396728 A    
N10   O39   1.301579 A    
C12   S3    1.791107 S    
C21   C38   1.415289 A    
C29   C37   1.399291 A    
S2    O21   1.499433 D    
C11   S4    1.789900 S    
O15   Cu3   1.959074 S    
C21   C46   1.399675 A    
O16   Cu4   1.959077 S    
C61   C62   1.399236 A    
O1    C1    1.293525 A    
O2    Cu2   1.953166 S    
C8    C26   1.457921 S    
O14   C6    1.293589 A    
N9    O38   1.300369 A    
S5    O45   1.503417 D    
C52   C60   1.388195 A    
S1    O17   1.500286 D    
O10   Cu1   1.959613 S    
C9    N2    1.405130 A    
O10   C2    1.294910 A    
O7    C7    1.291689 A    
S8    O55   1.503436 D    
C47   H8    1.085567 S    
O8    C8    1.291341 A    
C33   H13   1.084347 S    
C9    S2    1.791063 S    
C5    C27   1.455667 S    
C27   C52   1.398801 A    
S2    O22   1.680434 S    
N8    O35   1.301803 A    
O4    C4    1.291578 A    
C31   C39   1.398977 A    
C28   C51   1.399890 A    
C12   C16   1.422283 A    
N6    O32   1.299695 A    
S3    O23   1.501675 D    
C35   H15   1.084327 S    
N12   O43   1.301218 A    
C34   H14   1.084246 S    
C24   C47   1.400006 A    
C38   N5    1.436689 S    
O5    Cu3   1.953164 S    
O25   H23   0.990633 S    
O22   H22   0.990635 S    
C44   N11   1.437573 S    
C3    C21   1.455917 S    
C9    C13   1.425161 A    
S4    O26   1.499544 D    
C12   N3    1.391989 A    
C33   C54   1.398607 A    
O6    C6    1.292862 A    
