data_mof_unit_52175.cif
_audit_creation_date              2013-03-05T15:58:18-0500
_audit_creation_method            fapswitch 2.2
_symmetry_space_group_name_H-M    P1
_symmetry_Int_Tables_number       1
_space_group_crystal_system       triclinic
_cell_length_a                    12.734435
_cell_length_b                    13.140422
_cell_length_c                    15.251876
_cell_angle_alpha                 86.438322
_cell_angle_beta                  99.164886
_cell_angle_gamma                 97.459875
_cell_volume                      2496.03862154

loop_
_atom_site_label
_atom_site_type_symbol
_atom_site_description
_atom_site_fract_x
_atom_site_fract_y
_atom_site_fract_z
_atom_type_partial_charge
O1    O     O_R   0.374950 0.371210 0.521360 -0.611823
O2    O     O_R   0.542050 0.338030 0.492790 -0.624854
C1    C     C_R   0.446329 0.308729 0.515618 0.846921
O3    O     O_R   0.368720 0.526070 0.390200 -0.612740
O4    O     O_R   0.535820 0.492890 0.361630 -0.616200
C2    C     C_R   0.437156 0.515857 0.335672 0.858484
Zn1   Zn    Zn3+2 0.388420 0.522150 0.519080 0.958177
Zn2   Zn    Zn3+2 0.611580 0.477850 0.480920 0.935154
O5    O     O_R   0.457950 0.661970 0.507210 -0.623725
O6    O     O_R   0.625050 0.628790 0.478640 -0.624207
O7    O     O_R   0.464180 0.507110 0.638370 -0.596284
O8    O     O_R   0.631280 0.473930 0.609800 -0.628351
C3    C     C_R   0.555786 0.691741 0.489375 0.890170
C4    C     C_R   0.563773 0.486858 0.664492 0.896205
C5    C     C_R   0.408838 0.545421 0.241506 -0.067674
C6    C     C_R   0.606490 0.495300 0.759132 -0.131818
C7    C     C_R   0.290990 0.616224 0.118792 -0.138080
C8    C     C_R   0.310026 0.579632 0.207112 -0.183700
C9    C     C_R   0.488025 0.549618 0.187472 -0.228663
C10   C     C_R   0.472359 0.589937 0.100354 0.086414
C11   C     C_R   0.371051 0.620012 0.064700 0.093809
C12   C     C_R   0.552349 0.592097 0.045894 0.035861
C13   C     C_R   0.522789 0.603007 0.953240 -0.026085
C14   C     C_R   0.427023 0.647311 0.919317 0.278190
C15   C     C_R   0.351568 0.653706 0.975747 -0.267532
C16   C     C_R   0.659906 0.579981 0.080413 -0.206424
C17   C     C_R   0.730158 0.558780 0.024979 -0.149013
C18   C     C_R   0.692219 0.540286 0.935423 0.030723
C19   C     C_R   0.587049 0.562354 0.899445 0.086597
C20   C     C_R   0.755219 0.498727 0.881104 0.318240
C21   C     C_R   0.712005 0.478444 0.792815 -0.243595
C22   C     C_R   0.543986 0.532365 0.813871 -0.166497
H1    H     H_    0.277213 0.684458 0.950067 0.203846
H2    H     H_    0.460247 0.536561 0.789394 0.191340
H3    H     H_    0.760755 0.448512 0.750720 0.192319
H4    H     H_    0.811938 0.550981 0.054266 0.193925
H5    H     H_    0.213725 0.640952 0.092679 0.155972
H6    H     H_    0.248022 0.578634 0.248306 0.162664
H7    H     H_    0.561490 0.518358 0.213514 0.163819
H8    H     H_    0.691342 0.587507 0.150136 0.148200
C23   C     C_R   0.729507 0.946186 0.513007 0.017554
H9    H     H_    0.757094 0.795472 0.481215 0.158200
H10   H     H_    0.767329 0.136872 0.579300 0.168607
C24   C     C_R   0.590805 0.801729 0.491051 -0.069992
C25   C     C_R   0.308831 0.160439 0.532201 -0.175539
C26   C     C_R   0.278659 0.055225 0.537834 -0.127206
C27   C     C_R   0.355090 0.988264 0.539664 -0.166104
C28   C     C_R   0.464651 0.026504 0.539822 0.102298
C29   C     C_R   0.496520 0.131767 0.551564 0.081533
C30   C     C_R   0.543313 0.964880 0.526147 0.078189
C31   C     C_R   0.653313 0.005947 0.534688 0.111165
C32   C     C_R   0.683863 0.105210 0.565061 -0.227572
C33   C     C_R   0.606447 0.166262 0.575814 -0.183233
C34   C     C_R   0.514138 0.865016 0.499237 -0.234973
C35   C     C_R   0.698122 0.843135 0.493442 -0.219683
C36   C     C_R   0.417477 0.199453 0.536224 -0.120341
H11   H     H_    0.431051 0.834012 0.485187 0.153653
H12   H     H_    0.246888 0.211033 0.523132 0.164519
H13   H     H_    0.326265 0.907409 0.542180 0.131681
H14   H     H_    0.195096 0.025361 0.536577 0.163283
H15   H     H_    0.633917 0.241170 0.602278 0.180505
C37   C     C_R   0.150813 0.684974 0.580784 -0.248673
H16   H     H_    0.319712 0.684516 0.607966 0.180351
H17   H     H_    0.157014 0.758440 0.610793 0.174140
N1    N     N_R   0.239390 0.551900 0.544730 -0.119418
C38   C     C_R   0.756093 0.367202 0.404362 0.014573
C39   C     C_R   0.849254 0.339441 0.382040 -0.231806
C40   C     C_R   0.946799 0.395153 0.413358 -0.170170
C41   C     C_R   0.952090 0.479481 0.467910 0.011645
C42   C     C_R   0.855103 0.507350 0.488587 0.166908
C43   C     C_R   0.050832 0.534851 0.504411 -0.020806
C44   C     C_R   0.052872 0.629983 0.544533 0.106255
C45   C     C_R   0.957787 0.664908 0.554743 -0.100555
C46   C     C_R   0.862531 0.597252 0.540588 -0.118311
C47   C     C_R   0.149031 0.497941 0.505285 -0.036922
C48   C     C_R   0.243438 0.642982 0.581474 0.073737
N2    N     N_R   0.759950 0.448600 0.455730 -0.130829
H18   H     H_    0.156932 0.427368 0.475953 0.120483
H19   H     H_    0.679738 0.324307 0.380043 0.147256
H20   H     H_    0.016604 0.372295 0.391837 0.140431
H21   H     H_    0.845912 0.275168 0.340163 0.163477
N3    N     N_R   0.861437 0.474354 0.914398 0.196582
O9    O     O_R   0.936709 0.495144 0.865152 -0.374642
O10   O     O_R   0.877831 0.414180 0.984980 -0.396496
C49   C     C_1   0.838581 0.989811 0.507471 0.164007
N4    N     N_1   0.925634 0.025300 0.502559 -0.206563
C50   C     C_1   0.961087 0.763286 0.596022 0.167918
N5    N     N_1   0.964510 0.840111 0.630134 -0.168819
C51   C     C_1   0.790800 0.619205 0.598776 0.319708
N6    N     N_1   0.741736 0.647400 0.648225 -0.184866
N7    N     N_R   0.410541 0.695746 0.831724 0.195359
O11   O     O_R   0.491541 0.743560 0.797438 -0.384206
O12   O     O_R   0.313940 0.704240 0.791090 -0.416058

loop_
_geom_bond_atom_site_label_1
_geom_bond_atom_site_label_2
_geom_bond_distance
_ccdc_geom_bond_type
C40   H20   1.078267 S    
C5    C8    1.402828 A    
C50   N5    1.156850 T    
C45   C46   1.403141 A    
C9    C10   1.393387 A    
C49   N4    1.157538 T    
C6    C21   1.400608 A    
C5    C9    1.394173 A    
C38   H19   1.081430 S    
C16   C17   1.388430 A    
C30   C34   1.385720 A    
N1    C48   1.344355 A    
C13   C19   1.417762 A    
C46   C51   1.436556 S    
C18   C19   1.423318 A    
C19   C22   1.392570 A    
C20   C21   1.399129 A    
O7    C4    1.323455 A    
H10   C32   1.082987 S    
Zn1   N1    2.087037 S    
H16   C48   1.081341 S    
C41   C43   1.417813 A    
O5    C3    1.321912 A    
C23   C35   1.397899 A    
C37   H17   1.082248 S    
C2    C5    1.464835 S    
C33   H15   1.081279 S    
C45   C50   1.465554 S    
C25   C36   1.404805 A    
C40   C41   1.414920 A    
C42   C46   1.448129 A    
C13   C14   1.428209 A    
C28   C30   1.414501 A    
C38   C39   1.383077 A    
C42   N2    1.388210 A    
C37   C48   1.363893 A    
O3    Zn1   1.939872 S    
C30   C31   1.422924 A    
C25   H12   1.083200 S    
C31   C32   1.397570 A    
C14   C15   1.401594 A    
O3    C2    1.320707 A    
N7    O11   1.301880 A    
C25   C26   1.387189 A    
C7    C11   1.404366 A    
C39   C40   1.387600 A    
O1    C1    1.317600 A    
C22   H2    1.079555 S    
C20   N3    1.436489 S    
Zn1   O7    1.930211 S    
H9    C35   1.082713 S    
N7    O12   1.301547 A    
C1    C36   1.462663 S    
C27   C28   1.419902 A    
Zn2   O8    1.939872 S    
C7    C8    1.396523 A    
C37   C44   1.406890 A    
C7    H5    1.083705 S    
C9    H7    1.078355 S    
C28   C29   1.404238 A    
C10   C12   1.409762 A    
C39   H21   1.082630 S    
N3    O10   1.301239 A    
Zn2   N2    2.074453 S    
C21   H3    1.083530 S    
C14   N7    1.440022 S    
C32   C33   1.384049 A    
Zn1   O5    1.944149 S    
C38   N2    1.355902 A    
C11   C15   1.394594 A    
C26   C27   1.390322 A    
C26   H14   1.082925 S    
O1    Zn1   1.967119 S    
O2    Zn2   1.944150 S    
O8    C4    1.321990 A    
C44   C45   1.383581 A    
O6    C3    1.319597 A    
O4    Zn2   1.930211 S    
C17   H4    1.080938 S    
C6    C22   1.389470 A    
C29   C36   1.410879 A    
C23   C49   1.445561 S    
N1    C47   1.345113 A    
C18   C20   1.417725 A    
O2    C1    1.323625 A    
C8    H6    1.082910 S    
C43   C44   1.421052 A    
C43   C47   1.396623 A    
C24   C35   1.399479 A    
C16   H8    1.080763 S    
O4    C2    1.323479 A    
C29   C33   1.411735 A    
C4    C6    1.464872 S    
C41   C42   1.419446 A    
C47   H18   1.077210 S    
C27   H13   1.078516 S    
C24   C34   1.386683 A    
C10   C11   1.413667 A    
Zn2   O6    1.967117 S    
N3    O9    1.301326 A    
C12   C16   1.412452 A    
C17   C18   1.399532 A    
C12   C13   1.406630 A    
C51   N6    1.158184 T    
C23   C31   1.414152 A    
C3    C24   1.456711 S    
C15   H1    1.083879 S    
C34   H11   1.076152 S    
