data_mof_unit_14659.cif
_audit_creation_date              2012-12-10T17:36:48-0500
_audit_creation_method            fapswitch 2.2
_symmetry_space_group_name_H-M    P1
_symmetry_Int_Tables_number       1
_space_group_crystal_system       triclinic
_cell_length_a                    10.596587
_cell_length_b                    12.34217
_cell_length_c                    13.102187
_cell_angle_alpha                 116.77584
_cell_angle_beta                  77.285366
_cell_angle_gamma                 101.249923
_cell_volume                      1483.2357872

loop_
_atom_site_label
_atom_site_type_symbol
_atom_type_description
_atom_site_fract_x
_atom_site_fract_y
_atom_site_fract_z
_atom_type_partial_charge
C1    C     C_R   0.518316 0.854678 0.285401 0.796981
C2    C     C_3   0.013546 0.912329 0.530385 -0.122581
C3    C     C_3   0.954486 0.891546 0.423940 -0.209131
C4    C     C_3   0.877162 0.000984 0.500732 -0.046522
C5    C     C_R   0.291142 0.286970 0.012353 0.156928
C6    C     C_R   0.445803 0.227748 0.835279 -0.088886
C7    C     C_R   0.639457 0.803634 0.083176 0.211397
C8    C     C_R   0.666884 0.718983 0.968464 0.216581
C9    C     C_R   0.605111 0.600985 0.931808 -0.270674
C10   C     C_R   0.511128 0.563777 0.007875 0.071680
C11   C     C_R   0.468515 0.653381 0.119012 0.050191
C12   C     C_R   0.740224 0.000304 0.500622 0.780067
C13   C     C_R   0.456134 0.440362 0.975376 0.084998
C14   C     C_R   0.347759 0.409750 0.047245 0.106566
C15   C     C_R   0.297153 0.502775 0.150417 -0.181475
C16   C     C_R   0.355966 0.622217 0.185442 -0.171231
C17   C     C_R   0.507127 0.346247 0.873015 -0.234574
C18   C     C_R   0.339764 0.197213 0.905872 -0.211390
C19   C     C_R   0.538612 0.771985 0.160320 -0.194762
C20   C     C_R   0.708172 0.344597 0.326384 -0.236160
C21   C     C_R   0.324204 0.759998 0.646610 0.098716
C22   C     C_R   0.286023 0.663675 0.678491 -0.231448
C23   C     C_R   0.478740 0.144950 0.713758 0.800549
C24   C     C_R   0.352073 0.559969 0.622647 -0.169196
C25   C     C_R   0.457857 0.551091 0.533393 0.000385
C26   C     C_R   0.493584 0.652461 0.504025 0.264383
C27   C     C_R   0.529738 0.446357 0.472977 -0.058859
C28   C     C_R   0.634725 0.444651 0.383546 0.120384
C29   C     C_R   0.665355 0.543299 0.353588 0.080264
C30   C     C_R   0.598375 0.645513 0.415157 -0.195574
C31   C     C_R   0.501843 0.342038 0.496926 0.056972
C32   C     C_R   0.677480 0.247088 0.356126 0.057751
C33   C     C_R   0.259672 0.000523 0.500515 0.790659
C34   C     C_3   0.986952 0.089168 0.471573 -0.161785
C35   C     C_3   0.066217 0.979418 0.394640 -0.150171
C36   C     C_3   0.122884 0.000928 0.501208 -0.031887
C37   C     C_3   0.046473 0.111319 0.578297 -0.218301
C38   C     C_3   0.936458 0.022250 0.604660 0.291382
Cu1   Cu    Cu3+1 0.529830 0.098270 0.475420 0.936813
Cu2   Cu    Cu3+1 0.470170 0.901730 0.524580 0.941293
H1    H     H_    0.123291 0.961655 0.307795 0.153374
H2    H     H_    0.593966 0.362386 0.818653 0.153146
H3    H     H_    0.630634 0.541441 0.841820 0.166320
H4    H     H_    0.309611 0.690276 0.264198 0.168198
H5    H     H_    0.735729 0.171632 0.313814 0.133728
H6    H     H_    0.790416 0.340935 0.259852 0.195642
H7    H     H_    0.422780 0.334755 0.561824 0.120150
H8    H     H_    0.272418 0.840126 0.690467 0.125833
H9    H     H_    0.973583 0.160652 0.446696 0.166368
H10   H     H_    0.318195 0.488465 0.651144 0.135005
H11   H     H_    0.204931 0.669425 0.746786 0.164461
H12   H     H_    0.632320 0.717947 0.389753 0.215084
H13   H     H_    0.086440 0.200411 0.642054 0.139398
H14   H     H_    0.026070 0.840815 0.555572 0.158633
H15   H     H_    0.914022 0.802942 0.360586 0.177713
H16   H     H_    0.290883 0.105045 0.875938 0.167087
H17   H     H_    0.212024 0.484598 0.205667 0.190183
N1    N     N_R   0.575030 0.246270 0.438190 -0.182696
N2    N     N_R   0.425760 0.754330 0.561190 -0.200944
O1    O     O_R   0.537510 0.972500 0.318130 -0.578064
O2    O     O_R   0.487140 0.806530 0.359650 -0.596818
O3    O     O_R   0.708330 0.082950 0.479220 -0.589619
O4    O     O_R   0.657960 0.916980 0.520740 -0.578201
O5    O     O_R   0.512860 0.193470 0.640350 -0.584729
O6    O     O_R   0.462490 0.027500 0.681870 -0.576801
O7    O     O_R   0.342040 0.083020 0.479260 -0.576678
O8    O     O_R   0.291670 0.917050 0.520780 -0.600567
N3    N     N_2   0.717720 0.918101 0.118698 -0.409570
H18   H     H_    0.668447 0.994166 0.156816 0.271671
C39   C     C_3   0.828110 0.925498 0.170722 -0.601630
H19   H     H_    0.794980 0.916566 0.253246 0.204692
H20   H     H_    0.887935 0.014746 0.188134 0.232065
H21   H     H_    0.890101 0.851899 0.111104 0.251067
I1    I     I_    0.807126 0.764401 0.846609 -0.396721
I2    I     I_    0.808983 0.544893 0.211596 -0.441557
N4    N     N_2   0.861880 0.045696 0.717836 -0.417154
H22   H     H_    0.799977 0.111643 0.745208 0.244560
C40   C     C_3   0.937565 0.064677 0.804976 -0.587461
H23   H     H_    0.871288 0.072902 0.885993 0.261913
H24   H     H_    0.005462 0.149916 0.823361 0.213252
H25   H     H_    0.993942 0.986158 0.775850 0.236848
I3    I     I_    0.127233 0.229258 0.110302 -0.457515

loop_
_geom_bond_atom_site_label_1
_geom_bond_atom_site_label_2
_ccdc_geom_bond_type
C34   C37   S    
C32   H5    S    
C35   C36   S    
C32   N1    A    
C7    C8    A    
C38   N4    S    
Cu1   O5    S    
C11   C19   A    
C29   C30   A    
Cu2   O4    S    
C31   N1    A    
C36   C37   S    
N4    C40   S    
C21   N2    A    
C40   H24   S    
Cu1   O1    S    
C15   C16   A    
C33   C36   S    
C34   C35   S    
C6    C17   A    
C17   H2    S    
C7    N3    S    
C3    H15   S    
N3    H18   S    
Cu2   O8    S    
C39   H19   S    
C4    C12   S    
C9    C10   A    
C16   H4    S    
C18   H16   S    
C21   H8    S    
C37   H13   S    
Cu2   N2    S    
C31   H7    S    
C21   C22   A    
C15   H17   S    
C33   O7    A    
C24   H10   S    
C6    C18   A    
C4    C34   S    
C9    H3    S    
C1    C19   S    
C27   C31   A    
N4    H22   S    
C2    H14   S    
C1    O1    A    
Cu1   Cu2   S    
C12   O4    A    
C40   H23   S    
C8    C9    A    
C5    C18   A    
C20   C28   A    
C25   C26   A    
Cu1   N1    S    
Cu2   O2    S    
C37   C38   S    
C12   O3    A    
C11   C16   A    
C2    C38   S    
C3    C35   S    
C39   H21   S    
C8    I1    S    
C24   C25   A    
C5    C14   A    
C23   O5    A    
C4    C38   S    
C26   C30   A    
C7    C19   A    
Cu2   O6    S    
Cu1   O7    S    
C22   C24   A    
C3    C4    S    
C33   O8    A    
C20   C32   A    
C2    C36   S    
Cu1   O3    S    
C30   H12   S    
C28   C29   A    
C34   H9    S    
C10   C13   A    
C1    O2    A    
C29   I2    S    
C25   C27   A    
C13   C17   A    
C23   O6    A    
C2    C3    S    
C5    I3    S    
C40   H25   S    
C6    C23   S    
C35   H1    S    
C10   C11   A    
N3    C39   S    
C27   C28   A    
C14   C15   A    
C26   N2    A    
C39   H20   S    
C13   C14   A    
C20   H6    S    
C22   H11   S    
