data_mof_unit_28692.cif
_audit_creation_date              2012-12-10T18:54:31-0500
_audit_creation_method            fapswitch 2.2
_symmetry_space_group_name_H-M    P1
_symmetry_Int_Tables_number       1
_space_group_crystal_system       triclinic
_cell_length_a                    19.414906
_cell_length_b                    18.331097
_cell_length_c                    9.064962
_cell_angle_alpha                 89.999938
_cell_angle_beta                  93.854299
_cell_angle_gamma                 89.997846
_cell_volume                      3218.89152181

loop_
_atom_site_label
_atom_site_type_symbol
_atom_type_description
_atom_site_fract_x
_atom_site_fract_y
_atom_site_fract_z
_atom_type_partial_charge
C1    C     C_R   0.367585 0.500001 0.499078 0.794376
C2    C     C_R   0.632415 0.499999 0.500921 0.794379
C3    C     C_R   0.464458 0.722712 0.387381 0.306899
C4    C     C_R   0.535540 0.277288 0.612625 0.306918
C5    C     C_R   0.535551 0.722707 0.612611 0.306896
C6    C     C_R   0.464455 0.277294 0.387376 0.306916
C7    C     C_R   0.469360 0.800451 0.379422 0.059152
C8    C     C_R   0.530647 0.199548 0.620567 0.059117
C9    C     C_R   0.530668 0.800448 0.620557 0.059161
C10   C     C_R   0.469346 0.199554 0.379421 0.059138
C11   C     C_R   0.500017 0.839955 0.499988 0.007434
C12   C     C_R   0.499998 0.160048 0.499990 0.007384
C13   C     C_R   0.561936 0.961625 0.492223 -0.185907
C14   C     C_R   0.438079 0.038378 0.507754 -0.185904
C15   C     C_R   0.438084 0.961621 0.507759 -0.185773
C16   C     C_R   0.561932 0.038383 0.492233 -0.185703
C17   C     C_R   0.500003 0.077720 0.499990 0.145998
C18   C     C_R   0.500012 0.922282 0.499989 0.145879
C19   C     C_R   0.499747 0.500000 0.220689 0.849188
C20   C     C_R   0.500252 0.500000 0.779311 0.849196
C21   C     C_1   0.499908 0.500000 0.065568 -0.198193
C22   C     C_1   0.500092 0.500000 0.934431 -0.198207
C23   C     C_R   0.744565 0.433887 0.502578 -0.194386
C24   C     C_R   0.255437 0.566116 0.497523 -0.194380
C25   C     C_R   0.255436 0.433890 0.497432 -0.194384
C26   C     C_R   0.744560 0.566107 0.502435 -0.194373
C27   C     C_R   0.816603 0.433197 0.502687 0.160904
C28   C     C_R   0.183399 0.566806 0.497401 0.160897
C29   C     C_R   0.183398 0.433201 0.497308 0.160895
C30   C     C_R   0.816597 0.566794 0.502541 0.160879
C31   C     C_R   0.852778 0.499994 0.502338 0.061493
C32   C     C_R   0.147221 0.500004 0.497621 0.061460
C33   C     C_R   0.708220 0.499997 0.502000 -0.121006
C34   C     C_R   0.291779 0.500003 0.497991 -0.120995
C35   C     C_R   0.968838 0.500189 0.634868 -0.185272
C36   C     C_R   0.031160 0.499808 0.365089 -0.185254
C37   C     C_R   0.040541 0.500195 0.633664 -0.183805
C38   C     C_R   0.959457 0.499803 0.366292 -0.183796
C39   C     C_R   0.071713 0.500004 0.498778 0.135466
C40   C     C_R   0.928285 0.499994 0.501178 0.135462
Cu1   Cu    Cu3+1 0.500000 0.573360 0.500000 0.926165
Cu2   Cu    Cu3+1 0.500000 0.426640 0.500000 0.926165
H1    H     H_    0.716807 0.382607 0.502742 0.163152
H2    H     H_    0.283199 0.617399 0.497459 0.163161
H3    H     H_    0.283196 0.382606 0.497299 0.163158
H4    H     H_    0.716797 0.617388 0.502478 0.163175
H5    H     H_    0.944878 0.500334 0.739390 0.130898
H6    H     H_    0.055120 0.499660 0.260568 0.130894
H7    H     H_    0.071779 0.500347 0.737272 0.132085
H8    H     H_    0.928218 0.499652 0.262683 0.132081
H9    H     H_    0.610324 0.932750 0.485970 0.142268
H10   H     H_    0.389691 0.067254 0.514000 0.142235
H11   H     H_    0.389700 0.932743 0.514008 0.142241
H12   H     H_    0.610316 0.067261 0.485991 0.142185
N1    N     N_R   0.500000 0.683620 0.500000 -0.199096
N2    N     N_R   0.500000 0.316380 0.500000 -0.199071
O1    O     O_R   0.400190 0.561980 0.499980 -0.591617
O2    O     O_R   0.599810 0.438020 0.500020 -0.591606
O3    O     O_R   0.599810 0.561980 0.500020 -0.591617
O4    O     O_R   0.400190 0.438020 0.499980 -0.591611
O5    O     O_R   0.500000 0.561940 0.288400 -0.577732
O6    O     O_R   0.500000 0.438060 0.711600 -0.577718
O7    O     O_R   0.500000 0.561940 0.711600 -0.577745
O8    O     O_R   0.500000 0.438060 0.288400 -0.577735
C41   C     C_3   0.854186 0.361205 0.503007 -0.876552
H13   H     H_    0.818025 0.314265 0.503486 0.226269
H14   H     H_    0.883841 0.356877 0.402837 0.237748
H15   H     H_    0.890293 0.357211 0.602978 0.236533
C42   C     C_3   0.145820 0.638801 0.497199 -0.876505
H16   H     H_    0.181985 0.685744 0.496810 0.226255
H17   H     H_    0.109718 0.642837 0.397222 0.236534
H18   H     H_    0.116161 0.643087 0.597375 0.237733
C43   C     C_3   0.145819 0.361206 0.497064 -0.876467
H19   H     H_    0.181987 0.314258 0.496750 0.226247
H20   H     H_    0.116124 0.356932 0.597193 0.237784
H21   H     H_    0.109750 0.357163 0.397035 0.236478
C44   C     C_3   0.854172 0.638785 0.502657 -0.876504
H22   H     H_    0.818005 0.685733 0.502953 0.226254
H23   H     H_    0.890263 0.642856 0.602642 0.236497
H24   H     H_    0.883843 0.643026 0.402493 0.237781
C45   C     C_3   0.419536 0.685603 0.266595 -0.762328
H25   H     H_    0.400165 0.632098 0.296207 0.257745
H26   H     H_    0.371568 0.717320 0.240808 0.191897
H27   H     H_    0.447962 0.680905 0.164742 0.218779
C46   C     C_3   0.580433 0.314403 0.733447 -0.762484
H28   H     H_    0.599877 0.367870 0.703759 0.257707
H29   H     H_    0.551946 0.319190 0.835202 0.218828
H30   H     H_    0.628355 0.282635 0.759444 0.192006
C47   C     C_3   0.580471 0.685593 0.733402 -0.762200
H31   H     H_    0.599814 0.632070 0.703828 0.257744
H32   H     H_    0.628459 0.717277 0.759122 0.191841
H33   H     H_    0.552060 0.680937 0.835281 0.218765
C48   C     C_3   0.419542 0.314409 0.266579 -0.762337
H34   H     H_    0.400159 0.367911 0.296200 0.257730
H35   H     H_    0.447981 0.319117 0.164744 0.218782
H36   H     H_    0.371578 0.282690 0.240758 0.191915
C49   C     C_3   0.441466 0.840711 0.241261 -0.871173
H37   H     H_    0.456924 0.812240 0.140600 0.235286
H38   H     H_    0.384330 0.844027 0.239074 0.230812
H39   H     H_    0.462073 0.896838 0.233335 0.244328
C50   C     C_3   0.558549 0.159268 0.758692 -0.871154
H40   H     H_    0.543315 0.187863 0.859407 0.235310
H41   H     H_    0.537713 0.103234 0.766841 0.244299
H42   H     H_    0.615669 0.155711 0.760559 0.230833
C51   C     C_3   0.558540 0.840696 0.758748 -0.871224
H43   H     H_    0.542925 0.812307 0.859376 0.235283
H44   H     H_    0.615683 0.843870 0.761184 0.230818
H45   H     H_    0.538062 0.896871 0.766501 0.244364
C52   C     C_3   0.441452 0.159292 0.241267 -0.871190
H46   H     H_    0.456878 0.187783 0.140602 0.235326
H47   H     H_    0.462099 0.103178 0.233303 0.244310
H48   H     H_    0.384322 0.155936 0.239132 0.230830

loop_
_geom_bond_atom_site_label_1
_geom_bond_atom_site_label_2
_ccdc_geom_bond_type
C15   C18   A    
C11   C18   S    
C48   H34   S    
Cu2   O8    S    
Cu1   Cu2   S    
C28   C42   S    
Cu1   O5    S    
C4    C8    A    
C35   H5    S    
Cu2   O2    S    
C45   H25   S    
C44   H22   S    
C7    C11   A    
C51   H44   S    
C50   H40   S    
C13   C18   A    
C15   H11   S    
C35   C37   A    
C29   C32   A    
C3    C7    A    
C52   H47   S    
C30   C31   A    
C44   H24   S    
C29   C43   S    
C9    C51   S    
C23   H1    S    
C31   C40   S    
C10   C52   S    
C43   H19   S    
C32   C39   S    
C42   H17   S    
Cu1   N1    S    
C49   H38   S    
C13   H9    S    
C30   C44   S    
C3    N1    A    
C14   H10   S    
C16   C17   A    
C41   H14   S    
C12   C17   S    
C3    C45   S    
C23   C27   A    
C47   H32   S    
C8    C50   S    
Cu2   O6    S    
C25   C34   A    
Cu2   N2    S    
C41   H15   S    
C44   H23   S    
C48   H35   S    
C21   C22   T    
C4    N2    A    
C43   H20   S    
C14   C17   A    
C45   H26   S    
C1    C34   S    
C49   H37   S    
C46   H29   S    
C25   C29   A    
C51   H45   S    
C27   C31   A    
C28   C32   A    
Cu1   O3    S    
C1    O4    A    
Cu2   O4    S    
C2    O3    A    
C4    C46   S    
C23   C33   A    
C46   H28   S    
C24   C34   A    
C42   H18   S    
C5    C9    A    
C27   C41   S    
C1    O1    A    
C37   H7    S    
C26   C33   A    
C19   O8    A    
C8    C12   A    
C6    C48   S    
C47   H33   S    
C9    C11   A    
C10   C12   A    
C2    C33   S    
C20   C22   S    
C26   C30   A    
C48   H36   S    
C24   H2    S    
C43   H21   S    
C52   H48   S    
Cu1   O7    S    
C25   H3    S    
C45   H27   S    
C46   H30   S    
C49   H39   S    
C7    C49   S    
C19   C21   S    
C5    N1    A    
C36   C39   A    
C24   C28   A    
C6    N2    A    
C6    C10   A    
C2    O2    A    
C38   H8    S    
C50   H42   S    
C51   H43   S    
C20   O7    A    
C36   C38   A    
C35   C40   A    
Cu1   O1    S    
C37   C39   A    
C52   H46   S    
C38   C40   A    
C19   O5    A    
C36   H6    S    
C20   O6    A    
C42   H16   S    
C16   H12   S    
C26   H4    S    
C50   H41   S    
C41   H13   S    
C13   C16   A    
C14   C15   A    
C47   H31   S    
C5    C47   S    
