data_mof_unit_9076.cif
_audit_creation_date              2012-12-11T15:34:40-0500
_audit_creation_method            fapswitch 2.2
_symmetry_space_group_name_H-M    P1
_symmetry_Int_Tables_number       1
_space_group_crystal_system       triclinic
_cell_length_a                    15.055916
_cell_length_b                    15.063332
_cell_length_c                    34.959335
_cell_angle_alpha                 90.390103
_cell_angle_beta                  89.941318
_cell_angle_gamma                 60.064699
_cell_volume                      6870.51156195

loop_
_atom_site_label
_atom_site_type_symbol
_atom_type_description
_atom_site_fract_x
_atom_site_fract_y
_atom_site_fract_z
_atom_type_partial_charge
C1    C     C_R   0.301941 0.608316 0.555707 0.530621
C2    C     C_R   0.229392 0.715119 0.387612 -0.128109
C3    C     C_R   0.747863 0.154105 0.265805 -0.121879
C4    C     C_R   0.755104 0.143749 0.226130 -0.115855
C5    C     C_R   0.670307 0.206130 0.203130 0.027770
C6    C     C_R   0.723005 0.228376 0.348414 -0.121272
C7    C     C_R   0.708079 0.243000 0.387879 -0.127728
C8    C     C_R   0.540930 0.257817 0.381368 -0.124527
C9    C     C_R   0.736523 0.579486 0.648914 -0.124707
C10   C     C_R   0.555091 0.245235 0.342007 -0.129779
C11   C     C_R   0.645070 0.232814 0.325079 0.028618
C12   C     C_R   0.615444 0.261106 0.404534 0.022987
C13   C     C_R   0.207511 0.719385 0.348808 -0.124001
C14   C     C_R   0.085860 0.706781 0.093462 0.021934
C15   C     C_R   0.102169 0.614409 0.109340 -0.127884
C16   C     C_R   0.139991 0.587861 0.146333 -0.124503
C17   C     C_R   0.162086 0.653206 0.167923 0.031496
C18   C     C_R   0.153353 0.741417 0.150971 -0.120702
C19   C     C_R   0.115679 0.767938 0.113985 -0.127803
C20   C     C_R   0.254019 0.656608 0.226700 -0.122156
C21   C     C_3   0.762503 0.347620 0.727435 -0.121660
C22   C     C_3   0.899281 0.073275 0.825084 -0.253728
C23   C     C_3   0.000716 0.023533 0.847207 -0.317246
C24   C     C_R   0.203596 0.637864 0.330899 0.031254
C25   C     C_3   0.090174 0.005167 0.821352 -0.450105
C26   C     C_3   0.135649 0.817383 0.589040 -0.255714
C27   C     C_3   0.018569 0.866996 0.592616 -0.308068
C28   C     C_3   0.963687 0.966112 0.569862 -0.455181
C29   C     C_3   0.137429 0.499127 0.835207 -0.259462
C30   C     C_3   0.030720 0.531485 0.819416 -0.288747
C31   C     C_3   0.030294 0.442656 0.798331 -0.452353
C32   C     C_3   0.639565 0.846389 0.295560 -0.258665
C33   C     C_3   0.537948 0.947960 0.293683 -0.302096
C34   C     C_3   0.541421 0.030134 0.318228 -0.449179
C35   C     C_R   0.562056 0.721631 0.650448 -0.121346
C36   C     C_3   0.476747 0.849583 0.926047 -0.095422
C37   C     C_3   0.556314 0.922184 0.822066 -0.088498
C38   C     C_R   0.248639 0.628661 0.408923 0.022655
C39   C     C_R   0.736054 0.025516 0.943326 0.540402
C40   C     C_R   0.745230 0.722854 0.945212 0.555725
C41   C     C_R   0.039073 0.733707 0.948579 0.541480
C42   C     C_R   0.723145 0.038601 0.052868 0.541477
C43   C     C_R   0.733389 0.734306 0.054660 0.538031
C44   C     C_R   0.653593 0.656574 0.669631 0.038082
C45   C     C_R   0.027714 0.744563 0.057809 0.544979
C46   C     C_R   0.550844 0.704637 0.612005 -0.131663
C47   C     C_R   0.668734 0.671745 0.788791 0.352969
C48   C     C_R   0.659849 0.664153 0.711440 0.336416
C49   C     C_R   0.757559 0.599569 0.850163 -0.202588
C50   C     C_R   0.775768 0.610849 0.888386 -0.207096
C51   C     C_R   0.621467 0.777988 0.890241 0.268728
C52   C     C_R   0.607339 0.769835 0.850931 0.283311
C53   C     C_R   0.676061 0.679928 0.830616 -0.005375
C54   C     C_R   0.610653 0.588251 0.555243 0.546960
C55   C     C_R   0.261708 0.655680 0.266363 -0.119544
C56   C     C_R   0.711099 0.701803 0.908340 -0.020866
C57   C     C_R   0.723473 0.073824 0.905685 0.003855
C58   C     C_R   0.630065 0.113222 0.886326 -0.136696
C59   C     C_R   0.623864 0.138870 0.847943 -0.142797
C60   C     C_R   0.710759 0.125366 0.828210 0.028985
C61   C     C_R   0.804995 0.089993 0.847480 0.010373
C62   C     C_R   0.809320 0.066191 0.886592 -0.111489
C63   C     C_R   0.702145 0.225183 0.770575 -0.110072
C64   C     C_R   0.696732 0.238062 0.730606 0.288808
C65   C     C_R   0.688714 0.165381 0.707300 0.037400
C66   C     C_R   0.197446 0.634799 0.289066 0.027714
C67   C     C_R   0.590331 0.300348 0.553528 0.543182
C68   C     C_R   0.689507 0.080422 0.723770 -0.176009
C69   C     C_R   0.697289 0.067487 0.763200 -0.143024
C70   C     C_R   0.703380 0.139822 0.786643 -0.023759
C71   C     C_R   0.586770 0.187496 0.648708 -0.126016
C72   C     C_R   0.563260 0.218965 0.610874 -0.134288
C73   C     C_R   0.718858 0.228753 0.605942 -0.131178
C74   C     C_R   0.742101 0.197527 0.643804 -0.080589
C75   C     C_R   0.674012 0.180862 0.665800 0.061372
C76   C     C_R   0.626919 0.244064 0.589671 0.018036
C77   C     C_R   0.128325 0.610722 0.271631 -0.120008
C78   C     C_R   0.099105 0.694172 0.912915 0.007466
C79   C     C_R   0.300357 0.610230 0.446044 0.541211
C80   C     C_R   0.140452 0.749141 0.895338 -0.144246
C81   C     C_R   0.175352 0.727517 0.857712 -0.139703
C82   C     C_R   0.170782 0.649943 0.837170 0.032422
C83   C     C_R   0.138739 0.587320 0.855594 0.007668
C84   C     C_R   0.102722 0.610499 0.893455 -0.119659
C85   C     C_R   0.279470 0.579078 0.778763 -0.117849
C86   C     C_R   0.290469 0.575903 0.739061 -0.106713
C87   C     C_R   0.206781 0.640205 0.715755 0.029454
C88   C     C_R   0.120223 0.612159 0.231945 -0.116104
C89   C     C_R   0.112484 0.708903 0.732943 -0.117089
C90   C     C_R   0.101731 0.712131 0.772612 -0.118703
C91   C     C_R   0.607842 0.589808 0.445256 0.542836
C92   C     C_R   0.184750 0.646428 0.795554 0.023538
C93   C     C_R   0.175077 0.723584 0.651442 -0.099078
C94   C     C_R   0.190306 0.718571 0.611532 -0.002140
C95   C     C_R   0.292389 0.532679 0.616521 -0.132713
C96   C     C_R   0.273446 0.539008 0.655561 -0.126083
C97   C     C_R   0.218078 0.634431 0.673650 0.018145
C98   C     C_R   0.255786 0.621583 0.594225 0.026027
C99   C     C_R   0.181721 0.636963 0.209216 0.028511
C100  C     C_R   0.692213 0.718570 0.090645 0.020729
C101  C     C_R   0.611161 0.802306 0.109698 -0.130036
C102  C     C_R   0.587689 0.793057 0.147535 -0.125059
C103  C     C_R   0.587159 0.304088 0.443472 0.541318
C104  C     C_R   0.644297 0.699837 0.166776 0.030658
C105  C     C_R   0.719150 0.613890 0.146693 -0.119222
C106  C     C_R   0.743061 0.623208 0.108938 -0.126292
C107  C     C_R   0.634482 0.611031 0.225419 -0.129157
C108  C     C_R   0.634924 0.602852 0.265072 -0.131553
C109  C     C_R   0.635540 0.678350 0.288655 0.029523
C110  C     C_R   0.213216 0.556005 0.352814 -0.123997
C111  C     C_R   0.634623 0.764212 0.272036 0.012160
C112  C     C_R   0.634051 0.771368 0.232049 -0.104118
C113  C     C_R   0.634458 0.695134 0.208606 0.012945
C114  C     C_R   0.549237 0.731493 0.352137 -0.124488
C115  C     C_R   0.630843 0.621974 0.592174 0.023353
C116  C     C_R   0.543837 0.711557 0.390682 -0.130028
C117  C     C_R   0.712921 0.560915 0.386260 -0.126912
C118  C     C_R   0.718287 0.581238 0.347717 -0.127946
C119  C     C_R   0.635530 0.665252 0.330311 0.021336
C120  C     C_R   0.624188 0.624065 0.407810 0.021520
C121  C     C_R   0.235660 0.551363 0.391633 -0.128528
C122  C     C_R   0.699801 0.101886 0.087751 0.021850
C123  C     C_R   0.774819 0.120384 0.103670 -0.127959
C124  C     C_R   0.762221 0.161065 0.140463 -0.124954
C125  C     C_R   0.674284 0.184349 0.161834 0.030853
C126  C     C_R   0.595461 0.174089 0.144767 -0.121150
C127  C     C_R   0.725196 0.562243 0.610506 -0.128360
C128  C     C_R   0.608114 0.133110 0.107969 -0.128836
C129  C     C_R   0.579423 0.281787 0.220328 -0.121563
C130  C     C_R   0.572301 0.292417 0.260012 -0.119201
C131  C     C_R   0.655727 0.227037 0.283089 0.024825
Cr1   Cr    Cr6+3 0.421670 0.426920 0.499620 1.007431
Cr2   Cr    Cr6+3 0.427030 0.651190 0.500980 1.004737
Cr3   Cr    Cr6+3 0.651280 0.421870 0.499380 1.008663
Cr4   Cr    Cr6+3 0.910810 0.908010 0.001130 1.003566
Cr5   Cr    Cr6+3 0.682800 0.909890 0.998370 1.038648
Cr6   Cr    Cr6+3 0.908370 0.682300 0.002180 1.005609
H1    H     H_    0.788487 0.498424 0.595840 0.127029
H2    H     H_    0.477327 0.752300 0.598585 0.130664
H3    H     H_    0.769960 0.246510 0.590198 0.121399
H4    H     H_    0.139747 0.813350 0.909766 0.126080
H5    H     H_    0.072236 0.566573 0.906852 0.124213
H6    H     H_    0.304947 0.468888 0.671848 0.110762
H7    H     H_    0.364545 0.523560 0.726567 0.129088
H8    H     H_    0.344272 0.528834 0.796351 0.114340
H9    H     H_    0.200485 0.775319 0.843823 0.122051
H10   H     H_    0.046665 0.758641 0.715711 0.101144
H11   H     H_    0.028293 0.764962 0.785491 0.108418
H12   H     H_    0.880647 0.036020 0.901967 0.127360
H13   H     H_    0.131387 0.797627 0.665359 0.100694
H14   H     H_    0.843700 0.550080 0.901703 0.147298
H15   H     H_    0.341414 0.457325 0.604239 0.139319
H16   H     H_    0.570290 0.876696 0.096305 0.125377
H17   H     H_    0.805436 0.557183 0.094873 0.125157
H18   H     H_    0.785331 0.529366 0.331068 0.106356
H19   H     H_    0.634825 0.537184 0.277507 0.118952
H20   H     H_    0.634831 0.551339 0.207855 0.110971
H21   H     H_    0.528567 0.859970 0.162362 0.099725
H22   H     H_    0.808544 0.528946 0.662779 0.121284
H23   H     H_    0.810804 0.190819 0.656477 0.116213
H24   H     H_    0.637371 0.834888 0.219148 0.105684
H25   H     H_    0.484115 0.795703 0.338912 0.104379
H26   H     H_    0.474097 0.761280 0.406378 0.124821
H27   H     H_    0.764091 0.541246 0.160957 0.103915
H28   H     H_    0.775828 0.492712 0.398549 0.125827
H29   H     H_    0.845865 0.098172 0.088598 0.123944
H30   H     H_    0.548826 0.120143 0.096374 0.124062
H31   H     H_    0.494349 0.247887 0.324645 0.099516
H32   H     H_    0.501081 0.350857 0.272710 0.110978
H33   H     H_    0.513450 0.331260 0.203098 0.106811
H34   H     H_    0.703236 0.282117 0.789313 0.103826
H35   H     H_    0.497311 0.782821 0.665507 0.132036
H36   H     H_    0.823258 0.169870 0.152920 0.100870
H37   H     H_    0.812873 0.102371 0.282998 0.101346
H38   H     H_    0.825493 0.083624 0.213528 0.105827
H39   H     H_    0.793098 0.219007 0.335961 0.100572
H40   H     H_    0.766561 0.245777 0.405008 0.119399
H41   H     H_    0.527129 0.191025 0.160813 0.102091
H42   H     H_    0.468427 0.272049 0.393207 0.127011
H43   H     H_    0.080974 0.565130 0.093968 0.124911
H44   H     H_    0.104464 0.839284 0.102382 0.126241
H45   H     H_    0.551947 0.165418 0.833067 0.109728
H46   H     H_    0.198047 0.784267 0.332390 0.101996
H47   H     H_    0.810368 0.529228 0.835406 0.140536
H48   H     H_    0.317405 0.671926 0.279369 0.109105
H49   H     H_    0.303067 0.674640 0.209713 0.105094
H50   H     H_    0.147823 0.518556 0.158673 0.100471
H51   H     H_    0.078275 0.594328 0.288740 0.102258
H52   H     H_    0.062666 0.598398 0.219147 0.105514
H53   H     H_    0.210037 0.492563 0.339452 0.099435
H54   H     H_    0.249714 0.483947 0.407397 0.121481
H55   H     H_    0.169167 0.793510 0.167146 0.102554
H56   H     H_    0.683636 0.024360 0.706012 0.116875
H57   H     H_    0.238201 0.776171 0.400190 0.124146
H58   H     H_    0.562862 0.119665 0.900330 0.142596
H59   H     H_    0.838954 0.277274 0.730371 0.087719
H60   H     H_    0.737935 0.390759 0.754922 0.138024
H61   H     H_    0.771239 0.397560 0.706395 0.160072
H62   H     H_    0.099062 0.951993 0.797563 0.157659
H63   H     H_    0.077378 0.078711 0.809347 0.152543
H64   H     H_    0.162096 0.970315 0.838197 0.151274
H65   H     H_    0.995892 0.074298 0.871311 0.157400
H66   H     H_    0.016151 0.948591 0.858650 0.167173
H67   H     H_    0.698151 0.001285 0.775538 0.113973
H68   H     H_    0.909087 0.023381 0.799969 0.152304
H69   H     H_    0.884743 0.148560 0.814272 0.137267
H70   H     H_    0.985293 0.022279 0.580637 0.147266
H71   H     H_    0.983799 0.950608 0.539023 0.152467
H72   H     H_    0.879475 0.000033 0.573082 0.151225
H73   H     H_    0.994386 0.812782 0.581755 0.167694
H74   H     H_    0.994151 0.885225 0.623007 0.157822
H75   H     H_    0.160309 0.871207 0.599910 0.141388
H76   H     H_    0.154652 0.804442 0.558177 0.170648
H77   H     H_    0.086124 0.415663 0.774238 0.155872
H78   H     H_    0.533679 0.174376 0.665324 0.105361
H79   H     H_    0.050323 0.378201 0.818210 0.142326
H80   H     H_    0.952964 0.468148 0.786555 0.173331
H81   H     H_    0.974230 0.557342 0.843281 0.166315
H82   H     H_    0.006862 0.596175 0.799282 0.180510
H83   H     H_    0.194520 0.469353 0.811545 0.151303
H84   H     H_    0.160740 0.434728 0.855496 0.132807
H85   H     H_    0.556196 0.005937 0.348593 0.156076
H86   H     H_    0.602615 0.044732 0.307739 0.167318
H87   H     H_    0.466544 0.102169 0.316529 0.133903
H88   H     H_    0.521653 0.975173 0.263663 0.157383
H89   H     H_    0.492125 0.229640 0.599081 0.124824
H90   H     H_    0.474264 0.936969 0.303935 0.156431
H91   H     H_    0.658327 0.823441 0.325883 0.155916
H92   H     H_    0.702593 0.857252 0.284303 0.139230
H93   H     H_    0.510563 0.786016 0.947073 0.098370
H94   H     H_    0.433426 0.833909 0.903768 0.135269
H95   H     H_    0.421311 0.920061 0.941711 0.129057
H96   H     H_    0.624425 0.886868 0.802749 0.104909
H97   H     H_    0.572132 0.956555 0.847577 0.150368
H98   H     H_    0.492603 0.985302 0.806189 0.136575
N1    N     N_R   0.753068 0.607306 0.768003 -0.274876
N2    N     N_R   0.748674 0.603303 0.730096 -0.263672
N3    N     N_R   0.575280 0.727972 0.732236 -0.237290
N4    N     N_R   0.579713 0.731824 0.770142 -0.163892
O1    O     O_R   0.502070 0.323090 0.541280 -0.523910
O2    O     O_R   0.831550 0.656950 0.958960 -0.531292
O3    O     O_R   0.998590 0.685540 0.963930 -0.503382
O4    O     O_R   0.338340 0.520690 0.539540 -0.503649
O5    O     O_R   0.008220 0.831200 0.045060 -0.521370
O6    O     O_R   0.813270 0.997930 0.038810 -0.503164
O7    O     O_R   0.657500 0.016560 0.039940 -0.523173
O8    O     O_R   0.685680 0.820940 0.038120 -0.506918
O9    O     O_R   0.822130 0.666070 0.043610 -0.520388
O10   O     O_R   0.989860 0.694000 0.042400 -0.501951
O11   O     O_3   0.833990 0.833400 0.000560 -0.239575
O12   O     O_R   0.520720 0.641670 0.461580 -0.503229
O13   O     O_R   0.324760 0.674070 0.543580 -0.523581
O14   O     O_R   0.522400 0.640310 0.540110 -0.501548
O15   O     O_R   0.675940 0.500630 0.542210 -0.519892
O16   O     O_R   0.641790 0.337020 0.538150 -0.501062
O17   O     O_R   0.500260 0.324550 0.456580 -0.522090
O18   O     O_R   0.336660 0.522040 0.461020 -0.502803
O19   O     O_R   0.322940 0.675540 0.458880 -0.524892
O20   O     O_3   0.686938 0.325995 0.713874 -0.564192
O21   O     O_3   0.552496 0.866327 0.909523 -0.538705
O22   O     O_3   0.526128 0.850767 0.832646 -0.538240
O23   O     O_R   0.674120 0.502090 0.457500 -0.520452
O24   O     O_R   0.640110 0.338380 0.459630 -0.502544
O25   O     O_3   0.499990 0.499990 0.499990 -0.232173
O26   O     O_R   0.017640 0.822070 0.960410 -0.523132
O27   O     O_R   0.822000 0.989470 0.960340 -0.509059
O28   O     O_R   0.666920 0.007430 0.955290 -0.496354
O29   O     O_R   0.694410 0.812480 0.959650 -0.446426

loop_
_geom_bond_atom_site_label_1
_geom_bond_atom_site_label_2
_ccdc_geom_bond_type
C26   C94   S    
Cr2   O25   S    
C44   C48   S    
C51   O21   S    
C42   O6    A    
Cr3   O24   S    
C35   H35   S    
C62   H12   S    
C117  C118  A    
C40   C56   S    
C73   C74   A    
Cr4   O6    S    
C116  H26   S    
C41   O26   A    
C95   C96   A    
C71   H78   S    
C109  C119  S    
C21   H61   S    
C72   C76   A    
Cr5   O11   S    
C102  H21   S    
C78   C80   A    
Cr6   O11   S    
C1    O13   A    
C86   H7    S    
C123  C124  A    
C31   H77   S    
C91   O12   A    
C85   C86   A    
C108  C109  A    
C29   H84   S    
C112  H24   S    
C7    H40   S    
C26   C27   S    
C101  C102  A    
C46   C115  A    
Cr5   O28   S    
C3    C131  A    
C32   C111  S    
C85   H8    S    
Cr3   O16   S    
C29   C83   S    
C25   H64   S    
C69   C70   A    
C109  C111  A    
C110  C121  A    
C30   C31   S    
C39   O28   A    
C114  H25   S    
C38   C79   S    
C9    H22   S    
C130  H32   S    
C15   C16   A    
C39   C57   S    
C82   C92   S    
C103  O24   A    
C67   O1    A    
C115  C127  A    
N1    N2    A    
C22   H69   S    
C58   H58   S    
C18   C19   A    
C48   N3    A    
C2    C13   A    
C118  C119  A    
C107  C113  A    
C90   H11   S    
C1    O4    A    
C45   O10   A    
N3    N4    A    
C123  H29   S    
C63   H34   S    
C50   H14   S    
C29   H83   S    
C111  C112  A    
C77   C88   A    
C43   O8    A    
C68   C69   A    
C13   H46   S    
C4    H38   S    
C128  H30   S    
C126  C128  A    
C107  C108  A    
C37   H98   S    
C68   H56   S    
C127  H1    S    
C84   H5    S    
Cr2   O12   S    
C45   O5    A    
C114  C119  A    
C64   O20   S    
C36   H95   S    
Cr1   O25   S    
Cr6   O2    S    
C5    C129  A    
C59   C60   A    
Cr3   O23   S    
C72   H89   S    
C15   H43   S    
C96   C97   A    
C122  C128  A    
C103  O17   A    
C54   O15   A    
C19   H44   S    
C93   H13   S    
C7    C12   A    
C20   C55   A    
C13   C24   A    
C3    H37   S    
C104  C105  A    
C107  H20   S    
C85   C92   A    
C34   H87   S    
C81   C82   A    
C14   C45   S    
C104  C113  S    
C122  C123  A    
C22   C23   S    
C88   H52   S    
C95   C98   A    
C74   C75   A    
C23   H65   S    
C51   C52   A    
C79   O18   A    
C32   H91   S    
C129  H33   S    
C37   H97   S    
C24   C110  A    
C43   C100  S    
Cr3   O15   S    
C12   C103  S    
C117  C120  A    
C117  H28   S    
C6    C11   A    
Cr6   O9    S    
C86   C87   A    
C16   C17   A    
C87   C97   S    
C31   H79   S    
C106  H17   S    
C28   H72   S    
C110  H53   S    
C27   H73   S    
C50   C56   A    
C38   C121  A    
C116  C120  A    
C22   H68   S    
C23   H66   S    
C60   C61   A    
C2    H57   S    
C51   C56   A    
Cr4   O5    S    
C59   H45   S    
C48   N2    A    
C29   C30   S    
C25   H62   S    
Cr4   O27   S    
C49   H47   S    
C95   H15   S    
C2    C38   A    
Cr1   O4    S    
C90   C92   A    
C83   C84   A    
C108  H19   S    
C63   C70   A    
C60   C70   S    
C43   O9    A    
C8    C12   A    
C65   C68   A    
C18   H55   S    
C54   C115  S    
C27   H74   S    
C17   C18   A    
C105  H27   S    
Cr5   O7    S    
C118  H18   S    
C93   C94   A    
C9    C127  A    
C52   C53   A    
C102  C104  A    
C35   C44   A    
C17   C99   S    
Cr2   O13   S    
C6    C7    A    
C91   O23   A    
C47   N4    A    
Cr6   O3    S    
C40   O29   A    
C36   H93   S    
Cr2   O19   S    
C49   C50   A    
C26   H76   S    
C125  C126  A    
C28   H71   S    
C54   O14   A    
C57   C62   A    
C101  H16   S    
Cr2   O14   S    
C3    C4    A    
C93   C97   A    
C41   C78   S    
C55   C66   A    
C34   H86   S    
C42   C122  S    
C129  C130  A    
C33   H88   S    
C89   H10   S    
C66   C77   A    
C32   H92   S    
C42   O7    A    
C9    C44   A    
Cr3   O25   S    
C91   C120  S    
C79   O19   A    
C14   C19   A    
C8    C10   A    
C21   O20   S    
C40   O2    A    
C21   H60   S    
C80   C81   A    
C33   H90   S    
C16   H50   S    
C11   C131  S    
C1    C98   S    
C121  H54   S    
Cr6   O10   S    
C37   H96   S    
Cr1   O18   S    
C124  H36   S    
C73   H3    S    
C67   O16   A    
C22   C61   S    
C105  C106  A    
C100  C106  A    
C65   C75   S    
C74   H23   S    
C41   O3    A    
Cr5   O29   S    
C64   C65   A    
C87   C89   A    
C130  C131  A    
C58   C59   A    
C71   C72   A    
C25   H63   S    
C114  C116  A    
C32   C33   S    
C96   H6    S    
C71   C75   A    
C8    H42   S    
C57   C58   A    
C20   C99   A    
C6    H39   S    
C36   H94   S    
C49   C53   A    
C47   C53   S    
C100  C101  A    
C73   C76   A    
C33   C34   S    
C126  H41   S    
C112  C113  A    
C55   H48   S    
C21   H59   S    
Cr1   O1    S    
C61   C62   A    
C28   H70   S    
C52   O22   S    
C37   O22   S    
C30   H81   S    
C88   C99   A    
C10   C11   A    
Cr1   O17   S    
C20   H49   S    
C63   C64   A    
C78   C84   A    
C4    C5    A    
C23   C25   S    
C124  C125  A    
C24   C66   S    
Cr5   O8    S    
C69   H67   S    
C10   H31   S    
C81   H9    S    
C5    C125  S    
C27   C28   S    
Cr4   O26   S    
C77   H51   S    
C94   C98   A    
C14   C15   A    
C46   H2    S    
C26   H75   S    
C67   C76   S    
Cr4   O11   S    
C82   C83   A    
C89   C90   A    
C47   N1    A    
C35   C46   A    
C39   O27   A    
C80   H4    S    
C34   H85   S    
C36   O21   S    
C30   H82   S    
C31   H80   S    
