data_mof_unit_10939.cif
_audit_creation_date              2012-12-11T14:43:34-0500
_audit_creation_method            fapswitch 2.2
_symmetry_space_group_name_H-M    P1
_symmetry_Int_Tables_number       1
_space_group_crystal_system       triclinic
_cell_length_a                    8.248584
_cell_length_b                    15.154629
_cell_length_c                    18.930368
_cell_angle_alpha                 97.108519
_cell_angle_beta                  93.646806
_cell_angle_gamma                 99.550367
_cell_volume                      2307.06615194

loop_
_atom_site_label
_atom_site_type_symbol
_atom_type_description
_atom_site_fract_x
_atom_site_fract_y
_atom_site_fract_z
_atom_type_partial_charge
Ba1   Ba    Ba6+2 0.852920 0.542430 0.466290 1.725001
Ba2   Ba    Ba6+2 0.336920 0.457650 0.533720 1.724343
C1    C     C_3   0.717816 0.866129 0.284104 0.423115
C2    C     C_3   0.667875 0.776554 0.312490 0.297523
C3    C     C_3   0.438027 0.323330 0.315087 0.372244
C4    C     C_3   0.394526 0.299772 0.233797 0.287224
C5    C     C_3   0.004521 0.249215 0.723508 0.300647
C6    C     C_3   0.063036 0.254073 0.801722 -0.217794
C7    C     C_3   0.545728 0.240354 0.777018 0.815495
C8    C     C_3   0.506403 0.238839 0.855441 0.327836
C9    C     C_2   0.287906 0.521162 0.289876 -0.348499
C10   C     C_3   0.433964 0.515751 0.245750 0.002592
C11   C     C_2   0.383987 0.518540 0.168075 -0.156478
C12   C     C_3   0.144916 0.733862 0.274353 0.259042
C13   C     C_2   0.225599 0.489070 0.141643 -0.129067
C14   C     C_2   0.096337 0.461679 0.193136 0.357817
C15   C     C_1   0.142206 0.472328 0.265004 -0.039574
C16   C     C_R   0.071859 0.485848 0.923280 0.441459
C17   C     C_R   0.181498 0.487045 0.062918 0.527881
C18   C     C_R   0.099793 0.526313 0.798400 -0.070408
C19   C     C_R   0.037364 0.520062 0.726550 0.037449
C20   C     C_R   0.778444 0.434926 0.753266 -0.027356
C21   C     C_R   0.839759 0.441389 0.825240 -0.144134
C22   C     C_R   0.003272 0.484893 0.848131 -0.039387
C23   C     C_3   0.094545 0.746257 0.198026 -0.218480
C24   C     C_R   0.880218 0.471586 0.704319 -0.267007
C25   C     C_R   0.763502 0.233113 0.524535 -0.176369
C26   C     C_R   0.855798 0.174409 0.552616 -0.048368
C27   C     C_R   0.790804 0.081643 0.545489 -0.077129
C28   C     C_R   0.633853 0.045937 0.507634 0.026047
C29   C     C_R   0.548555 0.107901 0.476788 -0.067298
C30   C     C_R   0.612143 0.200149 0.485762 0.120486
C31   C     C_R   0.401116 0.912541 0.463121 -0.079603
C32   C     C_R   0.336306 0.820306 0.452019 0.024821
C33   C     C_R   0.580588 0.789024 0.513903 0.094549
C34   C     C_3   0.349126 0.740290 0.701146 0.621923
C35   C     C_R   0.648899 0.881418 0.523702 -0.094601
C36   C     C_R   0.561521 0.945790 0.497773 -0.009440
C37   C     C_R   0.426456 0.758978 0.477069 -0.257689
C38   C     C_3   0.368960 0.767991 0.783377 0.273146
C39   C     C_3   0.843374 0.255033 0.307846 0.656610
C40   C     C_3   0.802347 0.206922 0.229837 0.246441
C41   C     C_3   0.752107 0.657575 0.679965 0.284653
C42   C     C_3   0.738736 0.670290 0.760573 -0.326806
H1    H     H_    0.780266 0.762500 0.341086 0.049122
H2    H     H_    0.400026 0.710253 0.809036 -0.045132
H3    H     H_    0.476318 0.823736 0.797415 0.066784
H4    H     H_    0.756347 0.301954 0.312559 0.020051
H5    H     H_    0.761549 0.254572 0.196236 0.081528
H6    H     H_    0.693702 0.153240 0.229462 0.104136
H7    H     H_    0.880484 0.654172 0.669568 0.060478
H8    H     H_    0.671193 0.592868 0.657244 0.037835
H9    H     H_    0.771830 0.918446 0.329441 -0.091815
H10   H     H_    0.754449 0.742861 0.782397 0.178395
H11   H     H_    0.833840 0.639927 0.788152 0.129143
H12   H     H_    0.616322 0.636366 0.772948 0.079799
H13   H     H_    0.572561 0.783113 0.350591 -0.028829
H14   H     H_    0.331990 0.347147 0.339711 -0.040029
H15   H     H_    0.544358 0.380140 0.325161 -0.032367
H16   H     H_    0.261305 0.300397 0.222503 0.085222
H17   H     H_    0.462962 0.353621 0.207216 -0.015393
H18   H     H_    0.813199 0.859751 0.245857 0.045620
H19   H     H_    0.145054 0.698017 0.160061 0.128034
H20   H     H_    0.008090 0.319820 0.712905 -0.014150
H21   H     H_    0.876262 0.210726 0.713181 0.066184
H22   H     H_    0.184181 0.299631 0.813859 0.092363
H23   H     H_    0.974338 0.282583 0.835347 0.121283
H24   H     H_    0.073373 0.185655 0.814771 0.186968
H25   H     H_    0.679408 0.264239 0.775455 -0.292818
H26   H     H_    0.372862 0.214518 0.857948 0.035630
H27   H     H_    0.085369 0.664863 0.281819 0.063009
H28   H     H_    0.534520 0.308802 0.883970 -0.055989
H29   H     H_    0.478516 0.537440 0.132638 0.126856
H30   H     H_    0.223748 0.561962 0.815166 0.102941
H31   H     H_    0.760681 0.413804 0.863402 0.089703
H32   H     H_    0.299057 0.570937 0.337228 0.062829
H33   H     H_    0.833318 0.467037 0.649075 0.053822
H34   H     H_    0.321242 0.956036 0.445125 0.081696
H35   H     H_    0.866443 0.039405 0.568677 0.067764
H36   H     H_    0.768597 0.900917 0.552788 0.076410
H37   H     H_    0.281142 0.739527 0.281649 0.076926
H38   H     H_    0.434770 0.086932 0.443487 0.061196
H39   H     H_    0.373835 0.687847 0.470312 0.068580
H40   H     H_    0.813878 0.304421 0.529296 0.044284
H41   H     H_    0.957901 0.733071 0.188427 0.135439
H42   H     H_    0.141933 0.816294 0.188402 0.169627
H43   H     H_    0.437637 0.694938 0.691762 0.024560
N1    N     N_R   0.160953 0.562110 0.962186 -0.178637
N2    N     N_R   0.213818 0.562845 0.030691 -0.210162
N3    N     N_R   0.100119 0.410137 0.022711 -0.142815
N4    N     N_R   0.044773 0.409663 0.954867 -0.213602
O1    O     O_2   0.864880 0.449170 0.328210 -0.460298
O2    O     O_3   0.708038 0.731733 0.650761 -0.601786
O3    O     O_3   0.092699 0.800441 0.321749 -0.604306
O4    O     O_2   0.324830 0.550860 0.671840 -0.496130
O5    O     O_3   0.072140 0.549400 0.584410 -0.472665
O6    O     O_3   0.531230 0.386060 0.627150 -0.437008
O7    O     O_3   0.187808 0.697428 0.673602 -0.623987
O8    O     O_3   0.606300 0.390910 0.463140 -0.492570
O9    O     O_3   0.106650 0.339290 0.591370 -0.472537
O10   O     O_2   0.201250 0.182456 0.552951 -0.465914
O11   O     O_3   0.109218 0.205564 0.681499 -0.514323
O12   O     O_3   0.117570 0.450680 0.415600 -0.467760
O13   O     O_3   0.583420 0.609160 0.536870 -0.497231
O14   O     O_2   0.332740 0.278830 0.463690 -0.467319
O15   O     O_3   0.476247 0.248483 0.345423 -0.592789
O16   O     O_2   0.462815 0.465723 0.750960 -0.496053
O17   O     O_3   0.445952 0.294581 0.745751 -0.603473
O18   O     O_3   0.658480 0.614010 0.372860 -0.507068
O19   O     O_2   0.781671 0.582923 0.251297 -0.398013
O20   O     O_3   0.007443 0.301893 0.324094 -0.638756
O21   O     O_3   0.604845 0.708314 0.255572 -0.593169
O22   O     O_2   0.856970 0.721200 0.536350 -0.469184
O23   O     O_3   0.083060 0.660780 0.408640 -0.491880
O24   O     O_2   0.996405 0.818702 0.450767 -0.509530
P1    P     P_3+3 0.032340 0.422550 0.338860 1.028657
P2    P     P_3+3 0.682000 0.708060 0.557320 1.024181
P3    P     P_3+3 0.127486 0.777234 0.409239 0.945976
P4    P     P_3+3 0.157370 0.577530 0.661150 0.986292
P5    P     P_3+3 0.067124 0.222601 0.593229 1.021591
P6    P     P_3+3 0.619291 0.602364 0.280912 1.021772
P7    P     P_3+3 0.510189 0.277671 0.438440 1.004171
P8    P     P_3+3 0.559599 0.392761 0.720949 0.989182
S1    S     S_3+6 0.193788 0.800251 0.824966 -0.049221
O25   O     O_2   0.119771 0.726909 0.865855 -0.279274
O26   O     O_2   0.252794 0.885021 0.876523 -0.207137
O27   O     O_3   0.048009 0.819233 0.765610 -0.564932
H44   H     H_    0.998882 0.868702 0.790183 0.375513
O28   O     O_3   0.797162 0.197494 0.359549 -0.708764
C43   C     C_3   0.872085 0.119837 0.357156 0.207967
H45   H     H_    0.873626 0.083429 0.303114 0.142570
H46   H     H_    0.793543 0.070911 0.384844 0.077064
C44   C     C_3   0.041449 0.140775 0.398070 -0.256171
H47   H     H_    0.070327 0.080130 0.420286 0.049862
H48   H     H_    0.139603 0.163825 0.364247 0.190587
H49   H     H_    0.041471 0.196307 0.441472 0.142975
S2    S     S_3+6 0.957365 0.158428 0.183744 -0.085194
O29   O     O_2   0.876242 0.070509 0.140431 -0.247390
O30   O     O_2   0.028129 0.220707 0.133564 -0.279272
O31   O     O_3   0.110449 0.138860 0.238886 -0.552544
H50   H     H_    0.162604 0.093264 0.210940 0.374458
S3    S     S_3+6 0.546194 0.901560 0.240591 -0.070932
O32   O     O_2   0.606715 0.986370 0.210042 -0.287505
O33   O     O_2   0.465740 0.829836 0.180981 -0.257520
O34   O     O_3   0.409537 0.922329 0.299907 -0.565862
H51   H     H_    0.331903 0.954088 0.275164 0.363116
O35   O     O_3   0.430891 0.214696 0.206584 -0.613456
C45   C     C_3   0.426525 0.206874 0.131058 0.188816
H52   H     H_    0.533586 0.252324 0.114759 0.126314
H53   H     H_    0.312447 0.225110 0.107144 0.134932
C46   C     C_3   0.433514 0.110164 0.099903 -0.181759
H54   H     H_    0.339645 0.061757 0.121438 0.158194
H55   H     H_    0.408630 0.101841 0.040944 0.154518
H56   H     H_    0.557649 0.094404 0.112505 0.176207
S4    S     S_3+6 0.493592 0.130226 0.726502 -0.039536
O36   O     O_2   0.622889 0.074001 0.740627 -0.263751
O37   O     O_2   0.329523 0.084330 0.745707 -0.309893
O38   O     O_3   0.480560 0.141997 0.639417 -0.531635
H57   H     H_    0.403116 0.087840 0.615838 0.343009
S5    S     S_3+6 0.617051 0.169719 0.903768 -0.007940
O39   O     O_2   0.511832 0.078259 0.901702 -0.202503
O40   O     O_2   0.776340 0.158838 0.872581 -0.269159
O41   O     O_3   0.658291 0.218938 0.988912 -0.508571
H58   H     H_    0.724904 0.180050 0.012029 0.396761
S6    S     S_3+6 0.886897 0.432335 0.153455 -0.079969
O42   O     O_2   0.868490 0.349277 0.099590 -0.246633
O43   O     O_2   0.757775 0.414276 0.203998 -0.355657
O44   O     O_3   0.846826 0.517964 0.110290 -0.513101
H59   H     H_    0.745768 0.492701 0.078257 0.358724
O45   O     O_3   0.410373 0.811168 0.662203 -0.694879
C47   C     C_3   0.320965 0.883140 0.665755 0.264290
H60   H     H_    0.403543 0.940736 0.648913 0.122808
H61   H     H_    0.293956 0.906852 0.720619 0.165401
C48   C     C_3   0.166332 0.862520 0.613447 -0.266196
H62   H     H_    0.178355 0.808537 0.570198 0.136765
H63   H     H_    0.055033 0.839377 0.640363 0.178483
H64   H     H_    0.147515 0.924059 0.589928 0.053606

loop_
_geom_bond_atom_site_label_1
_geom_bond_atom_site_label_2
_ccdc_geom_bond_type
C32   P3    S    
C38   H3    S    
C19   C24   A    
C39   C40   S    
C6    H22   S    
S6    O42   D    
S4    O37   D    
C1    H9    S    
C12   H27   S    
O5    P4    S    
C33   C37   A    
O35   C45   S    
C45   C46   S    
O16   P8    D    
C47   H60   S    
C41   H7    S    
Ba1   O8    S    
O34   H51   S    
O7    P4    S    
C7    O17   S    
C38   H2    S    
C10   C11   S    
C47   H61   S    
C35   C36   A    
C29   H38   S    
Ba1   O22   S    
C3    H14   S    
C16   C22   S    
C16   N4    A    
C4    H17   S    
C26   C27   A    
C33   C35   A    
C7    H25   S    
O13   P2    S    
C9    H32   S    
O19   P6    D    
C28   C29   A    
C31   H34   S    
O45   C47   S    
C13   C14   S    
C28   C36   S    
Ba1   Ba2   S    
C23   H19   S    
C46   H56   S    
C35   H36   S    
C48   H62   S    
Ba1   O18   S    
C13   C17   S    
C9    C15   D    
C10   P6    S    
C18   C22   A    
Ba2   O6    S    
C14   C15   D    
C5    O11   S    
C2    H13   S    
C44   H49   S    
C46   H54   S    
O20   P1    S    
O9    P5    S    
Ba1   P1    S    
Ba2   O13   S    
C7    C8    S    
Ba1   O12   S    
C3    O15   S    
C2    O21   S    
Ba2   O9    S    
S6    O43   D    
C40   S2    S    
S3    O34   S    
C1    S3    S    
O2    P2    S    
C47   C48   S    
C2    H1    S    
C34   H43   S    
C38   S1    S    
S2    O31   S    
C24   H33   S    
C3    H15   S    
C32   C37   A    
S5    O41   S    
C30   P7    S    
C20   P8    S    
C45   H52   S    
C26   P5    S    
O4    P4    D    
C16   N1    A    
S5    O40   D    
O38   H57   S    
C43   H46   S    
C41   C42   S    
C27   C28   A    
C17   N2    A    
C4    H16   S    
C5    H21   S    
S2    O30   D    
C42   H12   S    
C29   C30   A    
C27   H35   S    
C34   C38   S    
C14   S6    S    
C21   C22   A    
O24   P3    D    
C45   H53   S    
O15   P7    S    
C23   H41   S    
C31   C32   A    
C18   H30   S    
Ba1   P2    S    
O31   H50   S    
O1    P1    D    
Ba1   O13   S    
O23   P3    S    
C48   H64   S    
C40   H6    S    
O8    P7    S    
O22   P2    D    
C8    H26   S    
O44   H59   S    
C11   H29   S    
Ba2   O8    S    
C6    H24   S    
S6    O44   S    
C11   C13   D    
C20   C24   A    
C44   H47   S    
S3    O33   D    
C33   P2    S    
C43   C44   S    
Ba1   O23   S    
O17   P8    S    
O27   H44   S    
C8    S5    S    
S4    O36   D    
O11   P5    S    
S1    O26   D    
O28   C43   S    
C1    H18   S    
C25   H40   S    
C18   C19   A    
C20   C21   A    
O10   P5    D    
C21   H31   S    
Ba2   O4    S    
C9    C10   S    
Ba1   O1    S    
S2    O29   D    
Ba2   O14   S    
C34   O45   S    
C31   C36   A    
S5    O39   D    
Ba2   O5    S    
C43   H45   S    
C37   H39   S    
O21   P6    S    
C19   P4    S    
C17   N3    A    
C39   O28   S    
C4    O35   S    
O3    P3    S    
C42   H11   S    
O18   P6    S    
N3    N4    A    
C3    C4    S    
Ba2   O12   S    
Ba1   O5    S    
Ba2   P4    S    
C23   H42   S    
C41   O2    S    
C39   H4    S    
O14   P7    D    
O12   P1    S    
C46   H55   S    
C12   C23   S    
C41   H8    S    
C48   H63   S    
C5    H20   S    
O41   H58   S    
C5    C6    S    
C25   C30   A    
C40   H5    S    
C42   H10   S    
N1    N2    A    
C7    S4    S    
C6    H23   S    
O6    P8    S    
C39   O20   S    
S1    O27   S    
C25   C26   A    
C44   H48   S    
S3    O32   D    
C34   O7    S    
C12   H37   S    
C12   O3    S    
C1    C2    S    
C15   P1    S    
S1    O25   D    
S4    O38   S    
C8    H28   S    
