data_mof_unit_16721.cif
_audit_creation_date              2012-12-10T20:51:42-0500
_audit_creation_method            fapswitch 2.2
_symmetry_space_group_name_H-M    P1
_symmetry_Int_Tables_number       1
_space_group_crystal_system       triclinic
_cell_length_a                    8.101912
_cell_length_b                    8.935781
_cell_length_c                    16.960731
_cell_angle_alpha                 89.556967
_cell_angle_beta                  96.020611
_cell_angle_gamma                 90.036142
_cell_volume                      1221.09517233

loop_
_atom_site_label
_atom_site_type_symbol
_atom_type_description
_atom_site_fract_x
_atom_site_fract_y
_atom_site_fract_z
_atom_type_partial_charge
C1    C     C_R   0.499953 0.217972 0.500038 0.937623
C2    C     C_R   0.500047 0.782028 0.499963 0.937661
C3    C     C_R   0.523966 0.496123 0.653589 0.874882
C4    C     C_R   0.476030 0.503844 0.346407 0.874878
C5    C     C_R   0.543394 0.497541 0.739562 -0.043474
C6    C     C_R   0.456581 0.502131 0.260430 -0.043556
C7    C     C_R   0.420568 0.570266 0.776987 -0.277276
C8    C     C_R   0.579568 0.429495 0.223068 -0.277276
C9    C     C_R   0.428845 0.571839 0.858533 -0.162722
C10   C     C_R   0.571207 0.427530 0.141524 -0.162782
C11   C     C_R   0.560001 0.498552 0.904095 0.279930
C12   C     C_R   0.439799 0.500331 0.095893 0.279924
C13   C     C_R   0.685935 0.430504 0.867417 -0.190699
C14   C     C_R   0.313712 0.568269 0.132513 -0.190729
C15   C     C_R   0.679409 0.427747 0.784934 0.157888
C16   C     C_R   0.320309 0.571414 0.214993 0.157976
C17   C     C_1   0.499946 0.065182 0.500016 -0.195958
C18   C     C_1   0.500054 0.934818 0.499986 -0.195952
H1    H     H_    0.682827 0.373863 0.257104 0.173126
H2    H     H_    0.317499 0.626263 0.742996 0.173044
H3    H     H_    0.668408 0.370474 0.114342 0.158630
H4    H     H_    0.331796 0.629008 0.885770 0.158620
H5    H     H_    0.786799 0.375863 0.903708 0.142551
H6    H     H_    0.212673 0.622547 0.096168 0.142543
N1    N     N_1   0.073640 0.500030 0.499990 -0.037033
N2    N     N_1   0.926360 0.499970 0.500010 -0.037031
N3    N     N_2   0.567944 0.488447 0.987118 -0.197370
N4    N     N_2   0.431846 0.510259 0.012863 -0.197344
O1    O     O_R   0.636850 0.285340 0.500000 -0.616711
O2    O     O_R   0.363150 0.714660 0.500000 -0.616697
O3    O     O_R   0.363100 0.285350 0.500000 -0.612325
O4    O     O_R   0.636900 0.714650 0.500000 -0.612318
O5    O     O_R   0.652140 0.498630 0.616140 -0.618321
O6    O     O_R   0.347860 0.501370 0.383860 -0.618315
O7    O     O_R   0.378390 0.498650 0.616130 -0.621732
O8    O     O_R   0.621610 0.501350 0.383870 -0.621766
Zn1   Zn    Zn3+2 0.682780 0.499990 0.500010 0.982067
Zn2   Zn    Zn3+2 0.317220 0.500010 0.499990 0.982080
C19   C     C_3   0.813689 0.345230 0.747720 -0.859978
H7    H     H_    0.899614 0.285925 0.792871 0.228551
H8    H     H_    0.757375 0.260217 0.705675 0.239400
H9    H     H_    0.888829 0.425347 0.716151 0.259010
C20   C     C_3   0.185795 0.653779 0.252116 -0.859975
H10   H     H_    0.099653 0.712683 0.206898 0.228528
H11   H     H_    0.110915 0.573628 0.283804 0.258981
H12   H     H_    0.241852 0.739118 0.294035 0.239446

loop_
_geom_bond_atom_site_label_1
_geom_bond_atom_site_label_2
_ccdc_geom_bond_type
C20   H10   S    
C4    O8    A    
N2    Zn1   S    
C3    O7    A    
N1    Zn2   S    
C2    C18   S    
C20   H11   S    
C1    C17   S    
O3    Zn2   S    
C11   N3    S    
C2    O2    A    
C1    O1    A    
C17   C18   T    
C19   H8    S    
O4    Zn1   S    
C11   C13   A    
C16   C20   S    
C15   C19   S    
C10   C12   A    
C12   N4    S    
C9    C11   A    
C4    C6    S    
O8    Zn1   S    
C12   C14   A    
C19   H9    S    
C14   C16   A    
C13   C15   A    
C10   H3    S    
C20   H12   S    
C4    O6    A    
C9    H4    S    
C5    C15   A    
C8    H1    S    
O1    Zn1   S    
C3    O5    A    
C6    C16   A    
C7    C9    A    
C1    O3    A    
O7    Zn2   S    
C13   H5    S    
C2    O4    A    
C7    H2    S    
C14   H6    S    
C19   H7    S    
C5    C7    A    
C6    C8    A    
O2    Zn2   S    
C3    C5    S    
N1    N2    T    
O6    Zn2   S    
C8    C10   A    
O5    Zn1   S    
N3    N4    D    
