data_mof_unit_51885.cif
_audit_creation_date              2012-12-11T15:10:43-0500
_audit_creation_method            fapswitch 2.2
_symmetry_space_group_name_H-M    P1
_symmetry_Int_Tables_number       1
_space_group_crystal_system       triclinic
_cell_length_a                    21.164867
_cell_length_b                    7.237
_cell_length_c                    18.32323
_cell_angle_alpha                 89.996003
_cell_angle_beta                  93.175742
_cell_angle_gamma                 90.001339
_cell_volume                      2802.26171408

loop_
_atom_site_label
_atom_site_type_symbol
_atom_type_description
_atom_site_fract_x
_atom_site_fract_y
_atom_site_fract_z
_atom_type_partial_charge
O1    O     O_R   0.448880 0.506250 0.415280 -0.533586
O2    O     O_R   0.551120 0.006250 0.584720 -0.533582
O3    O     O_R   0.434830 0.174000 0.557310 -0.527944
O4    O     O_R   0.565170 0.674000 0.442690 -0.527952
C1    C     C_R   0.417472 0.344447 0.580293 0.735499
C2    C     C_R   0.582527 0.844454 0.419707 0.735503
O5    O     O_R   0.441680 0.176440 0.414130 -0.526094
O6    O     O_R   0.558320 0.676440 0.585870 -0.526115
O7    O     O_R   0.558020 0.007570 0.440520 -0.511693
O8    O     O_R   0.441980 0.507570 0.559480 -0.511683
C3    C     C_R   0.427677 0.344987 0.388753 0.809106
C4    C     C_R   0.572323 0.844978 0.611247 0.809205
O9    O     O_3   0.538160 0.339670 0.508820 -0.371791
O10   O     O_3   0.461840 0.839670 0.491180 -0.371778
V1    V     V_3+5 0.492920 0.064260 0.498360 1.451940
V2    V     V_3+5 0.507080 0.564260 0.501640 1.451902
C5    C     C_R   0.879074 0.976190 0.688882 -0.149768
C6    C     C_R   0.120923 0.476166 0.311129 -0.149758
H1    H     H_    0.966060 0.003562 0.753358 0.106109
H2    H     H_    0.033935 0.503461 0.246651 0.106110
H3    H     H_    0.802355 0.969948 0.571583 0.127301
H4    H     H_    0.197648 0.469966 0.428428 0.127292
H5    H     H_    0.902000 0.002452 0.638454 0.113216
H6    H     H_    0.097996 0.502409 0.361561 0.113207
C7    C     C_R   0.888020 0.942168 0.820120 -0.037341
C8    C     C_R   0.111977 0.442137 0.179881 -0.037352
C9    C     C_R   0.583127 0.821069 0.745393 0.178170
C10   C     C_R   0.416876 0.321079 0.254603 0.178194
C11   C     C_R   0.618576 0.820014 0.811887 -0.144112
C12   C     C_R   0.381427 0.320088 0.188108 -0.144048
C13   C     C_R   0.683481 0.849077 0.814846 -0.185029
C14   C     C_R   0.316522 0.349212 0.185152 -0.185043
C15   C     C_R   0.716275 0.880725 0.750989 0.032719
C16   C     C_R   0.283727 0.380819 0.249010 0.032702
C17   C     C_R   0.680540 0.882899 0.681755 0.022936
C18   C     C_R   0.319463 0.382965 0.318244 0.022971
C19   C     C_R   0.783567 0.910286 0.754209 0.083125
C20   C     C_R   0.216434 0.410347 0.245793 0.083127
C21   C     C_R   0.813655 0.943721 0.688284 0.107313
C22   C     C_R   0.186344 0.443747 0.311725 0.107319
C23   C     C_R   0.778700 0.945128 0.621707 -0.242754
C24   C     C_R   0.221301 0.445160 0.378302 -0.242774
C25   C     C_R   0.713517 0.914708 0.617397 0.167165
C26   C     C_R   0.286487 0.414758 0.382603 0.167177
C27   C     C_R   0.822509 0.908740 0.820397 -0.202470
C28   C     C_R   0.177491 0.408779 0.179601 -0.202453
C29   C     C_R   0.915749 0.976511 0.754205 -0.164706
C30   C     C_R   0.084247 0.476450 0.245802 -0.164703
C31   C     C_R   0.613268 0.851987 0.679800 -0.099580
C32   C     C_R   0.386733 0.352025 0.320199 -0.099625
H7    H     H_    0.803769 0.884038 0.872971 0.092372
H8    H     H_    0.196231 0.384093 0.127021 0.092361
H9    H     H_    0.706595 0.846104 0.868634 0.120473
H10   H     H_    0.293409 0.346293 0.131365 0.120478
H11   H     H_    0.595642 0.796534 0.862470 0.117411
H12   H     H_    0.404359 0.296579 0.137523 0.117399
C33   C     C_1   0.864463 0.938920 0.132015 -0.208936
C34   C     C_1   0.135539 0.438938 0.867986 -0.208937
C35   C     C_1   0.821535 0.924850 0.175676 -0.003242
C36   C     C_1   0.178467 0.424865 0.824325 -0.003238
C37   C     C_1   0.770861 0.905703 0.227652 -0.004276
C38   C     C_1   0.229140 0.405707 0.772349 -0.004277
C39   C     C_1   0.728193 0.889039 0.271513 -0.003127
C40   C     C_1   0.271807 0.389033 0.728488 -0.003128
C41   C     C_1   0.677534 0.869871 0.323497 -0.003195
C42   C     C_1   0.322466 0.369855 0.676504 -0.003193
C43   C     C_1   0.634656 0.855785 0.367206 -0.204042
C44   C     C_1   0.365344 0.355766 0.632794 -0.204054
O11   O     O_R   0.058070 0.289240 0.940580 -0.520173
O12   O     O_R   0.941930 0.789240 0.059420 -0.520178
O13   O     O_R   0.058330 0.616740 0.085880 -0.532880
O14   O     O_R   0.941670 0.116740 0.914120 -0.532887
C45   C     C_R   0.071974 0.448695 0.111464 0.683655
C46   C     C_R   0.928024 0.948704 0.888537 0.683651
O15   O     O_R   0.065180 0.619040 0.942700 -0.522462
O16   O     O_R   0.934820 0.119040 0.057300 -0.522459
O17   O     O_R   0.948870 0.787780 0.915270 -0.530394
O18   O     O_R   0.051130 0.287780 0.084730 -0.530402
C47   C     C_R   0.083209 0.450326 0.920222 0.705194
C48   C     C_R   0.916792 0.950319 0.079779 0.705196
O19   O     O_3   0.961870 0.453310 0.991210 -0.365873
O20   O     O_3   0.038130 0.953310 0.008790 -0.365872
V3    V     V_3+5 0.007070 0.728770 0.001630 1.416257
V4    V     V_3+5 0.992930 0.228770 0.998370 1.416254
N1    N     N_3   0.515904 0.789720 0.743869 -0.676393
H13   H     H_    0.493590 0.914312 0.729309 0.215270
H14   H     H_    0.501630 0.755971 0.795955 0.227288
N2    N     N_3   0.484097 0.289592 0.256128 -0.676339
H15   H     H_    0.506439 0.414067 0.270790 0.215222
H16   H     H_    0.498376 0.256104 0.204028 0.227290
N3    N     N_3   0.681822 0.916403 0.546415 -0.690595
H17   H     H_    0.702383 0.815142 0.514626 0.218515
H18   H     H_    0.689393 0.045028 0.522368 0.231372
N4    N     N_3   0.318188 0.416488 0.453578 -0.690512
H19   H     H_    0.310619 0.545145 0.477603 0.231363
H20   H     H_    0.297615 0.315265 0.485393 0.218474

loop_
_geom_bond_atom_site_label_1
_geom_bond_atom_site_label_2
_ccdc_geom_bond_type
C42   C44   T    
C39   C41   S    
C9    C11   A    
O1    C3    A    
O2    C4    A    
O16   V4    S    
C2    O7    A    
C4    C31   S    
O3    V1    S    
C21   C23   A    
N1    H13   S    
O5    C3    A    
C5    H5    S    
C6    H6    S    
C20   C22   A    
H1    C29   S    
C33   C35   T    
O17   V3    S    
C34   C36   T    
C28   H8    S    
C8    C45   S    
C36   C38   S    
C7    C46   S    
C5    C21   A    
C9    N1    S    
C6    C22   A    
C38   C40   T    
C10   C32   A    
C41   C43   T    
C46   O17   A    
C10   N2    S    
C45   O18   A    
C13   C15   A    
C17   C25   A    
C7    C29   A    
C8    C30   A    
O5    V1    S    
O6    V2    S    
C23   C25   A    
C33   C48   S    
C24   C26   A    
C1    C44   S    
C14   H10   S    
O13   V3    S    
N1    H14   S    
C35   C37   S    
O12   C48   A    
O16   C48   A    
C26   N4    S    
O14   C46   A    
N3    H17   S    
O13   C45   A    
C11   H11   S    
C12   H12   S    
C25   N3    S    
C14   C16   A    
O4    V2    S    
C17   C31   A    
O12   V3    S    
N3    H18   S    
O6    C4    A    
C37   C39   T    
O1    V2    S    
O14   V4    S    
C13   H9    S    
N4    H20   S    
O2    V1    S    
H2    C30   S    
C34   C47   S    
H3    C23   S    
O4    C2    A    
C2    C43   S    
N2    H16   S    
O11   C47   A    
C19   C27   A    
C7    C27   A    
O19   V4    S    
C18   C32   A    
C16   C20   A    
C5    C29   A    
O3    C1    A    
C6    C30   A    
C10   C12   A    
O7    V1    S    
C1    O8    A    
C19   C21   A    
O11   V4    S    
O8    V2    S    
C12   C14   A    
O15   V3    S    
H4    C24   S    
C22   C24   A    
C15   C17   A    
C16   C18   A    
N4    H19   S    
C15   C19   A    
C20   C28   A    
C18   C26   A    
C8    C28   A    
O18   V4    S    
N2    H15   S    
C11   C13   A    
O20   V3    S    
O9    V2    S    
C3    C32   S    
C27   H7    S    
O10   V1    S    
O15   C47   A    
C9    C31   A    
C40   C42   S    
