data_mof_unit_19192.cif
_audit_creation_date              2012-12-10T16:54:57-0500
_audit_creation_method            fapswitch 2.2
_symmetry_space_group_name_H-M    P1
_symmetry_Int_Tables_number       1
_space_group_crystal_system       triclinic
_cell_length_a                    7.772584
_cell_length_b                    8.578231
_cell_length_c                    15.718352
_cell_angle_alpha                 90.835014
_cell_angle_beta                  85.861464
_cell_angle_gamma                 93.629686
_cell_volume                      1043.13922575

loop_
_atom_site_label
_atom_site_type_symbol
_atom_type_description
_atom_site_fract_x
_atom_site_fract_y
_atom_site_fract_z
_atom_type_partial_charge
C1    C     C_R   0.545764 0.794723 0.497803 0.961568
C2    C     C_3   0.350934 0.604783 0.053294 0.299405
C3    C     C_3   0.495326 0.504355 0.082744 0.286438
C4    C     C_3   0.464309 0.334870 0.049238 -0.475057
C5    C     C_3   0.469375 0.333586 0.950958 -0.407394
C6    C     C_1   0.493135 0.502998 0.174328 -0.116902
C7    C     C_1   0.506344 0.500950 0.825744 -0.104092
C8    C     C_1   0.506202 0.500250 0.750374 -0.179364
C9    C     C_2   0.569847 0.958198 0.496544 -0.378600
C10   C     C_2   0.430150 0.041800 0.503416 -0.379550
C11   C     C_R   0.502027 0.500030 0.661601 0.903806
C12   C     C_R   0.454235 0.205276 0.502181 0.961578
C13   C     C_R   0.497971 0.500049 0.338403 0.907768
C14   C     C_3   0.356342 0.602951 0.954643 -0.356110
C15   C     C_3   0.677697 0.571590 0.946628 -0.399193
C16   C     C_3   0.674123 0.571221 0.044888 -0.351543
C17   C     C_1   0.493882 0.501603 0.249652 -0.177214
C18   C     C_3   0.502768 0.502208 0.917307 0.278770
H1    H     H_    0.229535 0.554791 0.933802 0.120799
H2    H     H_    0.221894 0.552898 0.078210 0.066993
H3    H     H_    0.565043 0.260186 0.070292 0.201404
H4    H     H_    0.701798 0.009229 0.489987 0.180769
H5    H     H_    0.298198 0.990768 0.509969 0.180597
H6    H     H_    0.013409 0.381952 0.436576 0.192348
H7    H     H_    0.986592 0.618051 0.563423 0.192087
H8    H     H_    0.376996 0.724024 0.929604 0.200040
H9    H     H_    0.785044 0.501932 0.919457 0.169152
H10   H     H_    0.703409 0.693327 0.923259 0.178228
H11   H     H_    0.701629 0.692249 0.068955 0.205685
H12   H     H_    0.778063 0.499250 0.065059 0.155900
H13   H     H_    0.344426 0.281342 0.929961 0.176951
H14   H     H_    0.573180 0.259124 0.924621 0.187068
H15   H     H_    0.336678 0.283768 0.075687 0.177905
N1    N     N_2   0.950340 0.457950 0.477370 -0.173334
N2    N     N_2   0.049660 0.542050 0.522630 -0.173302
O1    O     O_R   0.389240 0.738570 0.505550 -0.613096
O2    O     O_R   0.678400 0.711630 0.491050 -0.630785
O3    O     O_R   0.355360 0.513470 0.630110 -0.613033
O4    O     O_R   0.644510 0.486530 0.615610 -0.621937
O5    O     O_R   0.321600 0.288370 0.508950 -0.630824
O6    O     O_R   0.610760 0.261430 0.494450 -0.612847
O7    O     O_R   0.355490 0.513470 0.384390 -0.623857
O8    O     O_R   0.644640 0.486530 0.369890 -0.611771
Zn1   Zn    Zn3+2 0.306930 0.517990 0.509680 0.943908
Zn2   Zn    Zn3+2 0.693070 0.482010 0.490320 0.945144
O9    O     O_3   0.373125 0.759995 0.082752 -0.776142
H16   H     H_    0.317054 0.763830 0.141462 0.331636

loop_
_geom_bond_atom_site_label_1
_geom_bond_atom_site_label_2
_ccdc_geom_bond_type
C12   O5    A    
C11   O3    A    
O3    Zn1   S    
C12   O6    A    
C4    H3    S    
C7    C18   S    
C13   C17   S    
C10   H5    S    
C15   C18   S    
C9    C10   D    
C14   C18   S    
C15   H9    S    
C1    O2    A    
O4    Zn2   S    
C5    H14   S    
C3    C6    S    
C13   O8    A    
C2    C3    S    
C2    H2    S    
C7    C8    T    
N1    Zn2   S    
C14   H8    S    
C11   O4    A    
N2    Zn1   S    
O8    Zn2   S    
C15   H10   S    
O7    Zn1   S    
H7    N2    S    
C8    C11   S    
C10   C12   S    
C13   O7    A    
C2    O9    S    
C2    C14   S    
C9    H4    S    
O1    Zn1   S    
O2    Zn2   S    
C3    C4    S    
O5    Zn1   S    
C1    C9    S    
N1    N2    D    
C6    C17   T    
O6    Zn2   S    
C4    H15   S    
C5    C18   S    
C16   H11   S    
O9    H16   S    
C16   H12   S    
C14   H1    S    
H6    N1    S    
C3    C16   S    
C15   C16   S    
C1    O1    A    
C4    C5    S    
C5    H13   S    
