data_mof_unit_13882.cif
_audit_creation_date              2012-12-10T18:55:21-0500
_audit_creation_method            fapswitch 2.2
_symmetry_space_group_name_H-M    P1
_symmetry_Int_Tables_number       1
_space_group_crystal_system       triclinic
_cell_length_a                    10.704409
_cell_length_b                    9.822794
_cell_length_c                    27.386521
_cell_angle_alpha                 90.131671
_cell_angle_beta                  89.893904
_cell_angle_gamma                 89.984608
_cell_volume                      2879.603476

loop_
_atom_site_label
_atom_site_type_symbol
_atom_type_description
_atom_site_fract_x
_atom_site_fract_y
_atom_site_fract_z
_atom_type_partial_charge
C1    C     C_R   0.260162 0.499854 0.500079 0.931040
C2    C     C_R   0.403792 0.505903 0.879271 -0.074277
C3    C     C_R   0.484252 0.503133 0.353048 -0.247148
C4    C     C_R   0.499655 0.502412 0.648223 -0.155322
C5    C     C_R   0.398858 0.565540 0.980263 -0.002393
C6    C     C_R   0.626801 0.608012 0.030270 -0.000400
C7    C     C_R   0.624432 0.608455 0.978385 0.057736
C8    C     C_R   0.397671 0.614698 0.028797 0.023281
C9    C     C_R   0.511961 0.575529 0.953854 0.072303
C10   C     C_R   0.511115 0.621623 0.054895 0.065991
C11   C     C_R   0.293492 0.504166 0.957503 0.024732
C12   C     C_R   0.739867 0.499822 0.500029 0.940775
C13   C     C_R   0.737999 0.593319 0.058604 0.034323
C14   C     C_R   0.296372 0.475019 0.907296 0.146338
C15   C     C_R   0.733154 0.607914 0.109743 0.150523
C16   C     C_R   0.498431 0.500191 0.405911 0.896259
C17   C     C_R   0.499572 0.500318 0.594447 0.965240
C18   C     C_R   0.288152 0.663089 0.051271 -0.197758
C19   C     C_R   0.728016 0.647755 0.950324 -0.288964
C20   C     C_R   0.064994 0.404546 0.470793 0.020085
C21   C     C_R   0.935024 0.590412 0.531208 0.020829
C22   C     C_R   0.935553 0.404577 0.470772 0.022315
C23   C     C_R   0.507551 0.640668 0.105802 -0.118920
C24   C     C_R   0.064660 0.590458 0.531207 0.024141
C25   C     C_R   0.872307 0.498905 0.500432 -0.071744
C26   C     C_R   0.127777 0.498942 0.500457 -0.074492
C27   C     C_R   0.577339 0.072176 0.530420 -0.065436
C28   C     C_R   0.422605 0.927826 0.469607 -0.054874
C29   C     C_R   0.422652 0.071844 0.469589 -0.060752
C30   C     C_R   0.577268 0.928153 0.530448 -0.063549
C31   C     C_R   0.394323 0.682038 0.180463 0.590791
C32   C     C_R   0.617888 0.566952 0.824438 0.636221
C33   C     C_R   0.606230 0.633351 0.184725 0.640311
C34   C     C_R   0.512444 0.555008 0.902801 -0.133770
C35   C     C_R   0.407071 0.487919 0.828279 0.650702
C36   C     C_R   0.567546 0.467679 0.271913 0.453911
C37   C     C_R   0.452460 0.620119 0.724361 0.353047
C38   C     C_R   0.576340 0.447652 0.322305 -0.003277
C39   C     C_R   0.446515 0.614365 0.673361 -0.036800
C40   C     C_R   0.374396 0.557419 0.332617 -0.009728
C41   C     C_R   0.555320 0.395012 0.674742 -0.036874
C42   C     C_R   0.364886 0.570445 0.281993 0.456849
C43   C     C_R   0.557943 0.400504 0.725930 0.370488
C44   C     C_R   0.473759 0.555241 0.252859 -0.044304
C45   C     C_R   0.393659 0.673994 0.129273 -0.058617
C46   C     C_R   0.507727 0.513408 0.750377 0.101066
C47   C     C_R   0.621437 0.584894 0.875380 -0.019148
C48   C     C_R   0.284907 0.693963 0.100861 0.122484
C49   C     C_R   0.728231 0.635884 0.899591 0.146816
C50   C     C_R   0.618004 0.631252 0.133468 -0.072995
Cl1   Cl    Cl    0.212729 0.552517 0.257552 -0.505973
Cl2   Cl    Cl    0.624857 0.266300 0.759798 -0.554061
Cl3   Cl    Cl    0.390912 0.762038 0.756097 -0.566052
Cl4   Cl    Cl    0.662882 0.365743 0.233529 -0.512965
H1    H     H_    0.639195 0.126996 0.554681 0.142043
H2    H     H_    0.706198 0.277674 0.659322 0.226234
H3    H     H_    0.141880 0.667178 0.148678 0.255991
H4    H     H_    0.177261 0.833357 0.135988 0.251338
H5    H     H_    0.913349 0.619989 0.886044 0.181692
H6    H     H_    0.855086 0.779394 0.881109 0.203923
H7    H     H_    0.429638 0.812966 0.654384 0.234785
H8    H     H_    0.292275 0.727549 0.659316 0.226691
H9    H     H_    0.648960 0.291273 0.361107 0.220093
H10   H     H_    0.728231 0.440561 0.365699 0.189985
H11   H     H_    0.173373 0.318449 0.901874 0.217208
H12   H     H_    0.360758 0.873018 0.445344 0.127200
H13   H     H_    0.111637 0.474660 0.890959 0.193083
H14   H     H_    0.910857 0.662239 0.125615 0.200363
H15   H     H_    0.880795 0.493337 0.131520 0.233656
H16   H     H_    0.117736 0.522560 0.986000 0.173457
H17   H     H_    0.216994 0.422668 0.020278 0.220283
H18   H     H_    0.911818 0.621230 0.029114 0.173787
H19   H     H_    0.835964 0.475787 0.008861 0.214209
H20   H     H_    0.108332 0.325168 0.404057 0.198236
H21   H     H_    0.110303 0.211374 0.450684 0.190110
H22   H     H_    0.890312 0.657448 0.599384 0.195430
H23   H     H_    0.360970 0.126400 0.445266 0.144048
H24   H     H_    0.889871 0.779920 0.555534 0.186031
H25   H     H_    0.889489 0.211588 0.451059 0.196906
H26   H     H_    0.895147 0.324075 0.404159 0.197512
H27   H     H_    0.109572 0.779998 0.555465 0.193333
H28   H     H_    0.108315 0.657700 0.599363 0.189878
H29   H     H_    0.638910 0.873591 0.554790 0.141895
H30   H     H_    0.204449 0.680382 0.030280 0.156078
H31   H     H_    0.808277 0.694495 0.967075 0.149125
H32   H     H_    0.294234 0.673432 0.385419 0.198638
H33   H     H_    0.245964 0.509251 0.384148 0.189459
H34   H     H_    0.568043 0.192812 0.660661 0.236844
N1    N     N_R   0.490178 0.622762 0.205566 -0.325475
N2    N     N_3   0.681519 0.375524 0.341634 -0.366774
N3    N     N_3   0.189394 0.412301 0.885052 -0.351300
N4    N     N_3   0.845328 0.591047 0.137751 -0.335860
N5    N     N_3   0.189932 0.451087 0.985108 -0.475281
N6    N     N_3   0.852467 0.540920 0.038363 -0.480769
N7    N     N_3   0.133508 0.310702 0.440512 -0.455110
N8    N     N_3   0.866102 0.679053 0.563275 -0.448206
N9    N     N_3   0.867548 0.310868 0.440432 -0.447106
N10   N     N_3   0.133170 0.679136 0.563275 -0.431177
N11   N     N_R   0.511923 0.520381 0.802489 -0.327527
N12   N     N_R   0.500000 0.857200 0.500000 -0.081420
N13   N     N_R   0.500000 0.142800 0.500000 -0.083268
N14   N     N_3   0.268966 0.592909 0.362502 -0.376457
N15   N     N_3   0.611967 0.282597 0.649508 -0.425163
N16   N     N_3   0.167646 0.735667 0.121297 -0.455867
N17   N     N_3   0.837715 0.676925 0.873228 -0.354777
N18   N     N_3   0.384541 0.720829 0.646959 -0.403161
O1    O     O_R   0.316770 0.614620 0.500000 -0.616031
O2    O     O_2   0.718423 0.596332 0.796609 -0.491685
O3    O     O_2   0.306271 0.440773 0.804039 -0.490473
O4    O     O_2   0.707714 0.647516 0.213403 -0.472071
O5    O     O_R   0.683230 0.385380 0.500000 -0.612822
O6    O     O_R   0.683230 0.614620 0.500000 -0.608818
O7    O     O_R   0.316770 0.385380 0.500000 -0.607614
O8    O     O_R   0.500030 0.614650 0.428760 -0.620168
O9    O     O_R   0.499970 0.385350 0.571240 -0.605006
O10   O     O_R   0.499970 0.614650 0.571240 -0.598535
O11   O     O_R   0.500030 0.385350 0.428760 -0.617723
O12   O     O_2   0.309425 0.758708 0.204087 -0.510014
Zn1   Zn    Zn3+2 0.500000 0.653120 0.500000 0.969758
Zn2   Zn    Zn3+2 0.500000 0.346880 0.500000 0.968355

loop_
_geom_bond_atom_site_label_1
_geom_bond_atom_site_label_2
_ccdc_geom_bond_type
C2    C35   A    
C39   N18   S    
C46   N11   S    
C23   C45   A    
H26   N9    S    
H28   N10   S    
H10   N2    S    
C28   N12   A    
H21   N7    S    
C47   C49   A    
H5    N17   S    
C1    O7    A    
C24   N10   S    
C28   C29   A    
C24   C26   A    
C5    C11   A    
H27   N10   S    
C11   C14   A    
C27   H1    S    
C43   Cl2   S    
C33   O4    S    
C4    C41   A    
C48   N16   S    
C30   N12   A    
H11   N3    S    
C15   C50   A    
C30   H29   S    
C15   N4    S    
C3    C38   A    
H24   N8    S    
C31   N1    A    
C22   C25   A    
C18   H30   S    
H15   N4    S    
O8    Zn1   S    
C35   O3    S    
C42   Cl1   S    
H18   N6    S    
C2    C34   A    
C40   C42   A    
C22   N9    S    
C27   C30   A    
C41   C43   A    
C42   C44   A    
H19   N6    S    
C44   N1    S    
C35   N11   A    
O1    Zn1   S    
H16   N5    S    
O11   Zn2   S    
C23   C50   A    
C49   N17   S    
C33   C50   A    
C27   N13   A    
C8    C18   A    
C41   N15   S    
C16   O8    A    
O5    Zn2   S    
C28   H12   S    
C31   O12   S    
C5    C9    A    
C33   N1    A    
C5    C8    A    
O7    Zn2   S    
C19   C49   A    
C4    C39   A    
H13   N3    S    
C13   N6    S    
C29   N13   A    
N12   Zn1   S    
H7    N18   S    
C1    O1    A    
H8    N18   S    
C4    C17   S    
C20   N7    S    
C20   C22   A    
C3    C40   A    
C7    C19   A    
C13   C15   A    
C32   O2    S    
C1    C26   S    
C32   C47   A    
C36   C44   A    
H4    N16   S    
H32   N14   S    
C12   O6    A    
H34   N15   S    
C17   O9    A    
C45   C48   A    
C7    C9    A    
H3    N16   S    
C21   C25   A    
N13   Zn2   S    
H20   N7    S    
H25   N9    S    
H2    N15   S    
C19   H31   S    
C18   C48   A    
C6    C10   A    
O6    Zn1   S    
O10   Zn1   S    
C6    C7    A    
H17   N5    S    
C21   N8    S    
C10   C23   A    
C38   N2    S    
C32   N11   A    
C12   C25   S    
C36   C38   A    
H33   N14   S    
C37   Cl3   S    
C37   C39   A    
C16   O11   A    
H22   N8    S    
C6    C13   A    
C11   N5    S    
C9    C34   A    
C20   C26   A    
H9    N2    S    
H14   N4    S    
C2    C14   A    
C43   C46   A    
C14   N3    S    
C36   Cl4   S    
C3    C16   S    
C40   N14   S    
C29   H23   S    
C8    C10   A    
O9    Zn2   S    
C31   C45   A    
C21   C24   A    
C34   C47   A    
C37   C46   A    
C12   O5    A    
H6    N17   S    
C17   O10   A    
