data_mof_unit_58118.cif
_audit_creation_date              2013-03-05T15:43:02-0500
_audit_creation_method            fapswitch 2.2
_symmetry_space_group_name_H-M    P1
_symmetry_Int_Tables_number       1
_space_group_crystal_system       triclinic
_cell_length_a                    10.857113
_cell_length_b                    10.725169
_cell_length_c                    10.131536
_cell_angle_alpha                 89.508382
_cell_angle_beta                  104.178706
_cell_angle_gamma                 91.572391
_cell_volume                      1143.38785338

loop_
_atom_site_label
_atom_site_type_symbol
_atom_site_description
_atom_site_fract_x
_atom_site_fract_y
_atom_site_fract_z
_atom_type_partial_charge
O1    O     O_R   0.499980 0.319060 0.613030 -0.614004
O2    O     O_R   0.500020 0.319100 0.386910 -0.559417
C1    C     C_R   0.490206 0.263132 0.497764 0.965979
O3    O     O_R   0.317800 0.500000 0.570840 -0.676718
O4    O     O_R   0.317840 0.500040 0.344720 -0.584885
C2    C     C_R   0.259710 0.498948 0.442355 0.878716
Zn1   Zn    Zn3+2 0.499970 0.499970 0.650990 1.065281
Zn2   Zn    Zn3+2 0.500030 0.500030 0.349010 1.097511
O5    O     O_R   0.499980 0.680900 0.613090 -0.572196
O6    O     O_R   0.500020 0.680940 0.386970 -0.561526
O7    O     O_R   0.682160 0.499960 0.655280 -0.569403
O8    O     O_R   0.682200 0.500000 0.429160 -0.559286
C3    C     C_R   0.499008 0.737107 0.498550 0.939473
C4    C     C_R   0.740030 0.498357 0.557551 0.920342
H1    H     H_    0.116627 0.554370 0.597133 0.202233
C5    C     C_2   0.123806 0.481883 0.409235 -0.218363
C6    C     C_2   0.065363 0.503832 0.507152 -0.226855
C7    C     C_2   0.876771 0.504014 0.592016 0.025729
C8    C     C_2   0.937048 0.458868 0.501860 0.241601
H2    H     H_    0.076542 0.439510 0.312806 0.222014
C9    C     C_2   0.427889 0.931028 0.391728 0.021271
C10   C     C_2   0.508512 0.869633 0.493044 -0.026000
C11   C     C_2   0.445883 0.065255 0.378340 0.494351
C12   C     C_2   0.457693 0.132797 0.491447 -0.350226
H3    H     H_    0.445133 0.089232 0.584857 0.149666
C13   C     C_2   0.586441 0.555251 0.949024 0.357020
N1    N     N_2   0.501330 0.501330 0.852460 -0.004218
C14   C     C_2   0.566067 0.577354 0.089193 0.285374
N2    N     N_2   0.501370 0.501360 0.148130 -0.239821
H4    H     H_    0.484552 0.412172 0.112635 0.222287
N3    N     N_R   0.875255 0.369648 0.399336 0.210164
O9    O     O_R   0.848766 0.400385 0.271122 -0.347044
O10   O     O_R   0.827985 0.265761 0.435573 -0.355965
O11   O     O_3   0.446998 0.397969 0.892660 -0.622365
C15   C     C_3   0.317493 0.392252 0.825029 0.183750
H5    H     H_    0.304917 0.337595 0.730021 0.189332
H6    H     H_    0.276635 0.486650 0.803919 0.187943
C16   C     C_3   0.243595 0.322924 0.914000 -0.743110
H7    H     H_    0.250007 0.375469 0.009526 0.268578
H8    H     H_    0.142170 0.312399 0.858567 0.261665
H9    H     H_    0.281690 0.228430 0.939415 0.258030
N4    N     N_R   0.618189 0.691115 0.156015 0.245096
O12   O     O_R   0.600997 0.795202 0.088103 -0.384108
O13   O     O_R   0.707126 0.687451 0.268079 -0.296291
N5    N     N_R   0.941061 0.578476 0.707035 0.207162
O14   O     O_R   0.901780 0.689534 0.723007 -0.241444
O15   O     O_R   0.028025 0.529843 0.803843 -0.383694
N6    N     N_R   0.317097 0.871713 0.305181 0.208957
O16   O     O_R   0.205538 0.913102 0.304837 -0.306154
O17   O     O_R   0.328326 0.800019 0.206102 -0.333837
N7    N     N_R   0.619669 0.929377 0.578292 0.201138
O18   O     O_R   0.633126 0.934712 0.709202 -0.284352
O19   O     O_R   0.707421 0.978344 0.525116 -0.314862
O20   O     O_3   0.448229 0.121121 0.254134 -0.599321
C17   C     C_3   0.520704 0.051880 0.183535 0.159375
H10   H     H_    0.458172 0.981063 0.118618 0.222281
H11   H     H_    0.602200 0.005160 0.253231 0.209372
C18   C     C_3   0.576127 0.138863 0.092411 -0.645546
H12   H     H_    0.634390 0.214428 0.154044 0.282374
H13   H     H_    0.637176 0.085796 0.040720 0.262420
H14   H     H_    0.498762 0.180416 0.013828 0.253096
N8    N     N_R   0.695526 0.615086 0.918256 0.228283
O21   O     O_R   0.807573 0.594167 0.995860 -0.264779
O22   O     O_R   0.681698 0.709623 0.835788 -0.242070

loop_
_geom_bond_atom_site_label_1
_geom_bond_atom_site_label_2
_geom_bond_distance
_ccdc_geom_bond_type
O4    Zn2   1.967865 S    
C16   H8    1.109972 S    
C11   C12   1.338492 D    
N3    O10   1.301368 A    
H1    C6    1.085375 S    
N2    H4    1.020694 S    
C4    C7    1.439151 S    
C13   C14   1.511437 S    
C15   H5    1.108938 S    
C5    H2    1.083306 S    
Zn2   O8    1.945375 S    
C9    N6    1.439225 S    
C8    N3    1.443992 S    
C18   H14   1.106741 S    
N6    O17   1.300817 A    
O2    C1    1.294841 A    
C13   N8    1.430874 S    
Zn1   N1    2.037810 S    
O1    Zn1   1.981282 S    
N5    O14   1.300708 A    
Zn1   O7    1.967865 S    
C13   N1    1.297299 D    
N8    O21   1.300693 A    
N4    O13   1.298944 A    
C16   H9    1.109436 S    
O3    Zn1   1.945375 S    
Zn2   N2    2.038761 S    
C14   N4    1.433813 S    
C14   N2    1.296138 D    
C15   H6    1.114453 S    
O8    C4    1.298736 A    
C3    C10   1.423886 S    
O11   C15   1.405078 S    
C17   H11   1.115691 S    
N1    O11   1.347892 S    
C10   N7    1.438558 S    
O4    C2    1.296991 A    
O7    C4    1.296563 A    
C17   H10   1.109906 S    
C17   C18   1.520300 S    
N4    O12   1.299939 A    
N7    O19   1.301115 A    
C18   H13   1.110582 S    
N7    O18   1.299862 A    
C7    N5    1.438700 S    
C15   C16   1.522891 S    
C16   H7    1.110552 S    
C12   H3    1.088437 S    
C11   O20   1.394690 S    
O3    C2    1.300044 A    
C7    C8    1.347183 D    
N5    O15   1.300037 A    
Zn1   O5    1.974899 S    
O5    C3    1.300979 A    
O20   C17   1.413919 S    
N6    O16   1.300577 A    
N8    O22   1.296555 A    
C6    C8    1.450253 S    
C18   H12   1.110832 S    
C9    C10   1.353993 D    
C2    C5    1.437684 S    
C9    C11   1.457130 S    
Zn2   O6    1.981282 S    
O2    Zn2   1.974898 S    
N3    O9    1.301393 A    
C1    C12   1.430421 S    
C5    C6    1.327698 D    
O1    C1    1.297190 A    
O6    C3    1.288068 A    
