data_mof_unit_51815.cif
_audit_creation_date              2012-12-11T14:58:03-0500
_audit_creation_method            fapswitch 2.2
_symmetry_space_group_name_H-M    P1
_symmetry_Int_Tables_number       1
_space_group_crystal_system       triclinic
_cell_length_a                    6.939436
_cell_length_b                    16.663337
_cell_length_c                    17.143118
_cell_angle_alpha                 100.365864
_cell_angle_beta                  90.50307
_cell_angle_gamma                 90.355257
_cell_volume                      1949.83998952

loop_
_atom_site_label
_atom_site_type_symbol
_atom_type_description
_atom_site_fract_x
_atom_site_fract_y
_atom_site_fract_z
_atom_type_partial_charge
O1    O     O_R   0.506180 0.438940 0.579430 -0.541191
O2    O     O_R   0.170520 0.406230 0.413590 -0.537367
O3    O     O_R   0.005180 0.561060 0.420570 -0.544757
C1    C     C_R   0.339312 0.382020 0.386013 0.783699
O4    O     O_R   0.176140 0.429310 0.578370 -0.535370
O5    O     O_R   0.010830 0.584300 0.586530 -0.539122
C2    C     C_R   0.343865 0.415607 0.606839 0.730697
O6    O     O_R   0.500520 0.415700 0.413470 -0.528877
O7    O     O_3   0.340830 0.550820 0.502480 -0.372688
V1    V     V_3+5 0.064040 0.490570 0.499540 1.425333
O8    O     O_R   0.681400 0.593770 0.586410 -0.539680
C3    C     C_R   0.851089 0.616224 0.615106 0.689459
O9    O     O_R   0.675790 0.570690 0.421630 -0.545016
C4    C     C_R   0.842540 0.585895 0.394436 0.717741
V2    V     V_3+5 0.564650 0.509430 0.500460 1.417445
O10   O     O_3   0.837730 0.449180 0.497520 -0.367277
C5    C     C_R   0.927288 0.859479 0.165427 -0.110298
C6    C     C_R   0.838469 0.637037 0.331547 -0.087669
C7    C     C_R   0.648856 0.689158 0.228696 0.424987
C8    C     C_R   0.671501 0.635892 0.283994 -0.261522
C9    C     C_R   0.987146 0.691862 0.323256 -0.250846
C10   C     C_R   0.966313 0.747094 0.270497 0.083878
C11   C     C_R   0.796256 0.746728 0.223645 0.078658
C12   C     C_R   0.777968 0.803767 0.171789 -0.200753
C13   C     C_R   0.093847 0.858857 0.212878 -0.144533
C14   C     C_R   0.112789 0.803780 0.264812 -0.117645
H1    H     H_    0.651103 0.803416 0.134477 0.166776
H2    H     H_    0.211787 0.900919 0.209313 0.127469
H3    H     H_    0.243449 0.805120 0.300154 0.127610
H4    H     H_    0.557158 0.593861 0.291894 0.124211
H5    H     H_    0.115581 0.693798 0.360060 0.126170
C15   C     C_R   0.066444 0.897367 0.731171 -0.194164
C16   C     C_R   0.122627 0.909530 0.655773 0.241899
C17   C     C_R   0.107875 0.845195 0.591714 -0.128063
C18   C     C_R   0.028927 0.770656 0.601345 -0.195837
C19   C     C_R   0.960246 0.758418 0.675850 0.069901
C20   C     C_R   0.979916 0.822988 0.742261 0.020552
C21   C     C_R   0.864475 0.684838 0.683812 -0.155131
C22   C     C_R   0.779718 0.677511 0.757304 0.071977
C23   C     C_R   0.796460 0.742550 0.823391 0.009684
C24   C     C_R   0.901016 0.814507 0.816585 -0.162838
C25   C     C_R   0.678509 0.605883 0.766720 -0.237511
C26   C     C_R   0.584264 0.600808 0.837103 -0.186557
C27   C     C_R   0.591030 0.665861 0.900615 0.501461
C28   C     C_R   0.706437 0.734054 0.895330 -0.242741
H6    H     H_    0.079251 0.948586 0.779603 0.135533
H7    H     H_    0.152811 0.853673 0.533367 0.123441
H8    H     H_    0.015175 0.724141 0.548735 0.118175
H9    H     H_    0.668220 0.553280 0.719652 0.135559
H10   H     H_    0.502709 0.546282 0.841815 0.137377
H11   H     H_    0.722548 0.780089 0.948077 0.117979
C29   C     C_R   0.494326 0.218061 0.403433 0.194296
C30   C     C_R   0.585584 0.144641 0.409514 -0.151451
C31   C     C_R   0.620710 0.086780 0.342757 -0.160897
C32   C     C_R   0.564052 0.100787 0.268730 -0.155765
C33   C     C_R   0.474340 0.174629 0.259299 0.023545
C34   C     C_R   0.440832 0.236063 0.327708 0.078139
C35   C     C_R   0.414032 0.186221 0.182994 -0.154387
C36   C     C_R   0.321469 0.259787 0.174250 0.079474
C37   C     C_R   0.290930 0.322202 0.241384 -0.021678
C38   C     C_R   0.352018 0.311439 0.318258 -0.160882
C39   C     C_R   0.262203 0.273300 0.098583 -0.203004
C40   C     C_R   0.171296 0.345246 0.089113 -0.219828
C41   C     C_R   0.135723 0.406487 0.155154 0.503107
C42   C     C_R   0.201182 0.395366 0.229705 -0.224775
H12   H     H_    0.626998 0.131987 0.467157 0.125111
H13   H     H_    0.689665 0.029979 0.348485 0.128389
H14   H     H_    0.591227 0.052348 0.219148 0.123293
H15   H     H_    0.287830 0.228852 0.045469 0.119176
H16   H     H_    0.132276 0.353069 0.029745 0.119429
H17   H     H_    0.178288 0.445230 0.278479 0.125614
C43   C     C_R   0.422961 0.137293 0.831741 -0.197074
C44   C     C_R   0.343349 0.364602 0.670063 -0.103818
C45   C     C_R   0.167150 0.314215 0.774559 -0.148343
C46   C     C_R   0.183581 0.367544 0.720558 -0.148748
C47   C     C_R   0.489012 0.307734 0.676084 -0.196072
C48   C     C_R   0.468299 0.250113 0.727023 0.097992
C49   C     C_R   0.306416 0.254221 0.777437 0.098766
C50   C     C_R   0.286370 0.198794 0.830190 -0.325134
C51   C     C_R   0.574991 0.128731 0.776146 0.416157
C52   C     C_R   0.602330 0.186836 0.726595 0.096826
H18   H     H_    0.167425 0.204819 0.871379 0.154168
H19   H     H_    0.042267 0.318448 0.812566 0.116885
H20   H     H_    0.069527 0.411098 0.717847 0.122020
H21   H     H_    0.613768 0.306047 0.638532 0.156195
O11   O     O_R   0.265840 0.084300 0.086750 -0.535070
O12   O     O_R   0.589750 0.070740 0.921690 -0.512470
O13   O     O_R   0.755020 0.915730 0.913400 -0.531803
C53   C     C_R   0.421738 0.086309 0.894900 0.744723
O14   O     O_R   0.595830 0.093740 0.086480 -0.540991
O15   O     O_R   0.761150 0.938890 0.079360 -0.547347
C54   C     C_R   0.427083 0.117684 0.113943 0.688538
O16   O     O_R   0.259710 0.061140 0.920790 -0.543167
O17   O     O_3   0.425260 0.949200 0.997610 -0.382022
V3    V     V_3+5 0.702060 0.009430 0.000450 1.442109
O18   O     O_R   0.090530 0.929220 0.078150 -0.543374
C55   C     C_R   0.923699 0.913086 0.104654 0.689668
O19   O     O_R   0.084440 0.906220 0.913360 -0.546937
C56   C     C_R   0.914593 0.883217 0.885243 0.711741
V4    V     V_3+5 0.201450 0.990520 0.999290 1.399590
O20   O     O_3   0.928380 0.050800 0.002390 -0.359152
O21   O     O_3   0.052423 0.481056 0.149786 -0.571753
C57   C     C_3   0.898838 0.472630 0.094360 -0.272895
H22   H     H_    0.802519 0.420094 0.099412 0.138938
H23   H     H_    0.954195 0.467846 0.033126 0.146011
H24   H     H_    0.810541 0.528651 0.106592 0.179315
N1    N     N_3   0.452775 0.272219 0.475496 -0.679967
H25   H     H_    0.369554 0.240745 0.510898 0.221800
H26   H     H_    0.584275 0.288266 0.504362 0.232935
O22   O     O_3   0.701755 0.064218 0.770813 -0.556789
C58   C     C_3   0.611190 0.994709 0.725866 -0.228987
H27   H     H_    0.710564 0.942747 0.719897 0.164270
H28   H     H_    0.575490 0.004372 0.664857 0.157598
H29   H     H_    0.480908 0.976402 0.755831 0.135005
N2    N     N_3   0.764532 0.180323 0.674519 -0.682550
H30   H     H_    0.755391 0.124462 0.635511 0.238002
H31   H     H_    0.890126 0.180349 0.708651 0.259077
O23   O     O_3   0.482068 0.691818 0.182868 -0.570010
C59   C     C_3   0.377955 0.617516 0.168263 -0.146446
H32   H     H_    0.292704 0.610036 0.221021 0.151809
H33   H     H_    0.473190 0.564284 0.149017 0.125762
H34   H     H_    0.273213 0.619274 0.119495 0.191289
O24   O     O_3   0.490859 0.659775 0.968865 -0.559044
C60   C     C_3   0.355042 0.723446 0.984200 -0.183484
H35   H     H_    0.272281 0.730931 0.929935 0.118009
H36   H     H_    0.426076 0.781829 0.011322 0.142773
H37   H     H_    0.248896 0.708554 0.027446 0.161848
N3    N     N_3   0.188456 0.987844 0.642714 -0.697004
H38   H     H_    0.089139 0.008448 0.604692 0.231510
H39   H     H_    0.186317 0.030335 0.695623 0.231997

loop_
_geom_bond_atom_site_label_1
_geom_bond_atom_site_label_2
_ccdc_geom_bond_type
C32   C33   A    
C6    C9    A    
C44   C46   A    
C4    C6    S    
O2    C1    A    
C7    C8    A    
C12   H1    S    
C45   H19   S    
C1    O6    A    
N3    H38   S    
C32   H14   S    
O24   C60   S    
C2    C44   S    
C8    H4    S    
C30   C31   A    
C29   C30   A    
C13   H2    S    
C41   O21   S    
C9    H5    S    
C19   C20   A    
C43   C50   A    
O5    C3    A    
C21   C22   A    
C46   H20   S    
C28   H11   S    
V2    O10   S    
C33   C34   A    
C17   C18   A    
O23   C59   S    
O22   C58   S    
O8    V2    S    
O11   C54   A    
C58   H27   S    
C7    O23   S    
N2    H31   S    
O12   V3    S    
N1    H25   S    
C24   C56   S    
O1    V2    S    
O17   V4    S    
C58   H29   S    
O11   V4    S    
O7    V1    S    
O13   V3    S    
C36   C37   A    
O9    C4    A    
C3    C21   S    
N1    H26   S    
O17   V3    S    
C18   H8    S    
C22   C25   A    
C59   H33   S    
C23   C28   A    
C5    C12   A    
C45   C46   A    
O8    C3    A    
O14   V3    S    
C47   C48   A    
C29   N1    S    
C58   H28   S    
C22   C23   A    
O4    C2    A    
C49   C50   A    
C31   H13   S    
C35   C36   A    
C48   C49   A    
C1    C38   S    
C16   N3    S    
C39   H15   S    
C37   C38   A    
C18   C19   A    
C7    C11   A    
C26   C27   A    
C39   C40   A    
O14   C54   A    
C40   H16   S    
C48   C52   A    
C11   C12   A    
O18   C55   A    
C52   N2    S    
C16   C17   A    
C57   H23   S    
C15   C20   A    
O15   C55   A    
C30   H12   S    
O16   V4    S    
O3    C4    A    
C60   H37   S    
C23   C24   A    
C37   C42   A    
O6    V2    S    
O19   V4    S    
O9    V2    S    
C10   C14   A    
C44   C47   A    
C25   C26   A    
O2    V1    S    
C27   C28   A    
C60   H36   S    
C59   H34   S    
C31   C32   A    
C36   C39   A    
C53   O16   A    
O1    C2    A    
C15   H6    S    
C51   C52   A    
N3    H39   S    
O5    V1    S    
C50   H18   S    
C59   H32   S    
C26   H10   S    
C34   C38   A    
C27   O24   S    
C5    C13   A    
C41   C42   A    
C19   C21   A    
C13   C14   A    
O4    V1    S    
C43   C51   A    
O3    V1    S    
C42   H17   S    
C15   C16   A    
C43   C53   S    
C35   C54   S    
O18   V4    S    
V4    O20   S    
C33   C35   A    
C57   H24   S    
C6    C8    A    
C20   C24   A    
O21   C57   S    
O13   C56   A    
C29   C34   A    
C25   H9    S    
O15   V3    S    
C40   C41   A    
V3    O20   S    
C14   H3    S    
O19   C56   A    
C45   C49   A    
C51   O22   S    
C57   H22   S    
O12   C53   A    
C10   C11   A    
V1    O10   S    
C17   H7    S    
C9    C10   A    
C5    C55   S    
C47   H21   S    
N2    H30   S    
O7    V2    S    
C60   H35   S    
