data_mof_unit_57329.cif
_audit_creation_date              2012-12-11T20:50:57-0500
_audit_creation_method            fapswitch 2.2
_symmetry_space_group_name_H-M    P1
_symmetry_Int_Tables_number       1
_space_group_crystal_system       triclinic
_cell_length_a                    30.477659
_cell_length_b                    34.076455
_cell_length_c                    8.529854
_cell_angle_alpha                 90.000565
_cell_angle_beta                  90.190227
_cell_angle_gamma                 89.723396
_cell_volume                      8858.703319

loop_
_atom_site_label
_atom_site_type_symbol
_atom_type_description
_atom_site_fract_x
_atom_site_fract_y
_atom_site_fract_z
_atom_type_partial_charge
Ba1   Ba    Ba6+2 0.999930 0.472870 0.844940 1.662483
Ba2   Ba    Ba6+2 0.999930 0.527130 0.344940 1.669074
Ba3   Ba    Ba6+2 0.499930 0.972870 0.844940 1.664366
Ba4   Ba    Ba6+2 0.499930 0.027130 0.344940 1.669242
C1    C     C_3   0.992545 0.276632 0.517667 -0.368972
C2    C     C_3   0.977561 0.722736 0.994610 -0.372868
C3    C     C_3   0.491643 0.776833 0.515190 -0.363540
C4    C     C_3   0.477702 0.223908 0.002893 -0.370346
C5    C     C_R   0.214731 0.711960 0.179518 -0.028148
C6    C     C_R   0.250569 0.304756 0.532300 -0.018785
C7    C     C_R   0.722240 0.208334 0.174253 -0.023518
C8    C     C_R   0.749886 0.804575 0.535751 -0.018401
C9    C     C_R   0.179389 0.687242 0.139599 0.615258
C10   C     C_R   0.218823 0.333067 0.486161 0.581190
C11   C     C_R   0.685228 0.184509 0.150407 0.625532
C12   C     C_R   0.718255 0.832890 0.488855 0.580811
C13   C     C_R   0.185217 0.706520 0.870343 0.586228
C14   C     C_R   0.163828 0.283106 0.470567 0.580561
C15   C     C_R   0.662450 0.222928 0.933398 0.587613
C16   C     C_R   0.663410 0.782860 0.469625 0.580939
C17   C     C_R   0.214058 0.737202 0.913713 -0.041708
C18   C     C_R   0.194830 0.254146 0.515760 -0.035542
C19   C     C_R   0.694591 0.251554 0.972168 -0.036442
C20   C     C_R   0.694388 0.753845 0.514510 -0.035710
C21   C     C_R   0.230616 0.738405 0.067242 -0.056259
C22   C     C_R   0.238326 0.265047 0.548259 -0.054834
C23   C     C_R   0.726253 0.242926 0.086919 -0.058583
C24   C     C_R   0.737720 0.764794 0.549560 -0.054961
C25   C     C_R   0.234398 0.711105 0.329120 -0.060322
C26   C     C_R   0.294292 0.315280 0.563362 -0.078571
C27   C     C_R   0.754310 0.199100 0.287382 -0.073832
C28   C     C_R   0.793418 0.815172 0.569670 -0.079183
C29   C     C_R   0.790685 0.223377 0.308561 -0.071408
C30   C     C_R   0.824100 0.787040 0.617759 -0.075905
C31   C     C_R   0.270396 0.735064 0.363007 -0.079825
C32   C     C_R   0.325094 0.287148 0.610614 -0.075287
C33   C     C_R   0.793681 0.259379 0.228236 -0.012531
C34   C     C_R   0.812408 0.747264 0.632754 -0.010897
C35   C     C_R   0.284715 0.763238 0.253846 -0.014359
C36   C     C_R   0.313312 0.247455 0.627941 -0.012164
C37   C     C_R   0.760205 0.270014 0.122438 -0.087739
C38   C     C_R   0.769068 0.735911 0.597647 -0.088499
C39   C     C_R   0.263058 0.766269 0.109317 -0.086319
C40   C     C_R   0.269753 0.236183 0.595930 -0.088444
C41   C     C_R   0.227583 0.766138 0.806654 -0.111919
C42   C     C_R   0.183010 0.214504 0.530246 -0.108863
C43   C     C_R   0.695745 0.288590 0.899316 -0.103209
C44   C     C_R   0.682712 0.714105 0.526179 -0.108556
C45   C     C_3   0.012400 0.310654 0.111463 0.462000
C46   C     C_3   0.012894 0.689358 0.587966 0.496002
C47   C     C_3   0.511960 0.810794 0.111045 0.464038
C48   C     C_3   0.517029 0.190531 0.598675 0.461431
C49   C     C_R   0.727237 0.316846 0.941774 0.149899
C50   C     C_R   0.713160 0.685348 0.573527 0.149189
C51   C     C_R   0.255790 0.796679 0.853344 0.158133
C52   C     C_R   0.213495 0.185785 0.577583 0.149272
C53   C     C_R   0.760018 0.307770 0.055350 -0.010328
C54   C     C_R   0.757009 0.695957 0.610919 -0.016536
C55   C     C_R   0.273876 0.796947 0.007105 -0.005483
C56   C     C_R   0.257555 0.196324 0.611838 -0.016207
C57   C     C_R   0.791613 0.335477 0.108677 0.604835
C58   C     C_R   0.789175 0.668070 0.661116 0.603952
C59   C     C_R   0.301133 0.827542 0.064785 0.610689
C60   C     C_R   0.289776 0.168470 0.661779 0.603115
C61   C     C_R   0.829248 0.285011 0.252450 0.576052
C62   C     C_R   0.843328 0.718755 0.681635 0.578152
C63   C     C_R   0.321182 0.787538 0.283595 0.570982
C64   C     C_R   0.344329 0.218938 0.676147 0.580912
C65   C     C_2   0.103953 0.656551 0.821029 -0.123232
C66   C     C_2   0.116290 0.349957 0.289671 -0.105489
C67   C     C_2   0.610011 0.153282 0.812469 -0.153558
C68   C     C_2   0.616050 0.849887 0.289902 -0.105887
C69   C     C_3   0.069198 0.629069 0.791103 -0.091981
C70   C     C_3   0.075853 0.371682 0.279113 -0.073620
C71   C     C_3   0.573265 0.127481 0.787615 -0.088951
C72   C     C_3   0.575634 0.871609 0.279112 -0.073503
C73   C     C_1   0.100192 0.586248 0.995675 -0.009678
C74   C     C_1   0.099844 0.412761 0.499274 0.038764
C75   C     C_1   0.600859 0.086305 0.998408 -0.011006
C76   C     C_1   0.599515 0.912647 0.499616 0.040881
C77   C     C_2   0.134458 0.612161 0.024942 0.097812
C78   C     C_2   0.130606 0.384133 0.541840 0.050168
C79   C     C_2   0.632771 0.113620 0.039949 0.117356
C80   C     C_2   0.630115 0.883913 0.542534 0.050924
C81   C     C_2   0.135688 0.650814 0.940542 0.231581
C82   C     C_2   0.142264 0.352315 0.426342 0.209602
C83   C     C_2   0.633564 0.153115 0.957397 0.196556
C84   C     C_2   0.641847 0.852136 0.426978 0.208761
C85   C     C_R   0.881748 0.349562 0.389502 -0.104936
C86   C     C_R   0.886807 0.654908 0.879287 -0.108655
C87   C     C_R   0.379963 0.851191 0.392196 -0.110176
C88   C     C_R   0.387585 0.155384 0.877286 -0.104285
C89   C     C_3   0.007848 0.267125 0.061488 -0.187658
C90   C     C_3   0.012972 0.733200 0.537734 -0.185876
C91   C     C_3   0.507409 0.767220 0.061762 -0.190449
C92   C     C_3   0.517153 0.234121 0.546191 -0.177353
C93   C     C_R   0.918354 0.375937 0.430609 -0.043799
C94   C     C_R   0.921882 0.626864 0.923874 -0.057892
C95   C     C_R   0.417256 0.876880 0.432379 -0.044814
C96   C     C_R   0.422324 0.127100 0.922971 -0.056547
C97   C     C_R   0.905675 0.411740 0.188177 0.056095
C98   C     C_R   0.905747 0.588713 0.687820 0.059431
C99   C     C_R   0.406043 0.911625 0.188298 0.053982
C100  C     C_R   0.406044 0.088800 0.687332 0.057737
C101  C     C_R   0.874730 0.383004 0.144269 -0.107977
C102  C     C_R   0.873488 0.616995 0.647542 -0.095542
C103  C     C_R   0.376720 0.881780 0.141342 -0.123341
C104  C     C_R   0.373989 0.117191 0.646472 -0.096033
C105  C     C_R   0.861926 0.351925 0.246449 0.194360
C106  C     C_R   0.864723 0.650422 0.742497 0.223578
C107  C     C_R   0.361946 0.851317 0.245029 0.181549
C108  C     C_R   0.365477 0.150787 0.740608 0.226450
C109  C     C_2   0.072989 0.592049 0.868460 -0.249179
C110  C     C_2   0.076784 0.408533 0.360270 -0.272753
C111  C     C_2   0.578450 0.090081 0.859509 -0.231701
C112  C     C_2   0.576475 0.908432 0.360540 -0.273274
C113  C     C_3   0.145850 0.490824 0.242116 0.361591
C114  C     C_3   0.148042 0.505639 0.743585 0.364103
C115  C     C_3   0.645628 0.990441 0.241073 0.362790
C116  C     C_3   0.648742 0.005481 0.741174 0.367548
C117  C     C_3   0.182304 0.514480 0.321250 -0.322841
C118  C     C_3   0.182629 0.477555 0.811488 -0.321494
C119  C     C_3   0.682273 0.013728 0.320655 -0.324509
C120  C     C_3   0.683091 0.977361 0.810101 -0.321466
C121  C     C_3   0.859179 0.517085 0.982347 0.300570
C122  C     C_3   0.856772 0.484900 0.482061 0.310512
C123  C     C_3   0.359259 0.017098 0.982336 0.299965
C124  C     C_3   0.356067 0.985306 0.482702 0.311990
C125  C     C_3   0.813669 0.518039 0.901989 -0.063025
C126  C     C_3   0.811575 0.487834 0.400307 -0.067254
C127  C     C_3   0.313615 0.018579 0.902996 -0.064454
C128  C     C_3   0.311028 0.989194 0.400496 -0.066404
C129  C     C_3   0.000653 0.319310 0.564576 0.361637
C130  C     C_3   0.999207 0.684923 0.054146 0.351909
C131  C     C_3   0.499781 0.819460 0.562862 0.361389
C132  C     C_3   0.498873 0.185352 0.056787 0.352507
C133  C     C_R   0.928642 0.407782 0.321277 -0.247337
C134  C     C_R   0.930781 0.593936 0.816069 -0.246493
C135  C     C_R   0.427809 0.908560 0.323736 -0.245166
C136  C     C_R   0.431083 0.094035 0.815586 -0.244415
H1    H     H_    0.168533 0.541635 0.372647 0.119509
H2    H     H_    0.166868 0.450695 0.856989 0.136529
H3    H     H_    0.668400 0.040274 0.376267 0.118456
H4    H     H_    0.667109 0.950673 0.856183 0.135411
H5    H     H_    0.198111 0.497260 0.416599 0.108483
H6    H     H_    0.200719 0.491679 0.909374 0.091505
H7    H     H_    0.698716 0.995971 0.413075 0.108713
H8    H     H_    0.701154 0.991613 0.907766 0.090532
H9    H     H_    0.208231 0.522049 0.235436 0.093721
H10   H     H_    0.206677 0.469088 0.719744 0.102655
H11   H     H_    0.707624 0.022282 0.234110 0.094356
H12   H     H_    0.707141 0.968594 0.718820 0.102785
H13   H     H_    0.884202 0.514734 0.888564 0.033010
H14   H     H_    0.882378 0.485828 0.389873 0.028785
H15   H     H_    0.384039 0.014505 0.887851 0.034852
H16   H     H_    0.381821 0.985809 0.390950 0.027396
H17   H     H_    0.809783 0.490937 0.832128 0.110824
H18   H     H_    0.810206 0.515432 0.332449 0.102316
H19   H     H_    0.309175 0.991524 0.833302 0.110516
H20   H     H_    0.310372 0.016876 0.333169 0.102311
H21   H     H_    0.811755 0.543373 0.820095 0.108168
H22   H     H_    0.807747 0.463075 0.316609 0.102507
H23   H     H_    0.311960 0.043913 0.821045 0.108808
H24   H     H_    0.306709 0.964590 0.316400 0.092045
H25   H     H_    0.000011 0.337320 0.455660 -0.032909
H26   H     H_    0.002860 0.664396 0.953636 -0.033761
H27   H     H_    0.499178 0.837611 0.454325 -0.032763
H28   H     H_    0.501951 0.165493 0.953698 -0.033837
H29   H     H_    0.018110 0.266442 0.434692 0.097499
H30   H     H_    0.997031 0.735467 0.898043 0.078168
H31   H     H_    0.517399 0.766614 0.433052 0.095802
H32   H     H_    0.496353 0.236493 0.903848 0.083288
H33   H     H_    0.993485 0.257142 0.621854 0.121970
H34   H     H_    0.975171 0.744995 0.088960 0.115251
H35   H     H_    0.492276 0.757254 0.619102 0.122455
H36   H     H_    0.477183 0.245856 0.098803 0.115807
H37   H     H_    0.007125 0.248304 0.167771 0.082814
H38   H     H_    0.015094 0.752085 0.643584 0.076000
H39   H     H_    0.506144 0.748528 0.168272 0.081696
H40   H     H_    0.518900 0.253382 0.651080 0.087583
H41   H     H_    0.215382 0.765849 0.687153 0.113223
H42   H     H_    0.149659 0.205443 0.505466 0.119303
H43   H     H_    0.671704 0.296143 0.810284 0.120955
H44   H     H_    0.649519 0.704990 0.499011 0.119512
H45   H     H_    0.815545 0.214666 0.392870 0.116525
H46   H     H_    0.857204 0.796633 0.643243 0.116035
H47   H     H_    0.285989 0.732491 0.476904 0.116053
H48   H     H_    0.358351 0.296680 0.633763 0.115937
H49   H     H_    0.871032 0.328939 0.477504 0.123051
H50   H     H_    0.878891 0.678958 0.957227 0.091459
H51   H     H_    0.367451 0.833871 0.487358 0.144670
H52   H     H_    0.379794 0.179600 0.954534 0.087618
H53   H     H_    0.223241 0.690745 0.417837 0.151343
H54   H     H_    0.304851 0.345454 0.552108 0.119691
H55   H     H_    0.752103 0.172366 0.355604 0.111231
H56   H     H_    0.803906 0.845406 0.560162 0.119215
H57   H     H_    0.101524 0.684893 0.764188 0.114224
H58   H     H_    0.123264 0.327211 0.203987 0.097302
H59   H     H_    0.617610 0.173668 0.719613 0.152823
H60   H     H_    0.623131 0.827224 0.203974 0.098025
H61   H     H_    0.859987 0.385869 0.029554 0.144149
H62   H     H_    0.854519 0.612678 0.541460 0.106712
H63   H     H_    0.365784 0.883910 0.022049 0.169315
H64   H     H_    0.354932 0.112819 0.540620 0.106235
H65   H     H_    0.952075 0.429859 0.356585 0.071726
H66   H     H_    0.955007 0.572160 0.849443 0.068933
H67   H     H_    0.450341 0.931189 0.360943 0.070779
H68   H     H_    0.455154 0.072163 0.849390 0.070957
H69   H     H_    0.959839 0.273915 0.461195 0.132028
H70   H     H_    0.944144 0.716662 0.950324 0.135845
H71   H     H_    0.459061 0.774230 0.457708 0.125914
H72   H     H_    0.443511 0.218848 0.964156 0.131379
H73   H     H_    0.050845 0.568861 0.832152 0.073827
H74   H     H_    0.062917 0.434353 0.303977 0.066289
H75   H     H_    0.568652 0.063854 0.796408 0.056496
H76   H     H_    0.562546 0.934272 0.304341 0.066538
H77   H     H_    0.032884 0.309647 0.219068 -0.022048
H78   H     H_    0.028087 0.689732 0.705699 -0.075277
H79   H     H_    0.532188 0.809868 0.219240 -0.022019
H80   H     H_    0.535304 0.190780 0.711152 -0.026615
H81   H     H_    0.037452 0.258321 0.994011 0.115276
H82   H     H_    0.043240 0.739291 0.469991 0.121014
H83   H     H_    0.537244 0.758226 0.996043 0.116076
H84   H     H_    0.547539 0.239862 0.478473 0.126618
H85   H     H_    0.117060 0.487557 0.319064 0.071970
H86   H     H_    0.120236 0.510158 0.824226 0.076407
H87   H     H_    0.616811 0.987223 0.317960 0.070729
H88   H     H_    0.621172 0.010373 0.822389 0.073724
N1    N     N_R   0.167157 0.681859 0.983537 -0.421732
N2    N     N_R   0.175551 0.322383 0.460915 -0.424035
N3    N     N_R   0.661108 0.186751 0.011519 -0.417988
N4    N     N_R   0.675084 0.822180 0.461688 -0.424024
N5    N     N_R   0.827343 0.323827 0.200976 -0.427683
N6    N     N_R   0.831858 0.679515 0.694267 -0.429700
N7    N     N_R   0.327890 0.822088 0.197512 -0.424352
N8    N     N_R   0.332643 0.179840 0.692001 -0.430237
O1    O     O_2   0.914200 0.445720 0.903420 -0.463012
O2    O     O_2   0.914200 0.554280 0.403420 -0.467939
O3    O     O_2   0.414200 0.945720 0.903420 -0.462910
O4    O     O_2   0.414200 0.054280 0.403420 -0.468786
O5    O     O_3   0.133237 0.491612 0.598920 -0.650838
O6    O     O_3   0.134078 0.508517 0.099727 -0.656428
O7    O     O_3   0.633595 0.991154 0.597527 -0.651930
O8    O     O_3   0.634033 0.008486 0.099270 -0.656422
O9    O     O_3   0.033721 0.332233 0.992912 -0.583317
O10   O     O_3   0.038099 0.666508 0.482571 -0.560712
O11   O     O_3   0.533610 0.832195 0.992748 -0.584404
O12   O     O_3   0.538662 0.166884 0.486512 -0.563459
O13   O     O_3   0.049930 0.518940 0.045960 -0.468266
O14   O     O_3   0.049930 0.481060 0.545960 -0.468614
O15   O     O_3   0.549930 0.018940 0.045960 -0.465272
O16   O     O_3   0.549930 0.981060 0.545960 -0.469260
O17   O     O_2   0.158984 0.671282 0.244534 -0.569558
O18   O     O_2   0.229855 0.367148 0.466837 -0.608180
O19   O     O_2   0.672701 0.164310 0.259094 -0.575448
O20   O     O_2   0.729299 0.867008 0.470600 -0.608832
O21   O     O_2   0.176923 0.701566 0.731631 -0.596169
O22   O     O_2   0.126266 0.273229 0.440578 -0.623981
O23   O     O_2   0.634797 0.231363 0.835369 -0.621103
O24   O     O_2   0.625907 0.773003 0.438497 -0.623478
O25   O     O_2   0.786295 0.370095 0.077100 -0.575446
O26   O     O_2   0.779089 0.633679 0.677587 -0.567138
O27   O     O_2   0.298916 0.859361 0.000293 -0.580004
O28   O     O_2   0.279599 0.134174 0.680535 -0.567252
O29   O     O_2   0.862101 0.272437 0.318157 -0.616679
O30   O     O_2   0.880699 0.728968 0.712528 -0.637756
O31   O     O_2   0.347499 0.776720 0.382691 -0.612842
O32   O     O_2   0.381974 0.228990 0.703449 -0.635511
O33   O     O_3   0.950020 0.480960 0.143730 -0.485521
O34   O     O_3   0.950020 0.519040 0.643730 -0.484519
O35   O     O_3   0.450020 0.980960 0.143730 -0.485341
O36   O     O_3   0.450020 0.019040 0.643730 -0.483569
O37   O     O_3   0.985090 0.412220 0.642040 -0.475636
O38   O     O_3   0.985090 0.587780 0.142040 -0.463066
O39   O     O_3   0.485090 0.912220 0.642040 -0.477185
O40   O     O_3   0.485090 0.087780 0.142040 -0.464195
O41   O     O_2   0.911042 0.382043 0.756162 -0.478776
O42   O     O_2   0.912503 0.620562 0.250616 -0.481218
O43   O     O_2   0.410979 0.882357 0.757691 -0.472056
O44   O     O_2   0.412246 0.120360 0.249384 -0.479434
O45   O     O_3   0.861042 0.485731 0.088398 -0.656674
O46   O     O_3   0.860815 0.515206 0.591741 -0.663805
O47   O     O_3   0.360976 0.985677 0.088184 -0.657105
O48   O     O_3   0.360725 0.015390 0.592999 -0.664842
O49   O     O_3   0.968937 0.330434 0.675827 -0.577507
O50   O     O_3   0.974268 0.669547 0.178721 -0.576574
O51   O     O_3   0.468005 0.830468 0.674057 -0.577228
O52   O     O_3   0.474100 0.169482 0.180782 -0.570986
O53   O     O_2   0.085560 0.445380 0.786390 -0.445674
O54   O     O_2   0.085560 0.554620 0.286390 -0.458477
O55   O     O_2   0.585560 0.945380 0.786390 -0.445310
O56   O     O_2   0.585560 0.054620 0.286390 -0.457961
O57   O     O_3   0.014550 0.412170 0.047860 -0.440970
O58   O     O_3   0.014550 0.587830 0.547860 -0.448566
O59   O     O_3   0.514550 0.912170 0.047860 -0.441386
O60   O     O_3   0.514550 0.087830 0.547860 -0.444231
O61   O     O_2   0.092779 0.386591 0.961341 -0.471580
O62   O     O_2   0.096177 0.609421 0.484077 -0.448124
O63   O     O_2   0.592715 0.886517 0.961374 -0.471447
O64   O     O_2   0.595684 0.109620 0.476473 -0.456457
P1    P     P_3+3 0.909970 0.458430 0.077330 0.983762
P2    P     P_3+3 0.909970 0.541570 0.577330 0.977576
P3    P     P_3+3 0.409970 0.958430 0.077330 0.983037
P4    P     P_3+3 0.409970 0.041570 0.577330 0.977152
P5    P     P_3+3 0.089830 0.458070 0.612460 1.000079
P6    P     P_3+3 0.089830 0.541930 0.112460 0.976530
P7    P     P_3+3 0.589830 0.958070 0.612460 1.000223
P8    P     P_3+3 0.589830 0.041930 0.112460 0.978058
P9    P     P_3+3 0.054758 0.375896 0.072223 0.989556
P10   P     P_3+3 0.055419 0.623182 0.577026 1.041539
P11   P     P_3+3 0.554668 0.875839 0.072123 0.988925
P12   P     P_3+3 0.555966 0.122910 0.575770 1.021096
P13   P     P_3+3 0.947517 0.626511 0.121741 0.962961
P14   P     P_3+3 0.945205 0.375416 0.625094 0.968609
P15   P     P_3+3 0.447537 0.126539 0.121665 0.966574
P16   P     P_3+3 0.444738 0.875790 0.625448 0.975272
C137  C     C_3   0.045936 0.323147 0.638534 -0.279206
H89   H     H_    0.050632 0.301396 0.733959 0.142175
H90   H     H_    0.071045 0.317697 0.548786 0.100268
H91   H     H_    0.050408 0.353218 0.685658 0.141278
C138  C     C_3   0.045194 0.693911 0.115385 -0.253522
H92   H     H_    0.043558 0.714383 0.215960 0.132274
H93   H     H_    0.061497 0.666349 0.154172 0.140566
H94   H     H_    0.065216 0.707885 0.022696 0.040283
C139  C     C_3   0.545043 0.823115 0.637270 -0.282992
H95   H     H_    0.549499 0.801373 0.732868 0.142700
H96   H     H_    0.570233 0.817483 0.547874 0.100389
H97   H     H_    0.549651 0.853174 0.684378 0.141394
C140  C     C_3   0.545193 0.193239 0.116652 -0.282105
H98   H     H_    0.544567 0.214006 0.216594 0.131348
H99   H     H_    0.560542 0.165341 0.156360 0.131638
H100  H     H_    0.565312 0.206261 0.022090 0.095160
C141  C     C_3   0.867428 0.554681 0.072415 -0.318250
H101  H     H_    0.902806 0.555522 0.100572 0.135302
H102  H     H_    0.857410 0.580514 0.002059 0.043746
H103  H     H_    0.849039 0.555707 0.183835 0.121377
C142  C     C_3   0.861363 0.446398 0.569459 -0.324452
H104  H     H_    0.896147 0.443628 0.603746 0.131700
H105  H     H_    0.841517 0.445793 0.677813 0.124148
H106  H     H_    0.850906 0.421622 0.494517 0.041393
C143  C     C_3   0.368218 0.054591 0.072096 -0.316008
H107  H     H_    0.403681 0.055093 0.099116 0.134469
H108  H     H_    0.358316 0.080512 0.002060 0.042173
H109  H     H_    0.350117 0.055818 0.184025 0.121998
C144  C     C_3   0.359564 0.946637 0.569617 -0.322338
H110  H     H_    0.394125 0.943294 0.605756 0.129950
H111  H     H_    0.339291 0.946179 0.676940 0.127337
H112  H     H_    0.348933 0.922133 0.493595 0.042281
N9    N     N_3   0.776936 0.520420 0.011559 -0.476822
H113  H     H_    0.777399 0.495878 0.084830 0.219063
H114  H     H_    0.779392 0.545788 0.079669 0.187536
N10   N     N_3   0.774450 0.487875 0.508644 -0.481806
H115  H     H_    0.777182 0.511594 0.585522 0.221382
H116  H     H_    0.774068 0.461826 0.573122 0.188057
N11   N     N_3   0.277100 0.021468 0.013270 -0.478562
H117  H     H_    0.277214 0.996886 0.086294 0.214034
H118  H     H_    0.280114 0.046770 0.081475 0.188186
N12   N     N_3   0.273795 0.989835 0.508354 -0.484217
H119  H     H_    0.277115 0.013288 0.586220 0.221720
H120  H     H_    0.272573 0.963647 0.571754 0.187446
N13   N     N_3   0.726418 0.354217 0.864684 -0.436216
H121  H     H_    0.729542 0.349458 0.744116 0.169332
H122  H     H_    0.695763 0.367169 0.884476 0.184609
N14   N     N_3   0.699021 0.645340 0.582121 -0.428777
H123  H     H_    0.688258 0.636873 0.470698 0.177701
H124  H     H_    0.672275 0.643928 0.658303 0.177838
N15   N     N_3   0.267870 0.825937 0.740937 -0.441749
H125  H     H_    0.282456 0.811804 0.645401 0.174898
H126  H     H_    0.239188 0.839663 0.700989 0.180157
N16   N     N_3   0.199134 0.145907 0.589924 -0.428777
H127  H     H_    0.187086 0.137179 0.480495 0.177221
H128  H     H_    0.173225 0.144949 0.669846 0.177736
N17   N     N_3   0.171571 0.600364 0.117696 -0.472613
H129  H     H_    0.183551 0.573605 0.076751 0.153267
H130  H     H_    0.160859 0.596577 0.232652 0.226169
N18   N     N_3   0.149364 0.384146 0.695970 -0.463893
H131  H     H_    0.148701 0.355468 0.739317 0.185756
H132  H     H_    0.182123 0.392546 0.686882 0.194952
N19   N     N_3   0.671938 0.099716 0.116108 -0.466470
H133  H     H_    0.682803 0.073778 0.064404 0.148188
H134  H     H_    0.663783 0.093390 0.231864 0.225938
N20   N     N_3   0.648657 0.883798 0.696973 -0.462271
H135  H     H_    0.648108 0.855057 0.739690 0.185673
H136  H     H_    0.681372 0.892381 0.688705 0.195132
N21   N     N_3   0.970170 0.328995 0.149304 -0.515697
H137  H     H_    0.952428 0.310429 0.222726 0.152745
H138  H     H_    0.952045 0.333271 0.046378 0.209986
N22   N     N_3   0.968945 0.672713 0.603839 -0.508030
H139  H     H_    0.950492 0.690695 0.677519 0.179471
H140  H     H_    0.953522 0.671227 0.494507 0.222915
N23   N     N_3   0.469693 0.829275 0.147246 -0.514264
H141  H     H_    0.451701 0.810883 0.220597 0.140538
H142  H     H_    0.451851 0.833407 0.043617 0.210197
N24   N     N_3   0.472997 0.175213 0.628132 -0.516058
H143  H     H_    0.456082 0.194751 0.700169 0.180562
H144  H     H_    0.455808 0.172477 0.522502 0.221453
C145  C     C_3   0.966963 0.257634 0.964701 -0.425944
H145  H     H_    0.963471 0.278141 0.865615 0.192405
H146  H     H_    0.969660 0.227337 0.917699 0.126243
H147  H     H_    0.937052 0.259309 0.038414 0.150190
C146  C     C_3   0.973103 0.747223 0.443794 -0.453650
H148  H     H_    0.966082 0.727236 0.345634 0.180656
H149  H     H_    0.943797 0.749159 0.520042 0.179744
H150  H     H_    0.979537 0.776915 0.395726 0.125781
C147  C     C_3   0.466896 0.757767 0.963071 -0.422842
H151  H     H_    0.463991 0.778146 0.863444 0.194278
H152  H     H_    0.469605 0.727390 0.916924 0.127874
H153  H     H_    0.436685 0.759715 0.035048 0.137262
C148  C     C_3   0.477446 0.247337 0.449685 -0.452129
H154  H     H_    0.470172 0.226091 0.356013 0.186368
H155  H     H_    0.448190 0.250479 0.525609 0.179848
H156  H     H_    0.484187 0.276319 0.395639 0.125190
C149  C     C_3   0.163596 0.449744 0.206349 -0.389213
H157  H     H_    0.138951 0.432846 0.139167 0.127608
H158  H     H_    0.194137 0.451286 0.136236 0.123169
H159  H     H_    0.171406 0.433911 0.316591 0.098789
C150  C     C_3   0.169006 0.545663 0.715182 -0.382190
H160  H     H_    0.144707 0.566011 0.662125 0.130358
H161  H     H_    0.180724 0.558484 0.826232 0.072871
H162  H     H_    0.197669 0.543037 0.635964 0.119307
C151  C     C_3   0.663050 0.949327 0.204067 -0.389139
H163  H     H_    0.638270 0.932740 0.136359 0.128884
H164  H     H_    0.693623 0.950818 0.134114 0.122528
H165  H     H_    0.670696 0.933218 0.313811 0.097862
C152  C     C_3   0.670137 0.045181 0.709449 -0.391757
H166  H     H_    0.646568 0.065043 0.649629 0.131673
H167  H     H_    0.680650 0.059157 0.819474 0.070328
H168  H     H_    0.699639 0.041728 0.634726 0.117220

loop_
_geom_bond_atom_site_label_1
_geom_bond_atom_site_label_2
_ccdc_geom_bond_type
C131  C139  S    
O5    P5    S    
C58   N6    Am   
C51   C55   A    
C152  H166  S    
O35   P3    S    
C112  H76   S    
C38   C54   A    
O42   P13   D    
C126  N10   S    
C142  H104  S    
O11   P11   S    
C141  H101  S    
O12   P12   S    
N20   H135  S    
C46   N22   S    
C62   N6    Am   
C95   P16   S    
C145  H146  S    
C15   O23   D    
O9    P9    S    
O53   P5    D    
C70   C110  A    
C86   C106  D    
C89   C145  S    
C90   H38   S    
C30   H46   S    
C5    C9    A    
C9    N1    Am   
C68   C84   A    
C7    C11   A    
C8    C12   A    
C66   C70   A    
C114  O5    S    
C28   H56   S    
C43   C49   A    
O10   P10   S    
C149  H158  S    
C73   C109  A    
C48   O12   S    
O43   P16   D    
C41   H41   S    
C81   N1    S    
Ba4   O16   S    
C43   H43   S    
C14   N2    Am   
C44   H44   S    
C97   C133  D    
C2    H34   S    
C87   H51   S    
C13   C17   A    
C100  C136  D    
C45   H77   S    
C32   H48   S    
C28   C30   A    
C137  H91   S    
C47   O11   S    
C114  C150  S    
C98   P2    S    
C72   P11   S    
C120  H8    S    
C74   C78   A    
O38   P13   S    
C73   P6    S    
C7    C23   A    
N10   H115  S    
C60   O28   D    
Ba1   O53   S    
C92   H40   S    
C144  H112  S    
C69   P10   S    
C122  H14   S    
C14   O22   D    
C84   N4    S    
C94   C134  S    
C152  H168  S    
C147  H153  S    
C71   C111  A    
C76   P7    S    
C96   P15   S    
C141  H103  S    
Ba2   O33   S    
C57   O25   D    
C47   N23   S    
C80   C84   S    
C53   C57   A    
C91   C147  S    
C115  C119  S    
C25   C31   A    
C55   C59   A    
C26   C32   A    
C56   C60   A    
C79   N19   S    
O8    P8    S    
C129  C137  S    
C147  H151  S    
O62   P10   D    
C27   H55   S    
C25   H53   S    
C130  O50   S    
C117  H9    S    
C118  H6    S    
C123  C127  S    
C10   N2    Am   
N24   H143  S    
C124  H16   S    
C113  C149  S    
C121  C125  S    
C142  H106  S    
C138  H92   S    
C99   C103  A    
C45   C89   S    
C148  H154  S    
C46   O10   S    
C16   C20   A    
C47   C91   S    
N21   H138  S    
C105  N5    S    
O14   P5    S    
N9    H113  S    
C75   C111  A    
C57   N5    Am   
C110  H74   S    
C92   C148  S    
C21   C39   A    
C146  H148  S    
C22   C40   A    
C11   O19   D    
C114  H86   S    
C1    C129  S    
Ba3   O15   S    
Ba1   O13   S    
C102  H62   S    
C127  N11   S    
N14   H123  S    
C125  N9    S    
C114  C118  S    
C139  H96   S    
N22   H139  S    
O6    P6    S    
C33   C61   A    
C39   C55   A    
C126  H22   S    
C66   H58   S    
C140  H99   S    
C95   C135  S    
C93   C133  S    
C150  H161  S    
N18   H132  S    
C17   C41   A    
C143  H108  S    
O54   P6    D    
C19   C43   A    
C20   C44   A    
C76   C112  A    
C6    C10   A    
Ba2   O13   S    
C89   H37   S    
C46   C90   S    
C47   H79   S    
Ba1   P5    S    
C91   H83   S    
C148  H156  S    
C116  O7    S    
N12   H120  S    
C103  H63   S    
C101  H61   S    
C10   O18   D    
C138  H94   S    
C125  H21   S    
O40   P15   S    
C127  H19   S    
C135  H67   S    
Ba4   P8    S    
O3    P3    D    
C31   H47   S    
N11   H118  S    
C121  O45   S    
C151  H165  S    
C18   C22   A    
C93   P14   S    
C124  O48   S    
C13   O21   D    
Ba3   Ba4   S    
C146  H150  S    
C65   C81   A    
C2    H30   S    
O63   P11   D    
N23   H142  S    
C101  C105  A    
O16   P7    S    
C85   H49   S    
C11   N3    Am   
C14   C18   A    
C103  C107  A    
C20   C24   A    
C49   C53   A    
C3    H71   S    
C4    H36   S    
Ba3   O39   S    
C50   N14   S    
O39   P16   S    
C74   P5    S    
C1    H69   S    
Ba1   O57   S    
Ba2   O54   S    
C90   C146  S    
Ba3   O59   S    
C70   P9    S    
C145  H145  S    
O33   P1    S    
C33   C37   A    
C4    H32   S    
C36   C40   A    
O49   P14   S    
C41   C51   A    
C100  P4    S    
C42   C52   A    
C90   H82   S    
C131  H27   S    
O52   P15   S    
C87   C95   S    
C4    H72   S    
C45   N21   S    
C77   C81   S    
C66   C82   A    
C54   C58   A    
C79   C83   S    
C149  H157  S    
C3    H31   S    
C4    C132  S    
C2    H70   S    
C76   C80   A    
C61   O29   D    
C134  H66   S    
C5    C21   A    
N19   H133  S    
N13   H122  S    
C151  H163  S    
C12   N4    Am   
C8    C24   A    
C118  H10   S    
C61   N5    Am   
C60   N8    Am   
N17   H130  S    
C86   H50   S    
C122  C126  S    
C69   C109  A    
Ba4   P4    S    
C137  H90   S    
C75   P8    S    
C123  C143  S    
C17   C21   A    
C35   C63   A    
N10   H116  S    
C107  N7    S    
C130  H26   S    
C65   C69   A    
Ba3   O55   S    
C144  H111  S    
C115  O8    S    
C116  H88   S    
O57   P9    S    
C113  O6    S    
Ba4   O35   S    
C141  H102  S    
C152  H167  S    
O36   P4    S    
C74   C110  A    
C1    H33   S    
C136  H68   S    
C125  H17   S    
C142  H105  S    
N16   H127  S    
O2    P2    D    
C119  H11   S    
C82   N2    S    
C117  H1    S    
C145  H147  S    
C123  H15   S    
C52   N16   S    
C88   C108  D    
C108  N8    S    
C130  C138  S    
C29   C33   A    
C104  C108  A    
C31   C35   A    
C128  H24   S    
C129  H25   S    
C78   N18   S    
C113  H85   S    
Ba4   O4    S    
N15   H126  S    
O61   P9    D    
N24   H144  S    
C67   C83   A    
C18   C42   A    
C149  H159  S    
C129  O49   S    
O55   P7    D    
C116  C152  S    
C77   N17   S    
C100  C104  A    
N21   H137  S    
C13   N1    Am   
Ba2   P6    S    
N9    H114  S    
Ba4   O15   S    
C59   O27   D    
N16   H128  S    
O4    P4    D    
C67   H59   S    
C115  C151  S    
O46   P2    S    
C126  H18   S    
Ba2   O14   S    
C37   C53   A    
O41   P14   D    
C78   C82   S    
C75   C79   A    
C12   O20   D    
C42   H42   S    
C26   H54   S    
C40   C56   A    
C122  O46   S    
N14   H124  S    
C94   P13   S    
O1    P1    D    
C139  H95   S    
C64   O32   D    
C59   N7    Am   
C52   C56   A    
N22   H140  S    
C36   C64   A    
C1    H29   S    
C29   H45   S    
C106  N6    S    
Ba3   O3    S    
C16   N4    Am   
C140  H98   S    
Ba2   O58   S    
C15   C19   A    
N15   H125  S    
C109  H73   S    
C68   C72   A    
C58   O26   D    
Ba4   O56   S    
C150  H160  S    
C115  H87   S    
N23   H141  S    
O34   P2    S    
C133  H65   S    
C143  H107  S    
C44   C50   A    
C63   N7    Am   
C128  H20   S    
C121  C141  S    
C132  C140  S    
C34   C38   A    
C147  H152  S    
N19   H134  S    
Ba2   O38   S    
C87   C107  D    
O50   P13   S    
C85   C105  D    
Ba1   O1    S    
Ba1   Ba2   S    
C98   C134  D    
C123  O47   S    
C6    C26   A    
C113  C117  S    
C64   N8    Am   
C51   N15   S    
C88   H52   S    
O59   P11   S    
N11   H117  S    
O15   P8    S    
O60   P12   S    
C3    H35   S    
C27   C29   A    
C98   C102  A    
C73   C77   A    
C148  H155  S    
C96   C136  S    
Ba1   O37   S    
O56   P8    D    
C5    C25   A    
O37   P14   S    
C6    C22   A    
C99   P3    S    
C120  H12   S    
C7    C27   A    
C151  H164  S    
C8    C28   A    
C80   N20   S    
Ba1   P1    S    
C137  H89   S    
C124  C128  S    
Ba3   P3    S    
C146  H149  S    
C121  H13   S    
C97   C101  A    
C48   H80   S    
C111  H75   S    
Ba4   O40   S    
C49   N13   S    
C32   C36   A    
Ba3   O16   S    
C92   H84   S    
Ba1   O14   S    
Ba2   O2    S    
C35   C39   A    
Ba1   O34   S    
C132  H28   S    
C138  H93   S    
C46   H78   S    
Ba2   P2    S    
Ba3   O36   S    
C85   C93   S    
C128  N12   S    
O51   P16   S    
C139  H97   S    
C3    C131  S    
C99   C135  D    
C68   H60   S    
C63   O31   D    
C23   C37   A    
O58   P10   S    
C9    O17   D    
C65   H57   S    
C16   O24   D    
C71   P12   S    
C91   H39   S    
C119  H7    S    
C19   C23   A    
C140  H100  S    
C117  H5    S    
O64   P12   D    
C131  O51   S    
C118  H2    S    
C132  O52   S    
O45   P1    S    
C150  H162  S    
N18   H131  S    
C88   C96   S    
C50   C54   A    
C143  H109  S    
O47   P3    S    
C34   C62   A    
O48   P4    S    
N20   H136  S    
C30   C34   A    
C97   P1    S    
C124  C144  S    
Ba4   O60   S    
C62   O30   D    
C48   N24   S    
O13   P6    S    
O7    P7    S    
N13   H121  S    
C104  H64   S    
N17   H129  S    
C67   C71   A    
O44   P15   D    
C83   N3    S    
C24   C38   A    
C72   C112  A    
C48   C92   S    
N12   H119  S    
C45   O9    S    
C2    C130  S    
C102  C106  A    
C127  H23   S    
C119  H3    S    
Ba3   P7    S    
C120  H4    S    
C89   H81   S    
C144  H110  S    
C15   N3    Am   
C86   C94   S    
C116  C120  S    
C122  C142  S    
