data_mof_unit_50121.cif
_audit_creation_date              2013-03-05T16:07:57-0500
_audit_creation_method            fapswitch 2.2
_symmetry_space_group_name_H-M    P1
_symmetry_Int_Tables_number       1
_space_group_crystal_system       triclinic
_cell_length_a                    6.979057
_cell_length_b                    14.526145
_cell_length_c                    16.040776
_cell_angle_alpha                 90.11055
_cell_angle_beta                  90.22278
_cell_angle_gamma                 90.131508
_cell_volume                      1626.17489347

loop_
_atom_site_label
_atom_site_type_symbol
_atom_site_description
_atom_site_fract_x
_atom_site_fract_y
_atom_site_fract_z
_atom_type_partial_charge
O1    O     O_R   0.494380 0.415640 0.412830 -0.604647
O2    O     O_R   0.823960 0.405540 0.586560 -0.592228
O3    O     O_R   0.994270 0.584360 0.587170 -0.533529
C1    C     C_R   0.655055 0.381172 0.613152 1.020491
O4    O     O_R   0.824090 0.404620 0.413450 -0.615567
O5    O     O_R   0.994400 0.583430 0.412820 -0.587661
C2    C     C_R   0.655009 0.382286 0.384714 0.901096
O6    O     O_R   0.494250 0.416570 0.587180 -0.590204
O7    O     O_3   0.660800 0.558670 0.500000 -0.209194
V1    V     V_3+5 0.935650 0.489120 0.500000 1.213809
O8    O     O_R   0.324110 0.594460 0.413440 -0.590383
C3    C     C_R   0.154994 0.616159 0.384487 0.942787
O9    O     O_R   0.323980 0.595380 0.586550 -0.563051
C4    C     C_R   0.155086 0.615109 0.617381 0.993072
V2    V     V_3+5 0.435660 0.510880 0.500000 1.234458
O10   O     O_3   0.160640 0.441330 0.500000 -0.302806
C5    C     C_3   0.970431 0.661476 0.749194 0.151054
H1    H     H_    0.004353 0.594188 0.779025 0.123534
C6    C     C_3   0.952621 0.736309 0.818551 -0.074847
H2    H     H_    0.819229 0.774760 0.807084 0.179684
H3    H     H_    0.012622 0.791313 0.607290 0.209946
C7    C     C_3   0.128317 0.784246 0.654309 -0.535778
C8    C     C_3   0.321264 0.680310 0.744895 -0.401998
C9    C     C_3   0.140891 0.684115 0.689168 -0.248010
H4    H     H_    0.442423 0.696242 0.704956 0.296366
H5    H     H_    0.342470 0.609916 0.770593 0.165264
C10   C     C_3   0.122090 0.807503 0.813195 -0.336957
C11   C     C_3   0.109157 0.857530 0.726153 0.939373
C12   C     C_3   0.315053 0.752009 0.816466 0.379743
H6    H     H_    0.325645 0.714363 0.876681 0.115465
H7    H     H_    0.261197 0.798237 0.618192 0.199541
C13   C     C_R   0.263920 0.820115 0.243764 0.059899
C14   C     C_R   0.117843 0.815981 0.183664 -0.196259
C15   C     C_R   0.970554 0.750924 0.196662 -0.057811
H8    H     H_    0.851168 0.746536 0.153598 0.135835
C16   C     C_R   0.981715 0.686905 0.262582 -0.093282
H9    H     H_    0.870403 0.635319 0.268153 0.112998
C17   C     C_R   0.140809 0.685756 0.317249 -0.203036
C18   C     C_R   0.275439 0.756591 0.308444 -0.033791
C19   C     C_3   0.490046 0.755274 0.305540 0.256348
C20   C     C_3   0.477061 0.826441 0.235070 0.081540
H10   H     H_    0.547473 0.687597 0.285410 0.069838
H11   H     H_    0.529170 0.801461 0.173702 0.050528
C21   C     C_R   0.509323 0.319471 0.743525 0.176433
C22   C     C_R   0.647207 0.311521 0.680555 -0.412077
C23   C     C_R   0.785187 0.239592 0.688682 0.522837
C24   C     C_R   0.776083 0.178756 0.756974 -0.164085
H12   H     H_    0.880289 0.123727 0.760997 0.185356
C25   C     C_R   0.624664 0.182580 0.814711 -0.303252
C26   C     C_R   0.496740 0.256086 0.808013 0.133734
C27   C     C_3   0.283088 0.257668 0.807408 -0.435838
C28   C     C_3   0.296484 0.327624 0.737206 -0.398381
H13   H     H_    0.223618 0.286943 0.865886 0.187780
H14   H     H_    0.219562 0.190868 0.787467 0.217922
H15   H     H_    0.245431 0.397262 0.755366 0.181421
H16   H     H_    0.240201 0.301749 0.676674 0.237615
C29   C     C_R   0.491767 0.314599 0.257992 0.170292
C30   C     C_R   0.646650 0.316107 0.313880 -0.209724
C31   C     C_R   0.798734 0.254960 0.297784 -0.156458
H17   H     H_    0.921591 0.253477 0.338914 0.146552
C32   C     C_R   0.788083 0.190670 0.231828 -0.082809
H18   H     H_    0.903469 0.141890 0.224136 0.151627
C33   C     C_R   0.624715 0.185222 0.179973 -0.198058
C34   C     C_R   0.480799 0.250735 0.192994 0.143850
C35   C     C_3   0.271265 0.236871 0.205262 -0.451937
C36   C     C_3   0.283109 0.306694 0.275744 -0.459157
H19   H     H_    0.237381 0.166056 0.226884 0.224580
H20   H     H_    0.185740 0.261286 0.151081 0.186718
H21   H     H_    0.255518 0.276555 0.338220 0.204079
H22   H     H_    0.205004 0.371610 0.262180 0.184499
O11   O     O_R   0.771490 0.080820 0.910070 -0.601693
O12   O     O_R   0.441590 0.092730 0.083780 -0.593453
O13   O     O_R   0.271350 0.913900 0.084390 -0.601747
C37   C     C_R   0.610884 0.114800 0.112747 0.997691
O14   O     O_R   0.441780 0.091820 0.910670 -0.593513
O15   O     O_R   0.271540 0.912980 0.910040 -0.577935
C38   C     C_R   0.610677 0.113603 0.882029 1.011431
O16   O     O_R   0.771300 0.081740 0.084420 -0.605074
O17   O     O_3   0.604960 0.938700 0.997240 -0.273247
V3    V     V_3+5 0.330090 0.008230 0.997220 1.208298
O18   O     O_R   0.941820 0.901930 0.910640 -0.576675
C39   C     C_R   0.110918 0.878104 0.883387 1.050732
O19   O     O_R   0.941630 0.902840 0.083750 -0.571746
C40   C     C_R   0.110420 0.881116 0.112668 0.988340
V4    V     V_3+5 0.830090 0.986410 0.997190 1.232360
O20   O     O_3   0.105080 0.055990 0.997200 -0.297278
N1    N     N_R   0.788098 0.649601 0.705234 0.239563
O21   O     O_R   0.736827 0.707067 0.647178 -0.424426
O22   O     O_R   0.695176 0.572316 0.712992 -0.436912
O23   O     O_3   0.474222 0.811031 0.808653 -0.682116
H23   H     H_    0.536402 0.815957 0.864199 0.350293
O24   O     O_3   0.260763 0.921266 0.719778 -0.687433
H24   H     H_    0.240465 0.956878 0.667691 0.333776
O25   O     O_3   0.577328 0.787818 0.379367 -0.661840
H25   H     H_    0.498281 0.838379 0.402765 0.350610
N2    N     N_R   0.553399 0.917269 0.257634 0.267086
O26   O     O_R   0.440188 0.987312 0.268766 -0.419982
O27   O     O_R   0.737780 0.929607 0.261890 -0.377539
O28   O     O_3   0.922142 0.221635 0.629096 -0.757587
H26   H     H_    0.874526 0.243191 0.574351 0.313525
N3    N     N_R   0.934767 0.694331 0.901736 0.235614
O29   O     O_R   0.786764 0.713302 0.947701 -0.413499
O30   O     O_R   0.055430 0.632478 0.927818 -0.440954
O31   O     O_3   0.936075 0.907760 0.720008 -0.778488
H27   H     H_    0.832491 0.867361 0.698664 0.348667

loop_
_geom_bond_atom_site_label_1
_geom_bond_atom_site_label_2
_geom_bond_distance
_ccdc_geom_bond_type
C23   O28   1.379303 S    
N3    O29   1.301136 A    
C10   C12   1.571871 S    
C6    H2    1.101785 S    
O11   C38   1.299257 A    
C29   C36   1.489113 S    
C1    O6    1.302801 A    
O18   C39   1.307261 A    
O23   H23   0.991930 S    
C24   C25   1.408995 A    
V4    O20   2.166997 S    
O19   C40   1.304013 A    
C8    C12   1.549390 S    
C16   H9    1.082186 S    
O5    C3    1.300430 A    
C17   C18   1.399539 A    
C13   C18   1.392034 A    
C36   H21   1.111719 S    
V2    O10   2.166982 S    
C15   H8    1.081932 S    
C8    H5    1.113229 S    
C4    C9    1.528896 S    
C32   C33   1.410688 A    
O31   H27   0.989726 S    
V3    O20   1.718236 S    
O11   V4    2.001622 S    
O8    V2    2.002614 S    
C24   H12   1.083771 S    
C35   H19   1.111434 S    
N2    O27   1.300326 A    
C8    C9    1.542250 S    
O1    V2    2.009155 S    
C6    C10   1.572036 S    
O14   V3    2.004999 S    
O13   C40   1.302428 A    
C28   H15   1.111936 S    
C21   C28   1.493469 S    
C19   H10   1.110380 S    
C31   H17   1.080121 S    
N3    O30   1.301407 A    
O1    C2    1.304014 A    
O9    C4    1.312112 A    
C20   H11   1.111289 S    
O25   H25   0.993488 S    
C12   O23   1.407797 S    
C14   C15   1.411090 A    
C1    C22   1.483257 S    
C31   C32   1.411481 A    
C5    C9    1.568068 S    
C7    H7    1.113881 S    
C27   C28   1.521278 S    
O12   C37   1.306935 A    
O15   C39   1.299576 A    
C18   C19   1.498825 S    
O4    C2    1.305231 A    
C26   C27   1.491316 S    
C30   C31   1.409886 A    
C22   C23   1.428361 A    
O17   V3    2.170023 S    
C27   H13   1.111432 S    
O2    C1    1.303603 A    
C12   H6    1.113164 S    
C11   O31   1.415849 S    
O28   H26   0.989399 S    
C13   C20   1.497211 S    
C35   H20   1.111548 S    
N2    O26   1.302092 A    
C5    H1    1.114626 S    
C11   O24   1.408487 S    
O14   C38   1.305254 A    
O3    C4    1.298706 A    
O16   V4    2.010823 S    
C19   C20   1.535851 S    
O19   V4    2.002497 S    
C35   C36   1.519285 S    
O6    V2    2.001283 S    
O9    V2    2.011924 S    
C7    C9    1.561837 S    
O2    V1    2.005022 S    
O17   V4    1.715802 S    
C21   C22   1.402592 A    
C29   C34   1.396018 A    
O7    V1    2.170037 S    
C21   C26   1.389073 A    
C23   C24   1.410318 A    
C2    C30   1.487807 S    
C5    N1    1.462136 S    
C10   C39   1.523864 S    
O15   V3    2.005613 S    
C19   O25   1.409923 S    
O5    V1    2.002451 S    
O8    C3    1.306172 A    
C33   C37   1.487647 S    
C27   H14   1.111840 S    
C34   C35   1.489560 S    
C16   C17   1.412318 A    
O7    V2    1.716329 S    
O4    V1    2.005227 S    
O12   V3    2.005177 S    
O3    V1    2.005499 S    
V1    O10   1.718285 S    
C13   C14   1.401497 A    
C6    N3    1.473752 S    
C29   C30   1.401736 A    
C36   H22   1.111715 S    
O24   H24   0.993395 S    
C5    C6    1.559442 S    
O13   V3    2.002521 S    
C25   C38   1.477853 S    
C15   C16   1.411541 A    
C8    H4    1.087603 S    
C3    C17   1.482892 S    
C32   H18   1.081136 S    
C14   C40   1.482826 S    
C33   C34   1.401190 A    
C20   N2    1.465963 S    
N1    O21   1.301501 A    
C25   C26   1.397423 A    
C37   O16   1.302335 A    
C10   C11   1.577631 S    
N1    O22   1.301619 A    
C7    C11   1.573632 S    
H3    C7    1.107838 S    
O18   V4    2.011886 S    
C28   H16   1.110545 S    
