data_mof_unit_7351.cif
_audit_creation_date              2012-12-11T15:27:39-0500
_audit_creation_method            fapswitch 2.2
_symmetry_space_group_name_H-M    P1
_symmetry_Int_Tables_number       1
_space_group_crystal_system       triclinic
_cell_length_a                    23.47875
_cell_length_b                    7.282891
_cell_length_c                    14.993649
_cell_angle_alpha                 90.003181
_cell_angle_beta                  108.760235
_cell_angle_gamma                 89.998253
_cell_volume                      2427.60326739

loop_
_atom_site_label
_atom_site_type_symbol
_atom_type_description
_atom_site_fract_x
_atom_site_fract_y
_atom_site_fract_z
_atom_type_partial_charge
O1    O     O_R   0.711000 0.648610 0.341170 -0.541988
O2    O     O_R   0.289000 0.351390 0.658830 -0.542001
O3    O     O_R   0.789000 0.148610 0.158830 -0.542001
O4    O     O_R   0.211000 0.851390 0.841170 -0.541997
O5    O     O_R   0.829650 0.322030 0.336650 -0.539946
O6    O     O_R   0.170350 0.677970 0.663350 -0.539961
O7    O     O_R   0.670350 0.822030 0.163350 -0.539952
O8    O     O_R   0.329650 0.177970 0.836650 -0.539948
C1    C     C_R   0.854347 0.485724 0.356808 0.715156
C2    C     C_R   0.145650 0.514274 0.643207 0.715285
C3    C     C_R   0.645650 0.985725 0.143203 0.715320
C4    C     C_R   0.354347 0.014276 0.856804 0.715253
O9    O     O_R   0.713950 0.319280 0.352070 -0.537033
O10   O     O_R   0.286050 0.680720 0.647930 -0.537093
O11   O     O_R   0.786050 0.819280 0.147930 -0.537166
O12   O     O_R   0.213950 0.180720 0.852070 -0.537048
O13   O     O_R   0.672470 0.142870 0.174360 -0.530395
O14   O     O_R   0.327530 0.857130 0.825640 -0.530400
O15   O     O_R   0.827530 0.642870 0.325640 -0.530410
O16   O     O_R   0.172470 0.357130 0.674360 -0.530395
C5    C     C_R   0.701260 0.486626 0.375480 0.684771
C6    C     C_R   0.298734 0.513370 0.624512 0.684866
C7    C     C_R   0.798741 0.986622 0.124519 0.684966
C8    C     C_R   0.201257 0.013384 0.875477 0.684775
O17   O     O_3   0.736530 0.478650 0.191680 -0.376493
O18   O     O_3   0.263470 0.521350 0.808320 -0.376447
O19   O     O_3   0.763470 0.978650 0.308320 -0.376415
O20   O     O_3   0.236530 0.021350 0.691680 -0.376479
V1    V     V_3+5 0.752500 0.206170 0.260820 1.404510
V2    V     V_3+5 0.247500 0.793830 0.739180 1.404386
V3    V     V_3+5 0.747500 0.706170 0.239180 1.404317
V4    V     V_3+5 0.252500 0.293830 0.760820 1.404479
C9    C     C_R   0.830976 0.984998 0.055556 -0.058123
C10   C     C_R   0.168966 0.015066 0.944360 -0.058202
C11   C     C_R   0.668975 0.484982 0.444370 -0.058201
C12   C     C_R   0.330983 0.514978 0.555572 -0.058162
C13   C     C_R   0.835660 0.817033 0.919019 -0.185173
C14   C     C_R   0.164220 0.183174 0.080818 -0.185244
C15   C     C_R   0.664264 0.317059 0.580891 -0.185219
C16   C     C_R   0.335652 0.682797 0.418997 -0.185173
C17   C     C_R   0.802268 0.894086 0.970743 -0.194447
C18   C     C_R   0.197642 0.106019 0.029173 -0.194366
C19   C     C_R   0.697670 0.394145 0.529206 -0.194369
C20   C     C_R   0.302266 0.605772 0.470732 -0.194412
C21   C     C_R   0.893482 0.024255 0.081919 0.025350
C22   C     C_R   0.106448 0.975904 0.917910 0.025281
C23   C     C_R   0.606454 0.524098 0.417924 0.025301
C24   C     C_R   0.393497 0.475810 0.581966 0.025344
C25   C     C_R   0.924278 0.979419 0.016367 0.045604
C26   C     C_R   0.075617 0.020778 0.983420 0.045720
C27   C     C_R   0.575637 0.479295 0.483458 0.045730
C28   C     C_R   0.424292 0.520580 0.516401 0.045669
C29   C     C_R   0.897898 0.846189 0.945957 0.084610
C30   C     C_R   0.101979 0.154056 0.053818 0.084760
C31   C     C_R   0.602021 0.346121 0.553896 0.084691
C32   C     C_R   0.397895 0.653719 0.445954 0.084607
C33   C     C_R   0.982203 0.047334 0.022808 0.021943
C34   C     C_R   0.017683 0.952886 0.976951 0.021620
C35   C     C_R   0.517695 0.547142 0.476979 0.021507
C36   C     C_R   0.482227 0.452716 0.522861 0.021680
C37   C     C_R   0.996071 0.786223 0.932136 -0.226731
C38   C     C_R   0.003796 0.214049 0.067583 -0.227173
C39   C     C_R   0.503849 0.286082 0.567693 -0.226845
C40   C     C_R   0.496060 0.713746 0.432123 -0.226611
C41   C     C_R   0.935399 0.739084 0.909115 0.067132
C42   C     C_R   0.064464 0.261214 0.090609 0.067217
C43   C     C_R   0.564524 0.238985 0.590724 0.067193
C44   C     C_R   0.435382 0.760821 0.409091 0.067148
H1    H     H_    0.245090 0.138669 0.048750 0.119214
H2    H     H_    0.754824 0.861395 0.951220 0.119214
H3    H     H_    0.254815 0.638381 0.451182 0.119184
H4    H     H_    0.745121 0.361537 0.548782 0.119204
H5    H     H_    0.812507 0.730906 0.859666 0.127367
H6    H     H_    0.187354 0.269333 0.140169 0.127375
H7    H     H_    0.687414 0.230992 0.640268 0.127375
H8    H     H_    0.312491 0.768835 0.359614 0.127365
H9    H     H_    0.026486 0.691024 0.915335 0.125885
H10   H     H_    0.973375 0.309148 0.084462 0.125907
H11   H     H_    0.473443 0.190930 0.584552 0.125881
H12   H     H_    0.526464 0.808956 0.415308 0.125866
C45   C     C_1   0.416829 0.007196 0.918767 -0.194308
C46   C     C_1   0.583164 0.992814 0.081260 -0.194334
C47   C     C_1   0.083161 0.507180 0.581271 -0.194276
C48   C     C_1   0.916826 0.492799 0.418780 -0.194235
C49   C     C_1   0.469160 0.002557 0.969993 -0.007270
C50   C     C_1   0.530830 0.997469 0.030047 -0.007167
C51   C     C_1   0.030825 0.502520 0.530065 -0.007212
C52   C     C_1   0.969156 0.497429 0.470012 -0.007414
C53   C     C_3   0.914219 0.564732 0.853075 -0.363553
C54   C     C_3   0.894140 0.604453 0.747136 -0.295984
C55   C     C_3   0.870344 0.431258 0.690118 -0.780321
H13   H     H_    0.905295 0.322479 0.707580 0.235079
H14   H     H_    0.829957 0.379912 0.705563 0.226798
H15   H     H_    0.857817 0.462622 0.613743 0.211308
H16   H     H_    0.858128 0.710349 0.728930 0.194514
H17   H     H_    0.932884 0.657847 0.727550 0.195449
H18   H     H_    0.951375 0.462286 0.870613 0.173152
H19   H     H_    0.877417 0.498592 0.872954 0.175425
C56   C     C_3   0.085631 0.435605 0.146625 -0.363553
C57   C     C_3   0.105684 0.395979 0.252574 -0.296149
C58   C     C_3   0.129471 0.569214 0.309567 -0.780205
H20   H     H_    0.169871 0.620521 0.294148 0.226793
H21   H     H_    0.094522 0.678004 0.292069 0.235239
H22   H     H_    0.141978 0.537906 0.385945 0.211314
H23   H     H_    0.066929 0.342627 0.272144 0.195323
H24   H     H_    0.141694 0.290078 0.270825 0.194506
H25   H     H_    0.122445 0.501710 0.126762 0.175451
H26   H     H_    0.048475 0.538049 0.129039 0.173131
C59   C     C_3   0.585715 0.064652 0.646771 -0.363571
C60   C     C_3   0.605757 0.104371 0.752711 -0.296051
C61   C     C_3   0.629580 0.931202 0.809731 -0.780292
H27   H     H_    0.594656 0.822343 0.792239 0.235151
H28   H     H_    0.669992 0.879964 0.794321 0.226804
H29   H     H_    0.642077 0.962559 0.886104 0.211313
H30   H     H_    0.641745 0.210339 0.770944 0.194514
H31   H     H_    0.566990 0.157668 0.772269 0.195376
H32   H     H_    0.548574 0.962159 0.629200 0.173116
H33   H     H_    0.622541 0.998568 0.626923 0.175448
C62   C     C_3   0.414182 0.935122 0.353023 -0.363565
C63   C     C_3   0.394122 0.895328 0.247091 -0.295965
C64   C     C_3   0.370300 0.068468 0.190047 -0.780348
H34   H     H_    0.329902 0.119766 0.205477 0.226800
H35   H     H_    0.405232 0.177301 0.207504 0.235068
H36   H     H_    0.357784 0.037059 0.113677 0.211306
H37   H     H_    0.432880 0.841980 0.227524 0.195447
H38   H     H_    0.358129 0.789375 0.228890 0.194511
H39   H     H_    0.377364 0.001230 0.372878 0.175429
H40   H     H_    0.451322 0.037618 0.370559 0.173129
C65   C     C_3   0.071278 0.942524 0.813345 -0.365137
C66   C     C_3   0.036745 0.115810 0.768080 -0.304489
C67   C     C_3   0.004379 0.087776 0.662985 -0.762035
H41   H     H_    0.037254 0.055513 0.625973 0.236265
H42   H     H_    0.971292 0.974015 0.651798 0.224698
H43   H     H_    0.980053 0.215264 0.632247 0.224162
H44   H     H_    0.002931 0.151572 0.802801 0.198063
H45   H     H_    0.068612 0.232711 0.777363 0.198183
H46   H     H_    0.101264 0.903691 0.772667 0.179774
H47   H     H_    0.039988 0.825807 0.800711 0.169244
C68   C     C_3   0.928698 0.057121 0.186498 -0.365851
C69   C     C_3   0.962585 0.882822 0.231721 -0.304151
C70   C     C_3   0.995314 0.910700 0.336719 -0.762174
H48   H     H_    0.028850 0.023130 0.347600 0.224612
H49   H     H_    0.962729 0.944823 0.373987 0.236343
H50   H     H_    0.019187 0.782518 0.367400 0.224361
H51   H     H_    0.930243 0.767256 0.222729 0.198318
H52   H     H_    0.996095 0.845132 0.196744 0.197842
H53   H     H_    0.960468 0.172613 0.199212 0.169732
H54   H     H_    0.898808 0.097487 0.227079 0.179704
C71   C     C_3   0.428708 0.442769 0.686538 -0.365453
C72   C     C_3   0.462939 0.616548 0.731737 -0.304334
C73   C     C_3   0.495471 0.588716 0.836795 -0.762127
H55   H     H_    0.462726 0.555696 0.873934 0.236304
H56   H     H_    0.528760 0.475540 0.847878 0.224660
H57   H     H_    0.519594 0.716541 0.867471 0.224251
H58   H     H_    0.496618 0.653120 0.696888 0.197970
H59   H     H_    0.430858 0.732852 0.722552 0.198250
H60   H     H_    0.398776 0.403282 0.727199 0.179725
H61   H     H_    0.460218 0.326616 0.699221 0.169455
C74   C     C_3   0.571276 0.557409 0.313356 -0.365054
C75   C     C_3   0.536702 0.384148 0.268133 -0.304497
C76   C     C_3   0.504355 0.412091 0.163026 -0.762040
H62   H     H_    0.471288 0.525922 0.151800 0.224691
H63   H     H_    0.537243 0.444201 0.126020 0.236268
H64   H     H_    0.480008 0.284615 0.132314 0.224142
H65   H     H_    0.568542 0.267159 0.277457 0.198162
H66   H     H_    0.502873 0.348563 0.302850 0.198088
H67   H     H_    0.540014 0.674205 0.300711 0.169196
H68   H     H_    0.601259 0.596089 0.272653 0.179747

loop_
_geom_bond_atom_site_label_1
_geom_bond_atom_site_label_2
_ccdc_geom_bond_type
O17   V3    S    
C47   C51   T    
C51   C52   S    
O1    C5    A    
C58   H20   S    
O19   V1    S    
C9    C21   A    
O3    C7    A    
C66   H44   S    
C10   C18   A    
C21   C68   S    
C67   H43   S    
C11   C23   A    
C22   C65   S    
C76   H62   S    
C54   C55   S    
C59   H32   S    
C33   C38   A    
C23   C74   S    
C49   C50   S    
O7    C3    A    
C56   H26   S    
C68   H53   S    
C57   H23   S    
C19   H4    S    
C36   C39   A    
C40   C44   A    
O9    V1    S    
C14   C18   A    
C70   H49   S    
C44   C62   S    
C14   H6    S    
O4    C8    A    
C63   H38   S    
C2    C47   S    
O1    V3    S    
O13   V1    S    
C74   H68   S    
C20   H3    S    
O2    V4    S    
C73   H57   S    
O3    V1    S    
C60   C61   S    
C64   H36   S    
C28   C36   A    
C1    O15   A    
C15   C31   A    
C65   H47   S    
C56   C57   S    
C2    O16   A    
C7    C9    S    
O2    C6    A    
C73   H55   S    
C12   C24   A    
C10   C22   A    
C15   H7    S    
C11   C19   A    
C71   H61   S    
C16   C20   A    
C13   C29   A    
C62   H40   S    
C34   C37   A    
O11   C7    A    
O15   V3    S    
C35   C36   A    
O12   C8    A    
C72   H59   S    
C24   C71   S    
C40   H12   S    
C56   H25   S    
O10   V2    S    
C76   H63   S    
C43   C59   S    
C59   H33   S    
O5    V1    S    
C3    C46   S    
C39   C43   A    
C68   H54   S    
O7    V3    S    
C38   C42   A    
C26   C34   A    
C54   H16   S    
C69   C70   S    
C59   C60   S    
C70   H50   S    
C37   H9    S    
C55   H13   S    
O18   V4    S    
C15   C19   A    
C16   C32   A    
C46   C50   T    
C18   H1    S    
C8    C10   S    
C16   H8    S    
C53   H18   S    
O8    V4    S    
C42   C56   S    
C41   C53   S    
O5    C1    A    
C55   H14   S    
C31   C43   A    
C74   C75   S    
C14   C30   A    
C21   C25   A    
O8    C4    A    
C35   C40   A    
O9    C5    A    
C61   H28   S    
C26   C30   A    
C75   H65   S    
C62   C63   S    
O11   V3    S    
C64   H34   S    
C30   C42   A    
O6    V2    S    
C58   H22   S    
C75   H66   S    
C72   H58   S    
O14   V2    S    
C12   C20   A    
C27   C35   A    
C69   H52   S    
C67   H41   S    
C60   H31   S    
C76   H64   S    
C29   C41   A    
C63   C64   S    
C65   C66   S    
O16   V4    S    
C13   H5    S    
C3    O13   A    
C61   H27   S    
C63   H37   S    
C38   H10   S    
C66   H45   S    
C48   C52   T    
C67   H42   S    
C69   H51   S    
O6    C2    A    
C25   C33   A    
C23   C27   A    
C68   C69   S    
C54   H17   S    
C39   H11   S    
O12   V4    S    
C6    C12   S    
C22   C26   A    
C57   H24   S    
C53   H19   S    
C9    C17   A    
C75   C76   S    
O10   C6    A    
O20   V2    S    
C5    C11   S    
C32   C44   A    
C71   C72   S    
C55   H15   S    
C33   C34   A    
C25   C29   A    
C57   C58   S    
C74   H67   S    
C4    C45   S    
C66   C67   S    
C61   H29   S    
C27   C31   A    
C73   H56   S    
C13   C17   A    
O4    V2    S    
C64   H35   S    
C1    C48   S    
C37   C41   A    
C24   C28   A    
C65   H46   S    
C58   H21   S    
C4    O14   A    
C72   C73   S    
C53   C54   S    
C70   H48   S    
C71   H60   S    
C60   H30   S    
C45   C49   T    
C28   C32   A    
C17   H2    S    
C62   H39   S    
