data_mof_unit_68362.cif
_audit_creation_date              2013-03-05T15:41:21-0500
_audit_creation_method            fapswitch 2.2
_symmetry_space_group_name_H-M    P1
_symmetry_Int_Tables_number       1
_space_group_crystal_system       triclinic
_cell_length_a                    10.691651
_cell_length_b                    9.065251
_cell_length_c                    7.611091
_cell_angle_alpha                 101.988739
_cell_angle_beta                  92.932846
_cell_angle_gamma                 93.224404
_cell_volume                      718.960203602

loop_
_atom_site_label
_atom_site_type_symbol
_atom_site_description
_atom_site_fract_x
_atom_site_fract_y
_atom_site_fract_z
_atom_type_partial_charge
O1    O     O_R   0.509190 0.286130 0.619780 -0.580445
O2    O     O_R   0.490810 0.713870 0.380220 -0.599962
O3    O     O_R   0.485310 0.256770 0.308360 -0.587733
O4    O     O_R   0.514690 0.743230 0.691640 -0.596077
C1    C     C_R   0.496724 0.201230 0.455102 0.845064
C2    C     C_R   0.503123 0.798813 0.545054 0.823272
O5    O     O_R   0.328790 0.514640 0.655680 -0.534114
O6    O     O_R   0.671210 0.485360 0.344320 -0.545559
O7    O     O_R   0.304910 0.485280 0.344260 -0.611470
O8    O     O_R   0.695090 0.514720 0.655740 -0.610089
C3    C     C_R   0.259973 0.501041 0.503616 0.824254
C4    C     C_R   0.738891 0.521966 0.500242 0.792878
Cu1   Cu    Cu3+1 0.514140 0.517380 0.684380 0.965834
Cu2   Cu    Cu3+1 0.485860 0.482620 0.315620 0.963561
N1    N     N_2   0.464560 0.456420 0.038510 -0.210302
N2    N     N_2   0.535440 0.543580 0.961490 -0.219081
C5    C     C_3   0.040522 0.492233 0.664525 0.400066
C6    C     C_3   0.959752 0.556758 0.351872 0.393943
C7    C     C_3   0.945158 0.390163 0.523366 -0.016341
C8    C     C_3   0.057080 0.653892 0.489973 -0.017823
C9    C     C_3   0.877566 0.533023 0.503223 -0.171046
C10   C     C_3   0.122635 0.512432 0.509891 -0.171601
C11   C     C_3   0.972593 0.633786 0.643983 0.015755
C12   C     C_3   0.026496 0.414726 0.369265 -0.016785
H1    H     H_    0.402110 0.381416 0.952028 0.248602
H2    H     H_    0.597333 0.618759 0.048506 0.244227
C13   C     C_2   0.496293 0.035109 0.430779 -0.379338
C14   C     C_2   0.503165 0.964991 0.569919 -0.355954
H3    H     H_    0.490053 0.968752 0.293815 0.188348
H4    H     H_    0.510119 0.031240 0.706932 0.184273
C15   C     C_3   0.859086 0.251654 0.535878 -0.326294
C16   C     C_3   0.915559 0.101467 0.479236 -0.421629
C17   C     C_3   0.816448 0.973820 0.481564 -0.856559
H5    H     H_    0.771962 0.993151 0.611615 0.251923
H6    H     H_    0.741998 0.970155 0.373928 0.269320
H7    H     H_    0.857087 0.862823 0.457087 0.278065
H8    H     H_    0.945879 0.085838 0.342382 0.233891
H9    H     H_    0.000266 0.099952 0.566624 0.225740
H10   H     H_    0.828783 0.266238 0.675502 0.224083
H11   H     H_    0.774057 0.246058 0.444142 0.202418
C18   C     C_3   0.132079 0.796702 0.467959 -0.430160
C19   C     C_3   0.191067 0.778669 0.285632 -0.246638
C20   C     C_3   0.199329 0.926447 0.222960 -0.910317
H12   H     H_    0.102405 0.956052 0.199680 0.254668
H13   H     H_    0.249169 0.017355 0.327305 0.260514
H14   H     H_    0.247904 0.913465 0.095640 0.262098
H15   H     H_    0.285592 0.740267 0.295105 0.261615
H16   H     H_    0.136873 0.693890 0.180459 0.303358
H17   H     H_    0.067080 0.885445 0.479099 0.224262
H18   H     H_    0.205811 0.831305 0.579627 0.187920
Cl1   Cl    Cl    0.114736 0.476870 0.870658 -0.719034
Cl2   Cl    Cl    0.891902 0.616056 0.165982 -0.734583
C21   C     C_3   0.948251 0.769745 0.792923 -0.399668
C22   C     C_3   0.811207 0.777369 0.843125 -0.245551
C23   C     C_3   0.784104 0.907613 0.993363 -0.845791
H19   H     H_    0.698286 0.876932 0.057673 0.243847
H20   H     H_    0.863278 0.930839 0.096063 0.292437
H21   H     H_    0.763358 0.008370 0.939203 0.239839
H22   H     H_    0.750508 0.784065 0.723897 0.209266
H23   H     H_    0.784617 0.675535 0.891606 0.309128
H24   H     H_    0.011943 0.771731 0.913044 0.267187
H25   H     H_    0.973007 0.868217 0.737293 0.195359
C24   C     C_3   0.069031 0.302065 0.213581 -0.332897
C25   C     C_3   0.962320 0.247193 0.073135 -0.287338
C26   C     C_3   0.010053 0.135976 0.921378 -0.908961
H26   H     H_    0.086583 0.185699 0.855232 0.301188
H27   H     H_    0.047421 0.040963 0.970479 0.256574
H28   H     H_    0.929607 0.097704 0.825298 0.270597
H29   H     H_    0.881813 0.197691 0.131504 0.211276
H30   H     H_    0.926222 0.339759 0.016003 0.308914
H31   H     H_    0.144163 0.355234 0.149777 0.282102
H32   H     H_    0.110373 0.209647 0.265415 0.171472

loop_
_geom_bond_atom_site_label_1
_geom_bond_atom_site_label_2
_geom_bond_distance
_ccdc_geom_bond_type
O7    Cu2   1.958878 S    
C7    C9    1.548991 S    
C22   H23   1.091742 S    
C25   H30   1.101372 S    
C16   H9    1.098335 S    
C13   H3    1.086667 S    
C6    C9    1.526655 S    
O7    C3    1.310598 A    
C18   C19   1.535290 S    
C3    C10   1.480289 S    
C5    C10   1.538387 S    
Cu2   N1    2.072021 S    
C8    C11   1.549778 S    
C1    C13   1.478321 S    
O6    C4    1.328006 A    
C26   H28   1.091590 S    
C7    C15   1.536611 S    
C16   C17   1.527975 S    
C5    Cl1   1.756767 S    
C23   H19   1.110225 S    
C14   H4    1.086524 S    
C17   H5    1.105524 S    
C6    Cl2   1.752631 S    
C19   H16   1.101824 S    
C25   H29   1.103686 S    
C25   C26   1.498480 S    
O5    C3    1.318879 A    
C20   H13   1.108699 S    
C5    C11   1.541147 S    
O3    Cu2   2.036294 S    
O8    C4    1.307619 A    
O2    C2    1.324603 A    
C6    C12   1.532671 S    
C4    C9    1.479111 S    
C10   C12   1.542010 S    
C18   H17   1.085316 S    
C19   H15   1.091020 S    
C17   H6    1.106720 S    
C24   H31   1.098634 S    
C11   C21   1.535476 S    
C12   C24   1.502849 S    
C6    C8    1.537375 S    
C22   H22   1.102435 S    
C23   H20   1.102613 S    
C20   H12   1.099788 S    
N2    H2    1.028542 S    
O2    Cu2   2.048376 S    
C20   H14   1.110684 S    
O1    C1    1.323509 A    
C24   H32   1.101832 S    
N1    H1    1.029275 S    
O1    Cu1   2.048374 S    
C19   C20   1.512103 S    
C8    C10   1.526331 S    
C21   H24   1.108139 S    
N1    N2    1.308724 D    
C18   H18   1.111326 S    
O5    Cu1   1.980749 S    
C17   H7    1.102520 S    
C15   H11   1.109809 S    
O4    C2    1.319224 A    
C26   H26   1.105020 S    
C21   H25   1.090005 S    
Cu1   N2    2.072021 S    
O4    Cu1   2.036295 S    
C15   H10   1.110605 S    
C23   H21   1.106002 S    
C22   C23   1.515603 S    
C26   H27   1.094672 S    
O6    Cu2   1.980751 S    
C16   H8    1.090195 S    
Cu1   Cu2   2.757375 S    
C5    C7    1.555252 S    
C21   C22   1.534723 S    
C7    C12   1.540321 S    
C9    C11   1.546616 S    
C13   C14   1.344573 D    
C2    C14   1.478741 S    
C15   C16   1.509738 S    
C8    C18   1.527795 S    
C24   C25   1.510712 S    
O3    C1    1.319983 A    
O8    Cu1   1.958878 S    
