data_mof_unit_9605.cif
_audit_creation_date              2012-10-26T20:22:08-0400
_audit_creation_method            fapswitch 2.2
_symmetry_space_group_name_H-M    P1
_symmetry_Int_Tables_number       1
_space_group_crystal_system       triclinic
_cell_length_a                    10.857366
_cell_length_b                    9.656019
_cell_length_c                    10.662839
_cell_angle_alpha                 90.473234
_cell_angle_beta                  93.598057
_cell_angle_gamma                 90.608496
_cell_volume                      1115.56961373

loop_
_atom_site_label
_atom_site_type_symbol
_atom_type_description
_atom_site_fract_x
_atom_site_fract_y
_atom_site_fract_z
_atom_type_partial_charge
C1    C     C_R   0.871220 0.503418 0.493773 0.017593
C2    C     C_3   0.565209 0.384782 0.043677 -0.105135
C3    C     C_3   0.446776 0.376649 0.955109 -0.098773
C4    C     C_3   0.554669 0.611606 0.044731 -0.138352
C5    C     C_3   0.497750 0.495544 0.877723 0.042269
C6    C     C_3   0.503265 0.494699 0.122706 0.050215
C7    C     C_R   0.425668 0.073198 0.414586 0.299428
C8    C     C_R   0.563190 0.930247 0.593207 0.331678
C9    C     C_R   0.573882 0.077346 0.585047 0.332942
C10   C     C_R   0.432822 0.923245 0.408243 0.301519
C11   C     C_R   0.062021 0.379610 0.511871 -0.153901
C12   C     C_R   0.128419 0.503091 0.504932 0.012495
C13   C     C_R   0.936816 0.629476 0.494179 -0.139835
C14   C     C_R   0.935246 0.378826 0.494778 -0.156323
C15   C     C_R   0.064993 0.629154 0.496245 -0.138033
C16   C     C_3   0.224334 0.114882 0.349342 0.003327
C17   C     C_3   0.142712 0.207880 0.265766 -0.375899
C18   C     C_3   0.530947 0.871815 0.795888 0.001048
C19   C     C_3   0.526332 0.007829 0.869467 -0.398519
C20   C     C_3   0.771366 0.134802 0.665532 0.028032
C21   C     C_3   0.835216 0.072793 0.783253 -0.391978
C22   C     C_3   0.381961 0.880168 0.196627 -0.003176
C23   C     C_R   0.262540 0.500256 0.502653 0.528687
C24   C     C_3   0.269439 0.841071 0.110492 -0.381135
C25   C     C_R   0.737332 0.500936 0.496920 0.529720
C26   C     C_R   0.501966 0.498924 0.259710 0.541970
C27   C     C_R   0.498348 0.499526 0.740434 0.537982
C28   C     C_3   0.384801 0.485156 0.036911 -0.117073
C29   C     C_3   0.616247 0.502536 0.963504 -0.123041
C30   C     C_3   0.435296 0.602989 0.957367 -0.146124
Cu1   Cu    Cu3+1 0.500000 0.640660 0.500000 1.014232
Cu2   Cu    Cu3+1 0.500000 0.359340 0.500000 1.018044
H1    H     H_    0.400204 0.281471 0.916447 0.107710
H2    H     H_    0.113927 0.727210 0.492281 0.136262
H3    H     H_    0.205554 0.127157 0.449338 0.112985
H4    H     H_    0.198295 0.007182 0.323939 0.156562
H5    H     H_    0.154765 0.182791 0.165449 0.134589
H6    H     H_    0.044362 0.191252 0.285057 0.089204
H7    H     H_    0.168192 0.318322 0.282694 0.177933
H8    H     H_    0.565057 0.794972 0.864623 0.164299
H9    H     H_    0.435165 0.842361 0.761098 0.132416
H10   H     H_    0.476046 0.087178 0.812768 0.173533
H11   H     H_    0.474331 0.991038 0.954360 0.064741
H12   H     H_    0.605984 0.704864 0.081242 0.091681
H13   H     H_    0.619835 0.044615 0.901560 0.177360
H14   H     H_    0.810886 0.240133 0.661033 0.159875
H15   H     H_    0.795832 0.074938 0.580712 0.092920
H16   H     H_    0.806318 0.963980 0.796432 0.193671
H17   H     H_    0.936586 0.074213 0.774230 0.082960
H18   H     H_    0.815548 0.135491 0.867311 0.134594
H19   H     H_    0.461780 0.821141 0.168701 0.144969
H20   H     H_    0.404715 0.990209 0.179927 0.152757
H21   H     H_    0.186835 0.897888 0.137226 0.137587
H22   H     H_    0.285809 0.868802 0.012197 0.082115
H23   H     H_    0.289969 0.477012 0.069713 0.099575
H24   H     H_    0.250017 0.728397 0.116355 0.159084
H25   H     H_    0.711102 0.509784 0.930624 0.109636
H26   H     H_    0.377698 0.687632 0.917829 0.090164
H27   H     H_    0.618356 0.295100 0.081484 0.109094
H28   H     H_    0.107376 0.283365 0.529350 0.114650
H29   H     H_    0.889540 0.727726 0.491587 0.129582
H30   H     H_    0.888083 0.280225 0.483837 0.103902
N1    N     N_R   0.500000 0.852070 0.500000 -0.265657
N2    N     N_R   0.500000 0.147930 0.500000 -0.264145
O1    O     O_R   0.319640 0.618740 0.499990 -0.481378
O2    O     O_3   0.615302 0.868518 0.699267 -0.541463
O3    O     O_3   0.643148 0.151225 0.677249 -0.526187
O4    O     O_3   0.358285 0.847014 0.322097 -0.534747
O5    O     O_R   0.680360 0.381260 0.500010 -0.504272
O6    O     O_R   0.680360 0.618740 0.500010 -0.492221
O7    O     O_R   0.319640 0.381260 0.499990 -0.490512
O8    O     O_R   0.499970 0.618770 0.316850 -0.478661
O9    O     O_R   0.500030 0.381230 0.683150 -0.468393
O10   O     O_R   0.500030 0.618770 0.683150 -0.493947
O11   O     O_R   0.499970 0.381230 0.316850 -0.465944
O12   O     O_3   0.349122 0.146085 0.330705 -0.532767

loop_
_geom_bond_atom_site_label_1
_geom_bond_atom_site_label_2
_ccdc_geom_bond_type
C7    C10   A    
C8    O2    S    
C9    N2    A    
C26   O8    A    
C20   O3    S    
C10   N1    A    
Cu2   O11   S    
C21   H17   S    
C12   C23   S    
C2    C29   S    
C3    C28   S    
C16   H3    S    
C11   C14   A    
C3    H1    S    
C24   H22   S    
C14   H30   S    
C18   C19   S    
C17   H7    S    
C18   H8    S    
C5    C27   S    
Cu1   O6    S    
C6    C28   S    
C8    C9    A    
C27   O10   A    
C15   H2    S    
C4    C29   S    
C19   H10   S    
C21   H16   S    
C1    C25   S    
C2    C6    S    
C21   H18   S    
C28   H23   S    
C19   H11   S    
Cu2   O7    S    
C5    C29   S    
C23   O7    A    
Cu2   N2    S    
C4    C6    S    
C18   H9    S    
Cu2   O9    S    
C2    H27   S    
C16   C17   S    
Cu1   O10   S    
C4    H12   S    
C24   H21   S    
C9    O3    S    
Cu1   N1    S    
Cu1   Cu2   S    
C12   C15   A    
C26   O11   A    
C13   H29   S    
C17   H5    S    
C22   O4    S    
C7    O12   S    
Cu1   O8    S    
C29   H25   S    
C13   C15   A    
C22   C24   S    
C24   H24   S    
C11   H28   S    
C22   H20   S    
C5    C30   S    
C25   O5    A    
Cu1   O1    S    
C16   O12   S    
C3    C5    S    
C11   C12   A    
C19   H13   S    
Cu2   O5    S    
C25   O6    A    
C10   O4    S    
C18   O2    S    
C23   O1    A    
C28   C30   S    
C2    C3    S    
C16   H4    S    
C6    C26   S    
C30   H26   S    
C17   H6    S    
C4    C30   S    
C7    N2    A    
C20   H15   S    
C8    N1    A    
C1    C13   A    
C20   C21   S    
C1    C14   A    
C27   O9    A    
C20   H14   S    
C22   H19   S    
