data_mof_unit_64370.cif
_audit_creation_date              2012-12-10T19:50:45-0500
_audit_creation_method            fapswitch 2.2
_symmetry_space_group_name_H-M    P1
_symmetry_Int_Tables_number       1
_space_group_crystal_system       triclinic
_cell_length_a                    15.012872
_cell_length_b                    14.303963
_cell_length_c                    11.540663
_cell_angle_alpha                 90.000015
_cell_angle_beta                  91.410816
_cell_angle_gamma                 90.0
_cell_volume                      2477.53185487

loop_
_atom_site_label
_atom_site_type_symbol
_atom_type_description
_atom_site_fract_x
_atom_site_fract_y
_atom_site_fract_z
_atom_type_partial_charge
Br1   Br    Br    0.357645 0.265689 0.328603 -0.469805
Br2   Br    Br    0.627750 0.734893 0.690110 -0.493436
Br3   Br    Br    0.642355 0.265689 0.671397 -0.469805
Br4   Br    Br    0.372250 0.734893 0.309889 -0.493436
C1    C     C_R   0.327978 0.499960 0.499978 0.879356
C2    C     C_R   0.500132 0.499997 0.717966 0.921906
C3    C     C_R   0.438490 0.105595 0.432054 -0.283167
C4    C     C_R   0.550503 0.894538 0.581787 -0.280173
C5    C     C_R   0.561510 0.105595 0.567946 -0.283167
C6    C     C_R   0.449497 0.894538 0.418213 -0.280173
C7    C     C_1   0.499869 0.500001 0.161545 -0.121058
C8    C     C_1   0.500131 0.500001 0.838455 -0.121058
C9    C     C_1   0.499937 0.500012 0.059345 0.040559
C10   C     C_1   0.500062 0.500012 0.940655 0.040559
C11   C     C_R   0.440502 0.203812 0.431128 0.363692
C12   C     C_R   0.672022 0.499960 0.500022 0.879356
C13   C     C_R   0.551278 0.796313 0.579227 0.365294
C14   C     C_R   0.559498 0.203812 0.568872 0.363692
C15   C     C_R   0.448722 0.796313 0.420773 0.365294
C16   C     C_R   0.093203 0.577895 0.460253 -0.165756
C17   C     C_R   0.904856 0.420193 0.460704 -0.158079
C18   C     C_R   0.906797 0.577895 0.539747 -0.165756
C19   C     C_R   0.095144 0.420193 0.539295 -0.158078
C20   C     C_R   0.185132 0.578562 0.461311 -0.155333
C21   C     C_R   0.812891 0.420320 0.461316 -0.152143
C22   C     C_R   0.814868 0.578562 0.538690 -0.155334
C23   C     C_R   0.232134 0.499669 0.500063 -0.031454
C24   C     C_R   0.187109 0.420320 0.538683 -0.152142
C25   C     C_R   0.767866 0.499669 0.499936 -0.031453
C26   C     C_R   0.048128 0.498908 0.499788 0.105867
C27   C     C_R   0.951872 0.498908 0.500212 0.105867
C28   C     C_R   0.500000 0.053408 0.500000 0.083359
C29   C     C_R   0.500000 0.946727 0.500000 0.081121
C30   C     C_R   0.499868 0.499997 0.282034 0.921906
H1    H     H_    0.387778 0.072048 0.379043 0.178190
H2    H     H_    0.777120 0.359136 0.430177 0.172665
H3    H     H_    0.780811 0.640093 0.569428 0.197134
H4    H     H_    0.222880 0.359135 0.569822 0.172666
H5    H     H_    0.589825 0.928108 0.649172 0.179886
H6    H     H_    0.612222 0.072048 0.620956 0.178190
H7    H     H_    0.410175 0.928108 0.350828 0.179886
H8    H     H_    0.057336 0.638595 0.427849 0.147560
H9    H     H_    0.939183 0.359279 0.428353 0.146374
H10   H     H_    0.942664 0.638595 0.572151 0.147560
H11   H     H_    0.060817 0.359279 0.571646 0.146374
H12   H     H_    0.219189 0.640093 0.430572 0.197134
N1    N     N_R   0.500000 0.252470 0.500000 -0.143341
N2    N     N_R   0.500000 0.747530 0.500000 -0.139629
O1    O     O_R   0.369060 0.579480 0.500010 -0.601286
O2    O     O_R   0.630940 0.420520 0.499990 -0.594358
O3    O     O_R   0.630940 0.579480 0.499990 -0.601287
O4    O     O_R   0.369060 0.420520 0.500010 -0.594358
O5    O     O_R   0.500010 0.579480 0.334450 -0.578866
O6    O     O_R   0.499990 0.420520 0.665550 -0.586432
O7    O     O_R   0.499990 0.579480 0.665550 -0.578867
O8    O     O_R   0.500010 0.420520 0.334450 -0.586433
Zn1   Zn    Zn3+2 0.500000 0.606140 0.500000 1.032898
Zn2   Zn    Zn3+2 0.500000 0.393860 0.500000 1.031321

loop_
_geom_bond_atom_site_label_1
_geom_bond_atom_site_label_2
_ccdc_geom_bond_type
C5    H6    S    
C16   H8    S    
C13   N2    A    
C22   H3    S    
C30   O8    A    
C22   C25   A    
O3    Zn1   S    
C4    H5    S    
C24   H4    S    
C7    C9    T    
C6    H7    S    
C6    C15   A    
C4    C13   A    
C20   C23   A    
C11   N1    A    
C2    O7    A    
C20   H12   S    
C28   C29   S    
C3    C11   A    
N2    Zn1   S    
C1    O4    A    
C16   C26   A    
C19   C24   A    
C14   N1    A    
Br2   C13   S    
C2    C8    S    
C17   C27   A    
C1    O1    A    
C12   O2    A    
O4    Zn2   S    
C19   H11   S    
C2    O6    A    
Br1   C11   S    
Br3   C14   S    
O8    Zn2   S    
C6    C29   A    
C4    C29   A    
O7    Zn1   S    
C21   C25   A    
C26   C27   S    
O6    Zn2   S    
C18   H10   S    
C18   C27   A    
C21   H2    S    
C9    C10   S    
O2    Zn2   S    
C19   C26   A    
C5    C14   A    
O1    Zn1   S    
C30   O5    A    
C18   C22   A    
C23   C24   A    
C17   C21   A    
C15   N2    A    
C12   O3    A    
O5    Zn1   S    
C3    C28   A    
C5    C28   A    
C12   C25   S    
C1    C23   S    
Br4   C15   S    
C3    H1    S    
C7    C30   S    
C17   H9    S    
C16   C20   A    
C8    C10   T    
N1    Zn2   S    
