data_mof_unit_14784.cif
_audit_creation_date              2013-03-05T15:55:21-0500
_audit_creation_method            fapswitch 2.2
_symmetry_space_group_name_H-M    P1
_symmetry_Int_Tables_number       1
_space_group_crystal_system       triclinic
_cell_length_a                    14.740979
_cell_length_b                    14.69567
_cell_length_c                    33.261375
_cell_angle_alpha                 95.971996
_cell_angle_beta                  95.885469
_cell_angle_gamma                 61.118945
_cell_volume                      6263.62991903

loop_
_atom_site_label
_atom_site_type_symbol
_atom_site_description
_atom_site_fract_x
_atom_site_fract_y
_atom_site_fract_z
_atom_type_partial_charge
O1    O     O_R   0.679450 0.499830 0.463150 -0.487573
O2    O     O_R   0.480650 0.664000 0.464630 -0.510698
C1    C     C_R   0.390664 0.701253 0.446235 0.867571
O3    O     O_R   0.323930 0.675950 0.455370 -0.500504
O4    O     O_R   0.354700 0.475360 0.451930 -0.523891
C2    C     C_R   0.405787 0.385846 0.433884 0.920647
O5    O     O_R   0.494470 0.320860 0.448390 -0.502261
O6    O     O_R   0.662580 0.357570 0.460050 -0.532988
C3    C     C_R   0.702227 0.409141 0.448064 0.909760
O7    O     O_R   0.680900 0.502040 0.551870 -0.524504
O8    O     O_R   0.481990 0.666040 0.546870 -0.543045
C4    C     C_R   0.393089 0.701844 0.560943 0.897270
O9    O     O_R   0.325370 0.678160 0.544080 -0.484035
O10   O     O_R   0.356040 0.477400 0.534170 -0.506926
C5    C     C_R   0.405667 0.387803 0.548482 0.925075
O11   O     O_R   0.495910 0.323070 0.537100 -0.507872
O12   O     O_R   0.663920 0.359620 0.542290 -0.514548
C6    C     C_R   0.700156 0.414169 0.562889 0.929515
Cr1   Cr    Cr6+3 0.576280 0.580550 0.506370 1.124650
Cr2   Cr    Cr6+3 0.346780 0.572400 0.496520 1.172321
Cr3   Cr    Cr6+3 0.576960 0.347070 0.497150 1.090551
O13   O     O_3   0.500010 0.500010 0.500010 -0.404218
C7    C     C_R   0.370248 0.366474 0.391880 -0.246159
C8    C     C_R   0.267367 0.432853 0.376932 0.335208
C9    C     C_R   0.243303 0.437783 0.334870 0.076611
C10   C     C_R   0.320553 0.374637 0.307932 -0.154798
C11   C     C_R   0.418978 0.300063 0.322552 0.341011
C12   C     C_R   0.443646 0.294691 0.364510 0.056692
C13   C     C_R   0.284154 0.251905 0.172738 0.373491
C14   C     C_R   0.287627 0.221824 0.131273 0.033056
C15   C     C_R   0.275261 0.386755 0.115888 0.216825
C16   C     C_R   0.274126 0.416245 0.157776 0.169455
C17   C     C_R   0.278046 0.348599 0.185869 -0.089640
C18   C     C_1   0.285330 0.371750 0.228725 0.138794
C19   C     C_1   0.297675 0.378652 0.264911 0.135002
C20   C     C_R   0.283550 0.288775 0.102949 -0.108327
N1    N     N_R   0.866902 0.223993 0.225568 -0.242316
N2    N     N_R   0.834325 0.240771 0.262777 -0.234863
C21   C     C_R   0.752884 0.373966 0.409623 -0.144151
C22   C     C_R   0.689466 0.381253 0.374011 0.170142
C23   C     C_R   0.735021 0.340985 0.336977 -0.105369
C24   C     C_R   0.842559 0.296360 0.334610 -0.076477
C25   C     C_R   0.905264 0.291019 0.369913 -0.135370
C26   C     C_R   0.861762 0.329302 0.407676 0.330354
N3    N     N_R   0.975531 0.265048 0.288083 -0.243331
N4    N     N_R   0.007836 0.248819 0.250782 -0.174582
C27   C     C_R   0.953564 0.228788 0.218879 0.573989
C28   C     C_R   0.887114 0.263079 0.294671 0.557501
C29   C     C_R   0.966107 0.323795 0.163847 0.298425
C30   C     C_R   0.977397 0.330108 0.122860 0.281797
C31   C     C_R   0.014267 0.149991 0.109394 -0.151437
C32   C     C_R   0.002367 0.143383 0.149841 0.171678
C33   C     C_R   0.976588 0.230909 0.177201 -0.174164
C34   C     C_R   0.999659 0.243031 0.094993 -0.302683
H1    H     H_    0.685776 0.347543 0.309721 0.180361
H2    H     H_    0.988322 0.257707 0.367988 0.195248
H3    H     H_    0.034846 0.081339 0.089053 0.213105
N5    N     N_R   0.302309 0.767549 0.216781 -0.287895
N6    N     N_R   0.300485 0.764982 0.256531 -0.300455
C35   C     C_R   0.370558 0.758854 0.409097 -0.329130
C36   C     C_R   0.271746 0.799184 0.387753 0.367212
C37   C     C_R   0.262330 0.817779 0.346382 0.112969
C38   C     C_R   0.350519 0.800229 0.326793 -0.144909
C39   C     C_R   0.443630 0.775060 0.349537 -0.185906
C40   C     C_R   0.454325 0.756332 0.390463 0.317855
N7    N     N_R   0.399511 0.851208 0.267888 -0.202456
N8    N     N_R   0.401002 0.854087 0.228112 -0.137449
C41   C     C_R   0.353027 0.811701 0.201712 0.600958
C42   C     C_R   0.348141 0.807660 0.282834 0.538654
C43   C     C_R   0.261914 0.823857 0.134262 -0.237593
C44   C     C_R   0.240471 0.853437 0.094485 0.340020
C45   C     C_R   0.398862 0.868827 0.098567 0.055640
C46   C     C_R   0.420052 0.837895 0.138990 0.371042
C47   C     C_R   0.346857 0.822624 0.157625 -0.180697
C48   C     C_R   0.302399 0.888513 0.078072 -0.223381
H4    H     H_    0.509839 0.767402 0.335087 0.215059
H5    H     H_    0.209477 0.804604 0.147365 0.217596
N9    N     N_R   0.383449 0.376593 0.775713 -0.167516
N10   N     N_R   0.389552 0.380063 0.736342 -0.143897
C49   C     C_R   0.367996 0.366531 0.584403 -0.352393
C50   C     C_R   0.300395 0.450900 0.609857 0.234026
C51   C     C_R   0.298421 0.436262 0.650677 0.266567
C52   C     C_R   0.356678 0.336410 0.665365 -0.307879
C53   C     C_R   0.410227 0.249291 0.638612 0.285495
C54   C     C_R   0.416002 0.264266 0.597955 0.254156
N11   N     N_R   0.320991 0.265286 0.721541 -0.185745
N12   N     N_R   0.314575 0.262070 0.760906 -0.199727
C55   C     C_R   0.345235 0.318010 0.788508 0.597345
C56   C     C_R   0.358090 0.324818 0.708660 0.677251
C57   C     C_R   0.229047 0.378183 0.845033 0.072209
C58   C     C_R   0.211126 0.373554 0.885144 0.356486
C59   C     C_R   0.397186 0.261326 0.898954 0.246328
C60   C     C_R   0.415040 0.267710 0.858780 0.292601
C61   C     C_R   0.329985 0.320477 0.831368 -0.241675
C62   C     C_R   0.293941 0.306428 0.911113 -0.376132
C63   C     C_R   0.741377 0.388146 0.604911 -0.202606
C64   C     C_R   0.826951 0.400717 0.622081 0.332760
C65   C     C_R   0.850516 0.394370 0.664024 -0.178899
C66   C     C_R   0.791228 0.375045 0.688661 -0.101993
C67   C     C_R   0.708027 0.359832 0.671893 0.393696
C68   C     C_R   0.682562 0.367180 0.630074 0.059217
C69   C     C_R   0.903374 0.226818 0.819747 0.140230
C70   C     C_R   0.925677 0.205724 0.860861 0.348256
C71   C     C_R   0.842833 0.393022 0.879312 0.397516
C72   C     C_R   0.822263 0.412278 0.838128 -0.126449
C73   C     C_R   0.855958 0.330171 0.808628 -0.076637
C74   C     C_1   0.836443 0.351944 0.766702 0.082916
C75   C     C_1   0.818435 0.364914 0.731156 0.127525
C76   C     C_R   0.902921 0.288934 0.890872 -0.335180
H6    H     H_    0.779664 0.491665 0.828982 0.193222
H7    H     H_    0.916151 0.403226 0.677512 0.206078
H8    H     H_    0.539230 0.641832 0.620651 0.171703
C77   C     C_R   0.379346 0.747243 0.602697 -0.238614
C78   C     C_R   0.280762 0.820489 0.616244 0.324745
C79   C     C_R   0.267062 0.840429 0.658290 0.340886
C80   C     C_R   0.351754 0.785902 0.685898 -0.098933
C81   C     C_R   0.450509 0.717128 0.672024 0.195070
C82   C     C_R   0.463660 0.699322 0.630760 -0.137744
C83   C     C_R   0.335645 0.935039 0.822515 0.328564
C84   C     C_R   0.318120 0.969791 0.863214 0.081108
C85   C     C_R   0.281122 0.828286 0.873322 0.105607
C86   C     C_R   0.296534 0.794755 0.831922 0.368013
C87   C     C_R   0.322502 0.849416 0.806900 -0.201186
C88   C     C_1   0.331682 0.821783 0.764390 0.229298
C89   C     C_1   0.339786 0.804195 0.728609 0.177963
C90   C     C_R   0.289266 0.917636 0.888442 -0.120486
O14   O     O_R   0.170070 0.978950 0.027680 -0.522682
O15   O     O_R   0.001760 0.175230 0.026640 -0.522475
C91   C     C_R   0.013985 0.244109 0.051471 0.863421
O16   O     O_R   0.984760 0.333570 0.037150 -0.477562
O17   O     O_R   0.183410 0.309240 0.041890 -0.523710
C92   C     C_R   0.272470 0.260046 0.059815 0.885709
O18   O     O_R   0.340240 0.172500 0.045430 -0.512075
O19   O     O_R   0.309670 0.000990 0.032050 -0.514661
C93   C     C_R   0.260692 0.956130 0.042969 0.824381
O20   O     O_R   0.168330 0.982130 0.939200 -0.486177
O21   O     O_R   0.000140 0.178170 0.944610 -0.508983
C94   C     C_R   0.960420 0.268468 0.931166 0.915105
O22   O     O_R   0.983010 0.336750 0.948660 -0.488604
O23   O     O_R   0.181800 0.312190 0.959860 -0.512786
C95   C     C_R   0.271900 0.265581 0.945891 0.902606
O24   O     O_R   0.338500 0.175680 0.956950 -0.504302
O25   O     O_R   0.308050 0.003930 0.950020 -0.529116
C96   C     C_R   0.256296 0.965117 0.929116 0.887573
Cr4   Cr    Cr6+3 0.087320 0.083240 0.984860 1.115063
Cr5   Cr    Cr6+3 0.087720 0.316210 0.996740 1.146005
Cr6   Cr    Cr6+3 0.317350 0.090340 0.995890 1.051564
O26   O     O_3   0.164130 0.163270 0.992500 -0.414740
N13   N     N_3   0.289361 0.125390 0.117272 -0.636260
H9    H     H_    0.359116 0.064859 0.128197 0.315278
H10   H     H_    0.227835 0.122386 0.129041 0.226442
N14   N     N_R   0.929024 0.321426 0.443270 0.149018
O27   O     O_R   0.897908 0.392296 0.473013 -0.279687
O28   O     O_R   0.025655 0.249175 0.444276 -0.287132
N15   N     N_R   0.960081 0.427320 0.109723 0.174737
O29   O     O_R   0.867813 0.507529 0.110508 -0.270984
O30   O     O_R   0.038569 0.440104 0.103272 -0.337184
N16   N     N_R   0.941672 0.413181 0.191613 0.166715
O31   O     O_R   0.998900 0.459037 0.194752 -0.313327
O32   O     O_R   0.859347 0.452103 0.212321 -0.304886
N17   N     N_3   0.018720 0.046082 0.162563 -0.584902
H11   H     H_    0.949971 0.057022 0.173504 0.283149
H12   H     H_    0.076351 0.022874 0.186170 0.235504
N18   N     N_R   0.180587 0.823097 0.408133 0.179662
O33   O     O_R   0.163727 0.874996 0.443185 -0.282664
O34   O     O_R   0.111702 0.797882 0.391039 -0.274013
N19   N     N_R   0.551337 0.733687 0.412295 0.148373
O35   O     O_R   0.638388 0.672009 0.395615 -0.331326
O36   O     O_R   0.552458 0.788792 0.445422 -0.288463
N20   N     N_R   0.156377 0.846033 0.071169 0.137603
O37   O     O_R   0.071876 0.868475 0.088279 -0.321578
O38   O     O_R   0.171535 0.798858 0.035204 -0.315609
N21   N     N_R   0.284657 0.184929 0.201481 0.101725
O39   O     O_R   0.360077 0.090087 0.203559 -0.308031
O40   O     O_R   0.211876 0.220175 0.226892 -0.356175
N22   N     N_3   0.161843 0.858859 0.325345 -0.544878
H13   H     H_    0.161155 0.802756 0.303484 0.271846
H14   H     H_    0.147492 0.925103 0.311098 0.248926
N23   N     N_3   0.473726 0.880189 0.077821 -0.558814
H15   H     H_    0.490573 0.829601 0.051830 0.252455
H16   H     H_    0.544425 0.855316 0.094578 0.303700
N24   N     N_R   0.515075 0.821996 0.160965 0.134587
O41   O     O_R   0.576720 0.733020 0.176339 -0.297319
O42   O     O_R   0.536769 0.898354 0.168022 -0.293658
N25   N     N_R   0.231611 0.550651 0.594228 0.183212
O43   O     O_R   0.230073 0.634828 0.611538 -0.318951
O44   O     O_R   0.164715 0.558137 0.564281 -0.255795
N26   N     N_R   0.473775 0.175995 0.570872 0.188935
O45   O     O_R   0.433999 0.167152 0.534848 -0.295019
O46   O     O_R   0.567451 0.106081 0.581554 -0.270734
N27   N     N_R   0.108259 0.435874 0.898902 0.166746
O47   O     O_R   0.029085 0.435774 0.877723 -0.344256
O48   O     O_R   0.092355 0.502756 0.929790 -0.292329
N28   N     N_R   0.233764 0.522539 0.677045 0.188736
O49   O     O_R   0.263945 0.589795 0.691714 -0.290371
O50   O     O_R   0.154310 0.524133 0.691552 -0.300583
N29   N     N_R   0.460036 0.145905 0.652674 0.195164
O51   O     O_R   0.440967 0.074430 0.633649 -0.273116
O52   O     O_R   0.525262 0.122467 0.684229 -0.264863
N30   N     N_R   0.495789 0.231984 0.294749 0.114829
O53   O     O_R   0.525465 0.270414 0.268486 -0.362477
O54   O     O_R   0.534556 0.131553 0.295014 -0.300454
N31   N     N_3   0.143755 0.443683 0.818556 -0.514127
H17   H     H_    0.133880 0.397322 0.794331 0.258400
H18   H     H_    0.161815 0.496391 0.807222 0.294495
N32   N     N_R   0.483628 0.205549 0.926910 0.181579
O55   O     O_R   0.556113 0.112447 0.916745 -0.275516
O56   O     O_R   0.488005 0.246325 0.963233 -0.326341
N33   N     N_R   0.519289 0.220538 0.845957 0.186358
O57   O     O_R   0.587880 0.241396 0.866389 -0.280447
O58   O     O_R   0.546004 0.157135 0.813780 -0.268133
N34   N     N_R   0.972256 0.099666 0.871636 0.163179
O59   O     O_R   0.053440 0.028024 0.853769 -0.336425
O60   O     O_R   0.923717 0.072105 0.894208 -0.273319
N35   N     N_3   0.928882 0.142210 0.789551 -0.496631
H19   H     H_    0.980120 0.143321 0.770310 0.264880
H20   H     H_    0.860908 0.153832 0.772488 0.292426
N36   N     N_R   0.646849 0.340477 0.697409 0.096670
O61   O     O_R   0.636248 0.257248 0.690597 -0.317285
O62   O     O_R   0.604151 0.404404 0.728269 -0.344217
N37   N     N_3   0.591335 0.362212 0.613468 -0.637358
H21   H     H_    0.527904 0.416923 0.629557 0.225253
H22   H     H_    0.601840 0.287779 0.616767 0.305598
N38   N     N_R   0.890931 0.418672 0.597488 0.163193
O63   O     O_R   0.907994 0.376924 0.560734 -0.284372
O64   O     O_R   0.942223 0.466466 0.613225 -0.284026
N39   N     N_R   0.802696 0.479514 0.908998 0.164322
O65   O     O_R   0.784891 0.571295 0.900353 -0.292302
O66   O     O_R   0.771371 0.470059 0.942758 -0.323697
N40   N     N_3   0.545361 0.220151 0.379233 -0.542939
H23   H     H_    0.601013 0.228400 0.365178 0.272118
H24   H     H_    0.554848 0.145366 0.371728 0.304864
N41   N     N_3   0.320779 0.063668 0.878294 -0.624448
H25   H     H_    0.270415 0.123881 0.859888 0.238480
H26   H     H_    0.396166 0.052114 0.877063 0.304822
N42   N     N_R   0.360544 0.991090 0.796485 0.107660
O67   O     O_R   0.443758 0.000924 0.804396 -0.307213
O68   O     O_R   0.298896 0.034279 0.765269 -0.330142
N43   N     N_3   0.538429 0.662368 0.699350 -0.617043
H27   H     H_    0.550322 0.717054 0.718616 0.270760
H28   H     H_    0.521242 0.618283 0.716916 0.281578
N44   N     N_R   0.194414 0.870966 0.587525 0.189874
O69   O     O_R   0.104983 0.877539 0.592518 -0.230629
O70   O     O_R   0.205997 0.906968 0.555394 -0.295944
N45   N     N_R   0.281836 0.708556 0.814848 0.121245
O71   O     O_R   0.191943 0.712438 0.815583 -0.288096
O72   O     O_R   0.354583 0.631068 0.794963 -0.328449
N46   N     N_3   0.257852 0.773213 0.900584 -0.525142
H29   H     H_    0.262660 0.704068 0.886844 0.296298
H30   H     H_    0.315990 0.750176 0.924005 0.222714
N47   N     N_R   0.168321 0.917133 0.672802 0.168695
O73   O     O_R   0.125649 0.895274 0.700055 -0.285551
O74   O     O_R   0.121224 0.009740 0.659100 -0.290067
N48   N     N_R   0.186785 0.493507 0.404404 0.171007
O75   O     O_R   0.177479 0.450932 0.435055 -0.301372
O76   O     O_R   0.120077 0.589967 0.398148 -0.260160
N49   N     N_3   0.269792 0.514078 0.171467 -0.627126
H31   H     H_    0.204180 0.557305 0.188232 0.273643
H32   H     H_    0.335576 0.499598 0.190609 0.255774
N50   N     N_3   0.267916 0.454570 0.086017 -0.573364
H33   H     H_    0.249014 0.529145 0.098712 0.304710
H34   H     H_    0.341168 0.423676 0.074536 0.237852
N51   N     N_3   0.139488 0.505870 0.319879 -0.506618
H35   H     H_    0.142113 0.557867 0.301418 0.253609
H36   H     H_    0.110914 0.461090 0.302170 0.283174
N52   N     N_3   0.578392 0.430849 0.375745 -0.674750
H37   H     H_    0.543134 0.426502 0.347209 0.236270
H38   H     H_    0.552369 0.509964 0.383553 0.227034

loop_
_geom_bond_atom_site_label_1
_geom_bond_atom_site_label_2
_geom_bond_distance
_ccdc_geom_bond_type
N28   O50   1.300857 A    
C72   H6    1.083944 S    
C29   C33   1.411683 A    
O22   Cr5   2.043332 S    
O11   Cr3   2.036583 S    
O16   Cr5   2.036701 S    
C36   N18   1.438687 S    
C6    C63   1.477044 S    
C46   C47   1.413761 A    
C72   C73   1.392871 A    
N43   H27   1.045518 S    
C5    C49   1.488292 S    
N12   C55   1.356362 A    
O15   C91   1.308014 A    
C64   C65   1.404265 A    
N36   O61   1.300566 A    
N47   O73   1.301267 A    
N19   O36   1.301410 A    
O4    Cr2   1.918734 S    
N3    N4    1.331463 A    
N42   O67   1.300743 A    
O25   Cr6   1.918644 S    
C66   C75   1.432052 S    
N31   H18   1.045713 S    
O8    Cr1   1.915701 S    
C10   C11   1.404573 A    
C26   N14   1.440482 S    
C35   C36   1.420740 A    
C52   C53   1.408824 A    
O7    C6    1.267069 A    
O21   Cr4   1.921976 S    
C16   N49   1.435093 S    
N34   O60   1.301188 A    
N1    N2    1.329350 A    
O14   C93   1.272399 A    
C4    C77   1.466041 S    
N35   H20   1.045705 S    
O4    C2    1.276442 A    
C9    N51   1.435239 S    
C48   C93   1.494197 S    
O15   Cr4   1.915963 S    
N25   O44   1.301237 A    
N7    C42   1.357067 A    
N15   O30   1.299697 A    
N20   O37   1.301439 A    
N29   O51   1.301202 A    
C41   C47   1.480505 S    
O25   C96   1.272718 A    
C13   C17   1.404771 A    
C3    C21   1.464587 S    
C80   C81   1.404675 A    
O17   Cr5   1.927034 S    
N26   O46   1.301353 A    
N49   H31   1.045623 S    
C23   C24   1.399937 A    
C90   C96   1.471101 S    
N29   O52   1.301185 A    
N24   O41   1.301162 A    
C23   H1    1.083397 S    
N48   O76   1.300990 A    
N7    N8    1.330843 A    
Cr6   O26   1.974152 S    
C59   N32   1.437653 S    
N9    C55   1.354052 A    
C53   C54   1.409993 A    
C85   N46   1.442068 S    
N39   O65   1.301563 A    
C92   O18   1.269066 A    
C43   C47   1.397683 A    
N44   O70   1.301378 A    
C7    C8    1.419841 A    
C57   C61   1.406872 A    
C15   N50   1.439365 S    
O18   Cr6   2.037729 S    
N1    C27   1.354599 A    
C13   C14   1.402101 A    
C45   C48   1.419600 A    
N41   H25   1.045887 S    
C30   N15   1.432390 S    
C15   C20   1.409008 A    
N2    C28   1.357606 A    
O20   Cr4   2.031916 S    
C32   N17   1.433114 S    
C27   C33   1.467505 S    
C9    C10   1.405750 A    
C1    C35   1.493440 S    
C54   N26   1.437513 S    
N22   H14   1.045731 S    
N28   O49   1.301061 A    
C67   N36   1.438551 S    
C44   C48   1.418598 A    
C63   C68   1.416913 A    
N38   O63   1.300799 A    
C43   H5    1.083271 S    
N16   O32   1.301225 A    
N13   H10   1.045398 S    
N18   O33   1.301524 A    
C69   C70   1.404224 A    
N40   H23   1.045357 S    
C18   C19   1.199800 T    
C50   N25   1.435925 S    
C71   C72   1.400372 A    
N17   H12   1.045760 S    
N46   H30   1.045776 S    
N17   H11   1.044709 S    
N15   O29   1.300843 A    
Cr5   O26   1.965008 S    
N21   O40   1.300675 A    
C17   C18   1.436013 S    
C52   C56   1.464466 S    
C55   C61   1.459884 S    
O1    Cr1   2.034077 S    
C51   N28   1.434519 S    
N8    C41   1.357770 A    
C38   C42   1.473093 S    
C87   C88   1.431497 S    
Cr1   O13   1.973383 S    
O1    C3    1.266425 A    
O23   C95   1.276952 A    
C45   C46   1.419800 A    
N33   O57   1.301241 A    
C94   O22   1.271977 A    
O23   Cr5   1.919945 S    
N19   O35   1.301458 A    
C77   C82   1.401877 A    
N32   O55   1.301379 A    
O6    C3    1.270192 A    
C14   N13   1.433865 S    
C24   C28   1.472652 S    
N5    N6    1.329981 A    
N21   O39   1.300324 A    
C58   N27   1.435652 S    
C59   C62   1.419569 A    
C50   C51   1.401977 A    
N27   O47   1.300474 A    
N38   O64   1.301652 A    
N26   O45   1.301372 A    
N49   H32   1.045589 S    
N40   H24   1.044665 S    
N35   H19   1.045703 S    
N27   O48   1.301235 A    
C49   C54   1.418012 A    
O19   Cr6   1.919284 S    
O10   Cr2   1.918483 S    
C84   N41   1.435473 S    
N37   H21   1.045937 S    
C25   H2    1.083230 S    
N36   O62   1.301120 A    
C15   C16   1.414705 A    
C79   C80   1.412660 A    
O7    Cr1   2.041021 S    
C74   C75   1.199265 T    
C37   N22   1.435175 S    
C63   C64   1.416667 A    
C37   C38   1.412767 A    
O12   C6    1.273438 A    
C39   H4    1.083999 S    
C44   N20   1.437193 S    
N43   H28   1.045438 S    
C60   C61   1.406454 A    
C30   C34   1.419241 A    
C7    C12   1.418381 A    
C8    C9    1.408154 A    
C8    N48   1.439016 S    
N41   H26   1.044525 S    
C85   C86   1.416137 A    
C43   C44   1.393015 A    
N52   H38   1.045512 S    
O14   Cr4   2.038959 S    
C86   N45   1.436778 S    
C31   H3    1.082617 S    
N50   H34   1.045393 S    
C22   C23   1.397340 A    
C78   N44   1.438360 S    
N6    C42   1.355601 A    
C35   C40   1.420652 A    
C65   C66   1.396796 A    
N31   H17   1.045064 S    
C80   C89   1.430948 S    
C57   N31   1.436359 S    
C25   C26   1.405365 A    
C60   N33   1.437990 S    
N16   O31   1.301200 A    
C53   N29   1.437377 S    
C29   C30   1.408061 A    
C29   N16   1.437674 S    
C24   C25   1.402097 A    
Cr2   O13   1.974316 S    
C21   C26   1.416264 A    
C57   C58   1.401019 A    
C1    O3    1.279240 A    
C12   N40   1.436090 S    
C21   C22   1.411054 A    
Cr4   O26   1.973556 S    
N46   H29   1.042521 S    
C71   N39   1.439730 S    
C77   C78   1.412732 A    
N14   O28   1.301586 A    
N3    C28   1.357906 A    
C68   N37   1.432810 S    
N51   H36   1.045781 S    
C34   C91   1.486974 S    
N24   O42   1.301141 A    
N4    C27   1.356884 A    
N22   H13   1.044222 S    
C13   N21   1.438787 S    
C65   H7    1.083870 S    
O9    Cr2   2.033365 S    
N44   O69   1.301307 A    
O2    Cr1   1.923943 S    
N11   N12   1.329711 A    
O24   Cr6   2.036193 S    
C66   C67   1.401382 A    
C11   N30   1.437405 S    
N45   O71   1.301201 A    
C49   C50   1.417088 A    
N11   C56   1.355081 A    
O6    Cr3   1.920071 S    
C70   N34   1.435660 S    
C83   C84   1.400163 A    
C83   N42   1.438219 S    
C78   C79   1.413508 A    
C2    O5    1.270569 A    
C83   C87   1.403354 A    
N23   H15   1.045788 S    
O21   C94   1.273938 A    
C40   N19   1.435520 S    
O19   C93   1.284978 A    
C81   C82   1.385883 A    
Cr3   O13   1.965235 S    
C64   N38   1.439371 S    
C14   C20   1.408321 A    
C70   C76   1.422199 A    
C31   C34   1.405713 A    
C16   C17   1.411200 A    
N48   O75   1.301544 A    
C20   C92   1.468267 S    
O2    C1    1.278826 A    
C91   O16   1.296923 A    
C62   C95   1.487913 S    
C31   C32   1.393595 A    
O20   C96   1.270846 A    
N39   O66   1.301615 A    
O5    Cr3   2.043355 S    
N13   H9    1.042945 S    
N50   H33   1.043953 S    
H8    C82   1.084594 S    
C46   N24   1.435381 S    
N9    N10   1.329658 A    
N5    C41   1.358051 A    
N25   O43   1.299869 A    
C71   C76   1.419831 A    
N20   O38   1.301573 A    
N30   O53   1.301171 A    
N51   H35   1.045679 S    
C2    C7    1.489515 S    
C39   C40   1.394877 A    
N18   O34   1.301125 A    
C59   C60   1.409170 A    
N33   O58   1.301220 A    
N45   O72   1.301249 A    
N42   O68   1.301216 A    
C69   C73   1.403781 A    
C84   C90   1.412255 A    
C36   C37   1.410638 A    
O12   Cr3   1.925494 S    
N10   C56   1.357419 A    
N47   O74   1.301258 A    
N52   H37   1.045654 S    
C10   C19   1.436722 S    
C58   C62   1.416783 A    
C38   C39   1.395649 A    
O3    Cr2   2.036228 S    
C69   N35   1.435982 S    
C85   C90   1.412065 A    
C79   N47   1.438112 S    
N34   O59   1.300893 A    
C81   N43   1.434060 S    
N37   H22   1.044218 S    
C51   C52   1.405426 A    
C73   C74   1.432297 S    
C11   C12   1.406138 A    
O10   C5    1.274361 A    
C76   C94   1.486534 S    
C67   C68   1.404407 A    
N14   O27   1.300384 A    
C45   N23   1.442222 S    
C4    O9    1.269817 A    
C86   C87   1.409226 A    
C95   O24   1.272298 A    
N32   O56   1.301382 A    
O17   C92   1.270425 A    
N30   O54   1.300717 A    
C5    O11   1.274293 A    
O8    C4    1.273495 A    
C32   C33   1.407889 A    
C88   C89   1.196997 T    
N23   H16   1.041958 S    
C22   N52   1.439885 S    
