data_mof_unit_58482.cif
_audit_creation_date              2012-12-10T17:12:00-0500
_audit_creation_method            fapswitch 2.2
_symmetry_space_group_name_H-M    P1
_symmetry_Int_Tables_number       1
_space_group_crystal_system       triclinic
_cell_length_a                    11.785351
_cell_length_b                    12.868482
_cell_length_c                    15.818889
_cell_angle_alpha                 96.013245
_cell_angle_beta                  73.262076
_cell_angle_gamma                 100.033267
_cell_volume                      2258.51322396

loop_
_atom_site_label
_atom_site_type_symbol
_atom_type_description
_atom_site_fract_x
_atom_site_fract_y
_atom_site_fract_z
_atom_type_partial_charge
C1    C     C_R   0.525961 0.700478 0.491071 0.812923
C2    C     C_R   0.474283 0.299420 0.508634 0.810458
C3    C     C_R   0.351203 0.526907 0.098288 0.478526
C4    C     C_R   0.535571 0.356203 0.933520 0.422586
C5    C     C_R   0.275568 0.544827 0.048827 -0.314899
C6    C     C_R   0.605965 0.327499 0.981842 -0.286259
C7    C     C_R   0.453897 0.184665 0.524689 -0.154309
C8    C     C_R   0.547485 0.814995 0.473921 -0.157714
C9    C     C_R   0.664336 0.989802 0.481367 0.126106
C10   C     C_R   0.338006 0.009651 0.516426 0.130693
C11   C     C_R   0.661310 0.878652 0.462971 0.107153
C12   C     C_R   0.340436 0.120560 0.535035 0.105973
C13   C     C_R   0.455814 0.861941 0.459381 0.101582
C14   C     C_R   0.546209 0.138052 0.539079 0.077057
C15   C     C_R   0.448338 0.967559 0.493063 -0.044578
C16   C     C_R   0.554028 0.032334 0.505126 -0.044256
C17   C     C_R   0.936798 0.592968 0.591120 0.300358
C18   C     C_R   0.051681 0.384676 0.428943 0.312394
C19   C     C_R   0.820801 0.589201 0.579810 0.182094
C20   C     C_R   0.173600 0.399924 0.430055 0.162946
C21   C     C_R   0.856845 0.450545 0.468834 0.554784
C22   C     C_R   0.143238 0.549833 0.531413 0.573870
C23   C     C_R   0.426152 0.499476 0.669530 0.825135
C24   C     C_R   0.572739 0.498173 0.330958 0.762752
C25   C     C_R   0.976573 0.457346 0.474928 -0.194078
C26   C     C_R   0.019974 0.536155 0.531216 -0.248257
C27   C     C_R   0.378918 0.504223 0.769208 -0.233674
C28   C     C_R   0.611386 0.474487 0.232827 -0.286584
C29   C     C_R   0.226187 0.539954 0.908305 0.406063
C30   C     C_R   0.684357 0.349096 0.109822 0.392678
C31   C     C_R   0.264044 0.533460 0.815009 -0.015374
C32   C     C_R   0.684303 0.395474 0.194258 -0.005732
C33   C     C_R   0.452341 0.482322 0.820087 0.413340
C34   C     C_R   0.552005 0.514548 0.180050 0.443861
C35   C     C_R   0.408478 0.479974 0.913875 -0.040953
C36   C     C_R   0.536410 0.457269 0.101315 -0.016786
C37   C     C_R   0.302558 0.521227 0.957248 -0.075427
C38   C     C_R   0.608871 0.377653 0.064327 -0.094449
C39   C     C_R   0.469868 0.440646 0.966078 -0.047080
C40   C     C_R   0.454637 0.478806 0.055879 0.010311
Cu1   Cu    Cu3+1 0.386820 0.492450 0.493500 0.947759
Cu2   Cu    Cu3+1 0.613180 0.507550 0.506500 0.946542
H1    H     H_    0.196909 0.580649 0.082782 0.153100
H2    H     H_    0.659167 0.265526 0.953262 0.158472
N1    N     N_R   0.216750 0.481110 0.483710 -0.229408
N2    N     N_R   0.783250 0.518890 0.516290 -0.241995
O1    O     O_R   0.419950 0.645670 0.495380 -0.522586
O2    O     O_R   0.580050 0.354330 0.504620 -0.556703
O3    O     O_R   0.611110 0.658410 0.506370 -0.605652
O4    O     O_R   0.388890 0.341590 0.493630 -0.617386
O5    O     O_R   0.350820 0.490050 0.621260 -0.562204
O6    O     O_R   0.649180 0.509950 0.378740 -0.541257
O7    O     O_R   0.541970 0.502800 0.632250 -0.555475
O8    O     O_R   0.458030 0.497200 0.367750 -0.575613
C41   C     C_3   0.252058 0.323869 0.368640 -0.333995
C42   C     C_3   0.248226 0.319124 0.271859 -0.736976
H3    H     H_    0.201329 0.240953 0.254036 0.233919
H4    H     H_    0.200625 0.380871 0.260084 0.291772
H5    H     H_    0.340395 0.329311 0.226415 0.230150
H6    H     H_    0.346187 0.340616 0.365798 0.255491
H7    H     H_    0.223132 0.243316 0.393701 0.139639
C43   C     C_3   0.742791 0.665128 0.641455 -0.290779
C44   C     C_3   0.802874 0.781197 0.635813 -0.869904
H8    H     H_    0.846265 0.804700 0.690010 0.273288
H9    H     H_    0.872413 0.794671 0.572075 0.243363
H10   H     H_    0.734936 0.833885 0.642792 0.236609
H11   H     H_    0.654925 0.662606 0.632296 0.250569
H12   H     H_    0.721274 0.642557 0.710678 0.176989
O9    O     O_3   0.968091 0.648231 0.662834 -0.741170
H13   H     H_    0.900707 0.633446 0.716411 0.324753
O10   O     O_3   0.005333 0.299124 0.382281 -0.733540
H14   H     H_    0.033595 0.235338 0.393772 0.317310
O11   O     O_3   0.521034 0.614849 0.199062 -0.683170
H15   H     H_    0.558678 0.652030 0.244491 0.298162
O12   O     O_3   0.570116 0.471456 0.777413 -0.708048
H16   H     H_    0.620324 0.499358 0.817775 0.313063
C45   C     C_3   0.762908 0.358309 0.241202 -0.258674
C46   C     C_3   0.878516 0.437248 0.232453 -0.671004
H17   H     H_    0.859668 0.513526 0.269080 0.248254
H18   H     H_    0.942146 0.404677 0.258457 0.275227
H19   H     H_    0.922956 0.452069 0.161724 0.224111
H20   H     H_    0.710427 0.343816 0.309791 0.232599
H21   H     H_    0.788467 0.279991 0.213984 0.223690
C47   C     C_3   0.180400 0.564035 0.768100 -0.242277
C48   C     C_3   0.095526 0.467436 0.746435 -0.733642
H22   H     H_    0.144841 0.412876 0.696148 0.251355
H23   H     H_    0.047644 0.424391 0.806997 0.249124
H24   H     H_    0.027739 0.492372 0.720101 0.252906
H25   H     H_    0.125091 0.622163 0.809446 0.238014
H26   H     H_    0.231853 0.608289 0.709871 0.243171
O13   O     O_3   0.112875 0.564375 0.950017 -0.739709
H27   H     H_    0.077119 0.520031 0.001475 0.325956
O14   O     O_3   0.758242 0.274354 0.073136 -0.738153
H28   H     H_    0.705961 0.208477 0.061496 0.310273
O15   O     O_3   0.316356 0.543922 0.189159 -0.707117
H29   H     H_    0.241298 0.575427 0.207867 0.305486
O16   O     O_3   0.521031 0.296415 0.858348 -0.709143
H30   H     H_    0.566092 0.235904 0.848230 0.309541
C49   C     C_3   0.570627 0.165403 0.629484 -0.360316
C50   C     C_3   0.669633 0.258105 0.634786 -0.739935
H31   H     H_    0.753509 0.252503 0.582317 0.221501
H32   H     H_    0.639600 0.334454 0.633837 0.310285
H33   H     H_    0.691320 0.258474 0.698545 0.238810
H34   H     H_    0.486971 0.183833 0.678899 0.219553
H35   H     H_    0.591260 0.094966 0.653927 0.192620
C51   C     C_3   0.430232 0.834448 0.369544 -0.386845
C52   C     C_3   0.334158 0.739101 0.364474 -0.714251
H36   H     H_    0.369467 0.664288 0.360857 0.301796
H37   H     H_    0.252666 0.739220 0.420303 0.233287
H38   H     H_    0.307572 0.740399 0.302780 0.238607
H39   H     H_    0.405696 0.903846 0.346444 0.200578
H40   H     H_    0.514563 0.819670 0.319256 0.197513
C53   C     C_3   0.225667 0.167601 0.581255 -0.401914
C54   C     C_3   0.223945 0.206604 0.676172 -0.814757
H41   H     H_    0.238745 0.142529 0.711906 0.252091
H42   H     H_    0.294488 0.275799 0.677169 0.253188
H43   H     H_    0.135312 0.229930 0.711527 0.236907
H44   H     H_    0.213103 0.231570 0.545189 0.217256
H45   H     H_    0.142691 0.111088 0.585783 0.207204
C55   C     C_3   0.775716 0.830075 0.418901 -0.383628
C56   C     C_3   0.777350 0.783578 0.325721 -0.826123
H46   H     H_    0.769602 0.845520 0.284644 0.247874
H47   H     H_    0.862908 0.752482 0.294407 0.240469
H48   H     H_    0.702688 0.717588 0.327616 0.238941
H49   H     H_    0.859009 0.886745 0.411831 0.201646
H50   H     H_    0.787171 0.768966 0.458200 0.238878
C57   C     C_3   0.783517 0.063086 0.466682 -0.356526
C58   C     C_3   0.847464 0.057562 0.537500 -0.876049
H51   H     H_    0.789219 0.073537 0.604611 0.263174
H52   H     H_    0.874566 0.979125 0.535589 0.248758
H53   H     H_    0.929479 0.117629 0.526268 0.234342
H54   H     H_    0.842975 0.047409 0.399737 0.198377
H55   H     H_    0.770315 0.144736 0.464713 0.209022
C59   C     C_3   0.219127 0.935918 0.530742 -0.356286
C60   C     C_3   0.154586 0.942601 0.460465 -0.876951
H56   H     H_    0.067145 0.889649 0.476444 0.237007
H57   H     H_    0.137866 0.023972 0.457102 0.242671
H58   H     H_    0.207543 0.917040 0.394063 0.261187
H59   H     H_    0.232752 0.854105 0.531789 0.209225
H60   H     H_    0.159964 0.950834 0.597964 0.200314
O17   O     O_3   0.193217 0.634066 0.576116 -0.698957
H61   H     H_    0.156681 0.696001 0.571994 0.334408
O18   O     O_3   0.812583 0.375345 0.415069 -0.692580
H62   H     H_    0.794679 0.309465 0.445900 0.329311

loop_
_geom_bond_atom_site_label_1
_geom_bond_atom_site_label_2
_ccdc_geom_bond_type
C24   O6    A    
C60   H58   S    
C41   C42   S    
C44   H9    S    
C17   O9    S    
C8    C13   A    
C5    C37   A    
C1    C8    S    
Cu1   Cu2   S    
O15   H29   S    
C29   O13   S    
C58   H51   S    
C54   H41   S    
C19   N2    A    
C14   C49   S    
C51   H40   S    
C45   C46   S    
C27   C33   A    
C9    C57   S    
C43   H11   S    
C17   C26   A    
C35   C37   A    
C9    C16   A    
C21   N2    A    
C30   O14   S    
C10   C15   A    
Cu2   O7    S    
C59   H60   S    
C46   H18   S    
C51   C52   S    
C45   H21   S    
C19   C43   S    
C24   O8    A    
C15   C16   A    
O16   H30   S    
C42   H3    S    
C30   C38   A    
O11   H15   S    
C57   H54   S    
C56   H48   S    
C2    O4    A    
C17   C19   A    
C32   C45   S    
C53   H45   S    
C33   O12   S    
C7    C14   A    
C2    C7    S    
C52   H36   S    
C6    C38   A    
C23   C27   S    
C24   C28   S    
C18   C20   A    
C20   N1    A    
C49   H34   S    
C5    H1    S    
C44   H10   S    
C28   C34   A    
C6    H2    S    
C41   H6    S    
C52   H37   S    
C18   C25   A    
C47   H26   S    
C20   C41   S    
C11   C55   S    
C28   C32   A    
C23   O7    A    
C51   H39   S    
C48   H23   S    
C7    C12   A    
C49   H35   S    
C27   C31   A    
C57   H55   S    
C60   H56   S    
C47   C48   S    
C21   O18   S    
C4    C6    A    
O13   H27   S    
C46   H17   S    
C1    O1    A    
C34   O11   S    
C2    O2    A    
C25   C26   A    
C48   H22   S    
C50   H33   S    
C31   C47   S    
C44   H8    S    
C35   C39   A    
O12   H16   S    
C43   C44   S    
C23   O5    A    
C49   C50   S    
C4    C39   A    
C36   C40   A    
C50   H32   S    
Cu1   O1    S    
O14   H28   S    
Cu2   O2    S    
C9    C11   A    
C56   H46   S    
C53   C54   S    
C55   H50   S    
C10   C12   A    
C3    C40   A    
C13   C15   A    
Cu2   N2    S    
C52   H38   S    
C14   C16   A    
C47   H25   S    
C57   C58   S    
C58   H53   S    
Cu1   O4    S    
C59   H59   S    
C55   C56   S    
C12   C53   S    
C48   H24   S    
C18   O10   S    
C60   H57   S    
C21   C25   A    
C55   H49   S    
C10   C59   S    
C13   C51   S    
C3    C5    A    
C58   H52   S    
C54   H42   S    
C59   C60   S    
C42   H5    S    
C43   H12   S    
C36   C38   A    
O10   H14   S    
C29   C31   A    
O17   H61   S    
C30   C32   A    
C46   H19   S    
C45   H20   S    
C8    C11   A    
C41   H7    S    
C22   O17   S    
C50   H31   S    
C33   C35   A    
C42   H4    S    
C34   C36   A    
O9    H13   S    
Cu1   O8    S    
C56   H47   S    
C54   H43   S    
Cu2   O3    S    
C53   H44   S    
C39   C40   A    
C22   N1    A    
C22   C26   A    
C29   C37   A    
Cu1   N1    S    
C3    O15   S    
C4    O16   S    
C1    O3    A    
Cu1   O5    S    
O18   H62   S    
Cu2   O6    S    
