data_mof_unit_61553.cif
_audit_creation_date              2012-12-10T19:47:01-0500
_audit_creation_method            fapswitch 2.2
_symmetry_space_group_name_H-M    P1
_symmetry_Int_Tables_number       1
_space_group_crystal_system       triclinic
_cell_length_a                    28.402814
_cell_length_b                    18.267678
_cell_length_c                    21.662923
_cell_angle_alpha                 90.077148
_cell_angle_beta                  139.96349
_cell_angle_gamma                 89.962861
_cell_volume                      7230.33456462

loop_
_atom_site_label
_atom_site_type_symbol
_atom_type_description
_atom_site_fract_x
_atom_site_fract_y
_atom_site_fract_z
_atom_type_partial_charge
C1    C     C_R   0.858747 0.500005 0.859459 0.949866
C2    C     C_R   0.957997 0.542683 0.239228 -0.202980
C3    C     C_R   0.542042 0.042238 0.761050 -0.203105
C4    C     C_R   0.457997 0.042682 0.239228 -0.202980
C5    C     C_R   0.999814 0.491996 0.686100 -0.094094
C6    C     C_R   0.000122 0.492215 0.313796 -0.092738
C7    C     C_R   0.499814 0.991996 0.686100 -0.094095
C8    C     C_R   0.500122 0.992215 0.313796 -0.092738
C9    C     C_1   0.782266 0.499987 0.782906 -0.201280
C10   C     C_1   0.217734 0.500091 0.216916 -0.205953
C11   C     C_1   0.282266 0.999987 0.782906 -0.201280
C12   C     C_R   0.141246 0.500042 0.140256 0.941582
C13   C     C_1   0.717734 0.000091 0.216916 -0.205953
C14   C     C_1   0.717484 0.499970 0.717919 -0.191079
C15   C     C_1   0.282515 0.500057 0.282021 -0.189692
C16   C     C_1   0.217484 0.999970 0.717919 -0.191079
C17   C     C_1   0.782515 0.000057 0.282021 -0.189692
C18   C     C_R   0.000018 0.641269 0.499993 0.941743
C19   C     C_R   0.999982 0.358731 0.500004 0.907292
C20   C     C_R   0.500018 0.141269 0.499993 0.941743
C21   C     C_R   0.499982 0.858731 0.500004 0.907293
C22   C     C_R   0.000181 0.497314 0.620426 0.869724
C23   C     C_R   0.358747 0.000005 0.859459 0.949866
C24   C     C_R   0.999810 0.497235 0.379557 0.868454
C25   C     C_R   0.500181 0.997314 0.620426 0.869724
C26   C     C_R   0.499810 0.997235 0.379557 0.868453
C27   C     C_R   0.499988 0.640995 0.500022 0.926590
C28   C     C_R   0.500012 0.359009 0.499977 0.925622
C29   C     C_R   0.999988 0.140995 0.500022 0.926590
C30   C     C_R   0.000012 0.859009 0.499977 0.925623
C31   C     C_R   0.640999 0.499979 0.641143 0.927081
C32   C     C_R   0.359001 0.500005 0.358850 0.927090
C33   C     C_R   0.140999 0.999979 0.641143 0.927081
C34   C     C_R   0.641246 0.000042 0.140256 0.941580
C35   C     C_R   0.859001 0.000005 0.358850 0.927090
C36   C     C_1   0.000048 0.717744 0.499970 -0.196166
C37   C     C_1   0.999951 0.282264 0.500027 -0.196440
C38   C     C_1   0.500048 0.217744 0.499970 -0.196166
C39   C     C_1   0.499951 0.782264 0.500027 -0.196439
C40   C     C_R   0.994657 0.499828 0.874411 0.919640
C41   C     C_R   0.004746 0.499986 0.125033 0.908673
C42   C     C_R   0.494657 0.999828 0.874411 0.919640
C43   C     C_R   0.504746 0.999986 0.125033 0.908669
C44   C     C_1   0.500039 0.282530 0.499946 -0.185581
C45   C     C_R   0.037356 0.545110 0.819577 -0.217430
C46   C     C_1   0.499960 0.717479 0.500053 -0.185577
C47   C     C_1   0.000039 0.782530 0.499946 -0.185581
C48   C     C_1   0.999960 0.217479 0.500053 -0.185577
C49   C     C_R   0.885753 0.407519 0.694629 0.094363
C50   C     C_R   0.114419 0.409030 0.304866 0.114016
C51   C     C_R   0.385752 0.907521 0.694628 0.094363
C52   C     C_R   0.614420 0.909031 0.304867 0.114018
C53   C     C_R   0.848448 0.353861 0.623131 -0.180793
C54   C     C_R   0.150602 0.354023 0.374620 -0.166579
C55   C     C_R   0.348446 0.853863 0.623129 -0.180793
C56   C     C_R   0.962483 0.545660 0.180483 -0.212373
C57   C     C_R   0.650603 0.854024 0.374621 -0.166577
C58   C     C_R   0.864812 0.342132 0.577842 -0.157514
C59   C     C_R   0.133777 0.341570 0.419280 -0.164741
C60   C     C_R   0.364809 0.842133 0.577840 -0.157514
C61   C     C_R   0.633778 0.841570 0.419281 -0.164742
C62   C     C_R   0.915751 0.386424 0.599551 -0.168756
C63   C     C_R   0.083501 0.386159 0.398792 -0.169818
C64   C     C_R   0.415750 0.886425 0.599550 -0.168757
C65   C     C_R   0.583501 0.886160 0.398792 -0.169817
C66   C     C_R   0.952742 0.442472 0.669256 0.063139
C67   C     C_R   0.537356 0.045109 0.819578 -0.217430
C68   C     C_R   0.047001 0.442742 0.330122 0.067472
C69   C     C_R   0.452742 0.942472 0.669255 0.063138
C70   C     C_R   0.547001 0.942742 0.330122 0.067472
C71   C     C_R   0.942679 0.449316 0.723547 0.099689
C72   C     C_R   0.057262 0.450155 0.276160 0.077780
C73   C     C_R   0.442678 0.949316 0.723547 0.099689
C74   C     C_R   0.557263 0.950155 0.276160 0.077777
C75   C     C_R   0.988983 0.499107 0.802406 -0.106084
C76   C     C_R   0.010750 0.499724 0.197349 -0.112275
C77   C     C_R   0.488984 0.999107 0.802406 -0.106083
C78   C     C_R   0.462483 0.045660 0.180483 -0.212372
C79   C     C_R   0.510750 0.999724 0.197349 -0.112276
C80   C     C_R   0.042041 0.542239 0.761049 -0.203105
H1    H     H_    0.072553 0.582927 0.879623 0.163905
H2    H     H_    0.362528 0.873584 0.757484 0.206455
H3    H     H_    0.680042 0.889898 0.295323 0.185124
H4    H     H_    0.666594 0.978126 0.300175 0.160480
H5    H     H_    0.805862 0.321530 0.601976 0.139821
H6    H     H_    0.193152 0.321481 0.395921 0.136825
H7    H     H_    0.305859 0.821532 0.601974 0.139821
H8    H     H_    0.693154 0.821482 0.395923 0.136825
H9    H     H_    0.836412 0.299866 0.523703 0.149639
H10   H     H_    0.161599 0.298656 0.472387 0.151279
H11   H     H_    0.336409 0.799868 0.523701 0.149639
H12   H     H_    0.927222 0.583435 0.120527 0.163058
H13   H     H_    0.661600 0.798657 0.472388 0.151279
H14   H     H_    0.926277 0.375840 0.561792 0.151036
H15   H     H_    0.072914 0.375278 0.436419 0.150849
H16   H     H_    0.426275 0.875841 0.561791 0.151037
H17   H     H_    0.572915 0.875278 0.436419 0.150849
H18   H     H_    0.078143 0.579994 0.773552 0.159228
H19   H     H_    0.922017 0.580394 0.227064 0.158754
H20   H     H_    0.578145 0.079993 0.773554 0.159228
H21   H     H_    0.422017 0.080394 0.227064 0.158754
H22   H     H_    0.572555 0.082926 0.879625 0.163904
H23   H     H_    0.427222 0.083435 0.120526 0.163058
H24   H     H_    0.806325 0.439273 0.673700 0.176729
H25   H     H_    0.862530 0.373582 0.757486 0.206455
H26   H     H_    0.180037 0.389893 0.295315 0.185126
H27   H     H_    0.166599 0.478122 0.300181 0.160483
H28   H     H_    0.306324 0.939276 0.673699 0.176729
N1    N     N_3   0.860980 0.422568 0.731029 -0.452130
N2    N     N_3   0.140510 0.427322 0.270581 -0.429227
N3    N     N_3   0.360979 0.922570 0.731028 -0.452131
N4    N     N_3   0.640511 0.927323 0.270581 -0.429224
O1    O     O_R   0.892670 0.439420 0.892670 -0.626871
O2    O     O_R   0.000010 0.560580 0.091620 -0.631694
O3    O     O_R   0.000010 0.439420 0.091620 -0.599231
O4    O     O_R   0.999990 0.560580 0.908380 -0.629023
O5    O     O_R   0.499990 0.939420 0.908380 -0.614136
O6    O     O_R   0.500010 0.060580 0.091620 -0.631693
O7    O     O_R   0.500010 0.939420 0.091620 -0.599230
O8    O     O_R   0.499990 0.060580 0.908380 -0.629023
O9    O     O_R   0.060590 0.607350 0.560620 -0.617814
O10   O     O_R   0.939410 0.392650 0.439380 -0.625144
O11   O     O_R   0.939410 0.607350 0.439380 -0.617299
O12   O     O_R   0.107330 0.560580 0.107330 -0.622298
O13   O     O_R   0.060590 0.392650 0.560620 -0.624636
O14   O     O_R   0.560590 0.107350 0.560620 -0.617814
O15   O     O_R   0.439410 0.892650 0.439380 -0.625145
O16   O     O_R   0.439410 0.107350 0.439380 -0.617299
O17   O     O_R   0.560590 0.892650 0.560620 -0.624636
O18   O     O_R   0.060610 0.500000 0.652240 -0.620975
O19   O     O_R   0.939390 0.500000 0.347760 -0.620675
O20   O     O_R   0.560610 0.000000 0.652240 -0.620975
O21   O     O_R   0.439390 0.000000 0.347760 -0.620675
O22   O     O_R   0.939430 0.500000 0.531050 -0.622894
O23   O     O_R   0.107330 0.439420 0.107330 -0.610864
O24   O     O_R   0.060570 0.500000 0.468950 -0.623194
O25   O     O_R   0.439430 0.000000 0.531050 -0.622894
O26   O     O_R   0.560570 0.000000 0.468950 -0.623194
O27   O     O_R   0.500010 0.607330 0.448300 -0.619638
O28   O     O_R   0.499990 0.392670 0.551700 -0.620212
O29   O     O_R   0.499990 0.607330 0.551700 -0.620125
O30   O     O_R   0.500010 0.392670 0.448300 -0.620448
O31   O     O_R   0.000010 0.107330 0.448300 -0.619638
O32   O     O_R   0.999990 0.892670 0.551700 -0.620212
O33   O     O_R   0.999990 0.107330 0.551700 -0.620125
O34   O     O_R   0.892670 0.560580 0.892670 -0.619213
O35   O     O_R   0.000010 0.892670 0.448300 -0.620448
O36   O     O_R   0.607330 0.500000 0.555630 -0.623498
O37   O     O_R   0.392670 0.500000 0.444370 -0.623957
O38   O     O_R   0.107330 0.000000 0.555630 -0.623498
O39   O     O_R   0.892670 0.000000 0.444370 -0.623957
O40   O     O_R   0.607340 0.500000 0.659080 -0.617630
O41   O     O_R   0.392660 0.500000 0.340920 -0.617404
O42   O     O_R   0.107340 0.000000 0.659080 -0.617629
O43   O     O_R   0.892660 0.000000 0.340920 -0.617404
O44   O     O_R   0.392670 0.939420 0.892670 -0.626871
O45   O     O_R   0.607330 0.060580 0.107330 -0.622299
O46   O     O_R   0.607330 0.939420 0.107330 -0.610862
O47   O     O_R   0.392670 0.060580 0.892670 -0.619213
O48   O     O_R   0.999990 0.439420 0.908380 -0.614135
Zn1   Zn    Zn3+2 0.000000 0.419100 0.000000 0.968284
Zn2   Zn    Zn3+2 0.500000 0.500000 0.569060 0.965953
Zn3   Zn    Zn3+2 0.000000 0.000000 0.430940 0.966697
Zn4   Zn    Zn3+2 0.000000 0.000000 0.569060 0.965952
Zn5   Zn    Zn3+2 0.000000 0.580900 0.000000 0.962590
Zn6   Zn    Zn3+2 0.500000 0.919100 0.000000 0.968286
Zn7   Zn    Zn3+2 0.500000 0.080900 0.000000 0.962590
Zn8   Zn    Zn3+2 0.080920 0.500000 0.580940 0.962000
Zn9   Zn    Zn3+2 0.919080 0.500000 0.419060 0.962756
Zn10  Zn    Zn3+2 0.580920 0.000000 0.580940 0.961999
Zn11  Zn    Zn3+2 0.419080 0.000000 0.419060 0.962755
Zn12  Zn    Zn3+2 0.500000 0.500000 0.430940 0.966698

loop_
_geom_bond_atom_site_label_1
_geom_bond_atom_site_label_2
_ccdc_geom_bond_type
C58   C62   A    
C19   O10   A    
C56   C76   A    
O26   Zn10  S    
C8    C26   S    
C28   O28   A    
C14   C31   S    
C4    C8    A    
O45   Zn7   S    
C30   O35   A    
C38   C44   T    
O38   Zn3   S    
C50   C54   A    
C35   O39   A    
C22   O22   A    
O42   Zn4   S    
C35   O43   A    
C20   O16   A    
C3    C7    A    
C52   C74   A    
C33   O38   A    
C29   O33   A    
H24   N1    S    
C16   C33   S    
C61   H13   S    
C52   N4    S    
O15   Zn11  S    
C65   C70   A    
C29   O31   A    
C63   H15   S    
O6    Zn7   S    
C50   N2    S    
C30   O32   A    
C36   C47   T    
C50   C72   A    
C19   C37   S    
O36   Zn12  S    
C43   O6    A    
C3    H20   S    
C32   O37   A    
O47   Zn7   S    
O22   Zn9   S    
C23   O47   A    
C70   C74   A    
C69   C73   A    
C21   O15   A    
C41   O2    A    
C72   C76   A    
C18   O11   A    
C24   O24   A    
C6    C68   A    
C78   H23   S    
O29   Zn2   S    
C23   O44   A    
O32   Zn4   S    
O23   Zn1   S    
C1    O34   A    
C2    C6    A    
O20   Zn10  S    
C41   O3    A    
O31   Zn3   S    
C54   C59   A    
C45   H1    S    
C62   C66   A    
C29   C48   S    
O17   Zn10  S    
C15   C32   S    
O13   Zn8   S    
C1    C9    S    
C64   H16   S    
C54   H6    S    
C33   O42   A    
O24   Zn8   S    
O43   Zn3   S    
C19   O13   A    
C27   O27   A    
O12   Zn5   S    
C5    C80   A    
C59   H10   S    
O3    Zn1   S    
C25   O25   A    
C9    C14   T    
C4    C78   A    
O14   Zn10  S    
O18   Zn8   S    
C67   C77   A    
C12   O23   A    
C20   C38   S    
C11   C16   T    
C30   C47   S    
C66   C71   A    
C12   O12   A    
O44   Zn6   S    
O5    Zn6   S    
C68   C72   A    
O10   Zn9   S    
C6    C24   S    
C4    H21   S    
C57   H8    S    
O27   Zn12  S    
H4    N4    S    
C64   C69   A    
C37   C48   T    
O7    Zn6   S    
C21   O17   A    
C45   C75   A    
O11   Zn9   S    
C43   C79   S    
C10   C12   S    
O16   Zn11  S    
C39   C46   T    
C31   O36   A    
C34   O46   A    
C27   C46   S    
O34   Zn5   S    
C2    H19   S    
C74   C79   A    
C62   H14   S    
H27   N2    S    
O4    Zn5   S    
C28   O30   A    
O46   Zn6   S    
O2    Zn5   S    
O30   Zn12  S    
H26   N2    S    
C60   H11   S    
O9    Zn8   S    
H25   N1    S    
C63   C68   A    
O19   Zn9   S    
C51   N3    S    
C80   H18   S    
C10   C15   T    
C78   C79   A    
C8    C70   A    
C21   C39   S    
C40   O48   A    
C3    C67   A    
C51   C73   A    
C5    C66   A    
C26   O26   A    
C7    C69   A    
C53   H5    S    
C53   C58   A    
H28   N3    S    
C42   O5    A    
C57   C61   A    
C5    C22   S    
O33   Zn4   S    
C59   C63   A    
C7    C25   S    
C40   C75   S    
C13   C17   T    
C60   C64   A    
O48   Zn1   S    
O21   Zn11  S    
C49   N1    S    
C65   H17   S    
C13   C34   S    
C26   O21   A    
O35   Zn3   S    
H2    N3    S    
C41   C76   S    
C71   C75   A    
C31   O40   A    
C24   O19   A    
C42   O8    A    
C40   O4    A    
C18   C36   S    
C49   C53   A    
O41   Zn12  S    
C11   C23   S    
C27   O29   A    
C28   C44   S    
C20   O14   A    
C45   C80   A    
C51   C55   A    
C1    O1    A    
C55   H7    S    
C58   H9    S    
O40   Zn2   S    
O25   Zn11  S    
C52   C57   A    
C18   O9    A    
O1    Zn1   S    
C32   O41   A    
C34   O45   A    
C61   C65   A    
C56   H12   S    
O8    Zn7   S    
C42   C77   S    
O39   Zn4   S    
C49   C71   A    
C73   C77   A    
H3    N4    S    
C2    C56   A    
O37   Zn2   S    
C17   C35   S    
C55   C60   A    
C25   O20   A    
O28   Zn2   S    
C22   O18   A    
C67   H22   S    
C43   O7    A    
