data_mof_unit_36699.cif
_audit_creation_date              2012-10-26T21:05:40-0400
_audit_creation_method            fapswitch 2.2
_symmetry_space_group_name_H-M    P1
_symmetry_Int_Tables_number       1
_space_group_crystal_system       triclinic
_cell_length_a                    13.058278
_cell_length_b                    9.093873
_cell_length_c                    7.787799
_cell_angle_alpha                 89.9998
_cell_angle_beta                  95.692684
_cell_angle_gamma                 90.000233
_cell_volume                      920.242730759

loop_
_atom_site_label
_atom_site_type_symbol
_atom_type_description
_atom_site_fract_x
_atom_site_fract_y
_atom_site_fract_z
_atom_type_partial_charge
C1    C     C_R   0.500000 0.220050 0.500000 0.532908
C2    C     C_R   0.866814 0.494199 0.711165 -0.209093
C3    C     C_R   0.134509 0.465401 0.600112 0.255448
C4    C     C_R   0.865491 0.465401 0.399889 0.255447
C5    C     C_R   0.027079 0.473576 0.583059 0.012325
C6    C     C_R   0.972919 0.473577 0.416943 0.012335
C7    C     C_1   0.500000 0.065403 0.500000 -0.063570
C8    C     C_1   0.500000 0.934650 0.500000 -0.054697
C9    C     C_3   0.801064 0.283069 0.222707 -0.009141
C10   C     C_3   0.743274 0.246971 0.048608 -0.340617
C11   C     C_3   0.198919 0.283062 0.777304 -0.009130
C12   C     C_R   0.500000 0.779966 0.500000 0.554003
C13   C     C_3   0.256838 0.246973 0.951307 -0.340511
C14   C     C_R   0.300189 0.495593 0.469094 0.550262
C15   C     C_R   0.699811 0.495592 0.530906 0.550247
C16   C     C_R   0.812063 0.485329 0.547348 -0.002711
C17   C     C_R   0.187936 0.485332 0.452652 -0.002711
C18   C     C_R   0.026820 0.482107 0.270725 -0.146627
C19   C     C_R   0.973179 0.482106 0.729276 -0.146649
C20   C     C_R   0.133186 0.494202 0.288835 -0.209091
Cu1   Cu    Cu3+1 0.500010 0.500000 0.669080 1.016549
Cu2   Cu    Cu3+1 0.499990 0.500000 0.330920 1.016568
H1    H     H_    0.827449 0.509525 0.825820 0.166329
H2    H     H_    0.244166 0.238520 0.674884 0.133646
H3    H     H_    0.122827 0.226617 0.769554 0.118354
H4    H     H_    0.209558 0.276500 0.056779 0.139195
H5    H     H_    0.273418 0.127259 0.959086 0.101426
H6    H     H_    0.330663 0.308122 0.967919 0.192759
H7    H     H_    0.172549 0.509527 0.174179 0.166324
H8    H     H_    0.986451 0.485812 0.142814 0.157711
H9    H     H_    0.013548 0.485810 0.857187 0.157701
H10   H     H_    0.755712 0.238574 0.325013 0.133730
H11   H     H_    0.877144 0.226578 0.230635 0.118331
H12   H     H_    0.790668 0.276450 0.943273 0.139177
H13   H     H_    0.726673 0.127263 0.040834 0.101455
H14   H     H_    0.669470 0.308163 0.031808 0.192761
N1    N     N_1   0.499980 0.500000 0.076820 -0.091481
N2    N     N_1   0.500020 0.500000 0.923180 -0.091511
O1    O     O_R   0.500000 0.288400 0.642760 -0.512839
O2    O     O_3   0.186536 0.437175 0.760612 -0.550713
O3    O     O_R   0.500000 0.711600 0.357240 -0.492164
O4    O     O_R   0.500000 0.288400 0.357240 -0.512830
O5    O     O_R   0.500000 0.711600 0.642760 -0.492163
O6    O     O_R   0.349000 0.500000 0.619590 -0.451383
O7    O     O_R   0.651000 0.500000 0.380410 -0.451391
O8    O     O_R   0.348990 0.500000 0.334020 -0.521627
O9    O     O_R   0.651010 0.500000 0.665980 -0.521629
O10   O     O_3   0.813465 0.437181 0.239386 -0.550712

loop_
_geom_bond_atom_site_label_1
_geom_bond_atom_site_label_2
_ccdc_geom_bond_type
C4    C16   A    
C13   H6    S    
N1    N2    T    
C5    C19   A    
Cu1   O6    S    
C2    C16   A    
C9    C10   S    
C1    O4    A    
C1    O1    A    
Cu1   O1    S    
C15   O9    A    
C8    C12   S    
C19   H9    S    
C17   C20   A    
C7    C8    T    
C14   O8    A    
Cu1   O5    S    
Cu1   Cu2   S    
C9    H11   S    
C11   C13   S    
C14   C17   S    
Cu2   O4    S    
C9    O10   S    
C18   H8    S    
C4    C6    A    
Cu2   O8    S    
C3    O2    S    
C3    C17   A    
C12   O5    A    
C18   C20   A    
C20   H7    S    
C5    C6    A    
C6    C18   A    
C10   H13   S    
C13   H4    S    
Cu2   O3    S    
C15   O7    A    
C11   O2    S    
C10   H12   S    
C11   H2    S    
Cu2   O7    S    
C12   O3    A    
C14   O6    A    
C4    O10   S    
C2    H1    S    
C11   H3    S    
C13   H5    S    
C10   H14   S    
C9    H10   S    
Cu1   O9    S    
C2    C19   A    
C1    C7    S    
Cu2   N1    S    
Cu1   N2    S    
C15   C16   S    
C3    C5    A    
