data_mof_unit_43256.cif
_audit_creation_date              2012-12-10T21:00:40-0500
_audit_creation_method            fapswitch 2.2
_symmetry_space_group_name_H-M    P1
_symmetry_Int_Tables_number       1
_space_group_crystal_system       triclinic
_cell_length_a                    18.12766
_cell_length_b                    18.175924
_cell_length_c                    18.326732
_cell_angle_alpha                 119.941604
_cell_angle_beta                  89.958558
_cell_angle_gamma                 119.964637
_cell_volume                      4277.3861434

loop_
_atom_site_label
_atom_site_type_symbol
_atom_type_description
_atom_site_fract_x
_atom_site_fract_y
_atom_site_fract_z
_atom_type_partial_charge
C1    C     C_R   0.109222 0.220104 0.609785 0.784706
C2    C     C_3   0.450565 0.897510 0.947508 0.056955
C3    C     C_3   0.445623 0.032207 0.015675 -0.138289
C4    C     C_3   0.554377 0.967793 0.984325 -0.138285
C5    C     C_3   0.414316 0.445770 0.449440 -0.146243
C6    C     C_3   0.585685 0.554230 0.550561 -0.146243
C7    C     C_3   0.471055 0.401733 0.437084 -0.166157
C8    C     C_3   0.528946 0.598268 0.562917 -0.166156
C9    C     C_3   0.550893 0.500057 0.449494 0.070997
C10   C     C_3   0.449108 0.499944 0.550507 0.070997
C11   C     C_3   0.495123 0.544177 0.461084 -0.195282
C12   C     C_R   0.890780 0.779896 0.390215 0.784698
C13   C     C_3   0.504878 0.455823 0.538917 -0.195278
C14   C     C_R   0.044979 0.136035 0.829878 -0.142099
C15   C     C_R   0.955138 0.864046 0.170144 -0.142100
C16   C     C_R   0.392930 0.781190 0.888321 0.756343
C17   C     C_R   0.607069 0.218810 0.111679 0.756345
C18   C     C_R   0.047228 0.093473 0.742620 -0.140734
C19   C     C_R   0.952859 0.906588 0.257392 -0.140795
C20   C     C_R   0.004217 0.098554 0.683276 0.156795
C21   C     C_R   0.995808 0.901449 0.316728 0.156794
C22   C     C_R   0.958150 0.145692 0.711953 -0.118123
C23   C     C_3   0.982541 0.429792 0.413985 -0.135400
C24   C     C_R   0.041844 0.854272 0.288052 -0.118051
C25   C     C_R   0.955558 0.187555 0.799145 -0.128277
C26   C     C_R   0.044466 0.812428 0.200871 -0.128287
C27   C     C_R   0.999032 0.182809 0.858049 -0.120353
C28   C     C_R   0.001053 0.817234 0.141976 -0.120387
C29   C     C_R   0.954419 0.943534 0.534722 -0.262168
C30   C     C_R   0.045590 0.056466 0.465279 -0.262171
C31   C     C_R   0.948713 0.892241 0.445107 -0.050036
C32   C     C_R   0.051294 0.107759 0.554893 -0.050032
C33   C     C_R   0.995384 0.949270 0.409807 -0.013438
C34   C     C_3   0.017458 0.570207 0.586015 -0.135397
C35   C     C_R   0.004627 0.050730 0.590194 -0.013452
C36   C     C_R   0.630126 0.585667 0.782251 -0.127263
C37   C     C_R   0.369879 0.414336 0.217753 -0.127250
C38   C     C_R   0.583010 0.537743 0.823111 -0.130339
C39   C     C_R   0.417004 0.462259 0.176894 -0.130301
C40   C     C_R   0.111143 0.501169 0.889978 0.788225
C41   C     C_R   0.888857 0.498831 0.110022 0.788223
C42   C     C_R   0.591508 0.598347 0.913005 0.159693
C43   C     C_R   0.408490 0.401654 0.086995 0.159702
C44   C     C_R   0.648040 0.707118 0.961585 -0.135332
C45   C     C_3   0.449541 0.966244 0.922493 -0.175815
C46   C     C_R   0.351934 0.292883 0.038408 -0.135383
C47   C     C_R   0.694403 0.754653 0.920212 -0.146032
C48   C     C_R   0.305562 0.245349 0.079779 -0.146054
C49   C     C_R   0.685358 0.693968 0.830569 -0.098641
C50   C     C_R   0.314622 0.306035 0.169427 -0.098653
C51   C     C_R   0.592391 0.549196 0.014702 -0.262741
C52   C     C_R   0.407609 0.450804 0.985298 -0.262749
C53   C     C_R   0.550510 0.501135 0.057063 -0.045131
C54   C     C_R   0.449489 0.498865 0.942937 -0.045128
C55   C     C_R   0.457106 0.451723 0.042862 -0.021445
C56   C     C_3   0.550459 0.033756 0.077507 -0.175810
C57   C     C_R   0.542894 0.548277 0.957138 -0.021449
C58   C     C_R   0.132990 0.794546 0.958307 -0.171698
C59   C     C_R   0.867034 0.205448 0.041680 -0.171710
C60   C     C_R   0.117701 0.727936 0.982693 -0.111730
C61   C     C_R   0.882315 0.272059 0.017299 -0.111741
C62   C     C_R   0.035753 0.629471 0.938565 0.129708
C63   C     C_R   0.964252 0.370536 0.061439 0.129725
C64   C     C_R   0.392354 0.500098 0.607712 0.767475
C65   C     C_R   0.607646 0.499902 0.392288 0.767472
C66   C     C_R   0.968786 0.599037 0.870763 -0.220690
C67   C     C_3   0.554044 0.037961 0.960031 -0.177773
C68   C     C_R   0.031215 0.400982 0.129253 -0.220678
C69   C     C_R   0.982927 0.665888 0.846230 0.171527
C70   C     C_R   0.017083 0.334130 0.153782 0.171527
C71   C     C_R   0.066250 0.764279 0.890818 -0.131106
C72   C     C_R   0.933772 0.235726 0.109178 -0.131101
C73   C     C_R   0.961658 0.554760 0.018490 -0.280634
C74   C     C_R   0.038340 0.445239 0.981509 -0.280626
C75   C     C_R   0.944324 0.496176 0.052552 -0.054527
C76   C     C_R   0.055676 0.503825 0.947448 -0.054524
C77   C     C_R   0.982184 0.439184 0.032665 0.000965
C78   C     C_3   0.445956 0.962039 0.039969 -0.177780
C79   C     C_R   0.017817 0.560818 0.967336 0.000972
C80   C     C_R   0.393921 0.498875 0.887539 0.795184
C81   C     C_R   0.606079 0.501125 0.112461 0.795183
C82   C     C_R   0.109045 0.500331 0.607741 0.767960
C83   C     C_R   0.890955 0.499669 0.392259 0.767956
C84   C     C_3   0.077697 0.525097 0.482202 -0.183531
C85   C     C_3   0.922301 0.474902 0.517798 -0.183522
C86   C     C_3   0.042935 0.594703 0.516501 -0.178877
C87   C     C_3   0.957063 0.405296 0.483500 -0.178878
C88   C     C_3   0.948629 0.499415 0.449091 0.060900
C89   C     C_3   0.549435 0.102490 0.052491 0.056957
C90   C     C_3   0.051369 0.500584 0.550909 0.060899
C91   C     C_3   0.907207 0.627788 0.772599 -0.451304
C92   C     C_3   0.922282 0.708182 0.755529 -0.360300
C93   C     C_3   0.842867 0.661318 0.679579 -0.862254
C94   C     C_3   0.092801 0.372242 0.227424 -0.451303
C95   C     C_3   0.077739 0.291847 0.244487 -0.360309
C96   C     C_3   0.157148 0.338722 0.320448 -0.862250
H1    H     H_    0.077267 0.672480 0.529237 0.126394
H2    H     H_    0.075922 0.850514 0.333288 0.099174
H3    H     H_    0.919735 0.223508 0.820998 0.124889
H4    H     H_    0.080267 0.776448 0.179020 0.124894
H5    H     H_    0.917624 0.899972 0.561650 0.171237
H6    H     H_    0.082386 0.100029 0.438353 0.171235
H7    H     H_    0.721376 0.730882 0.798678 0.120470
H8    H     H_    0.278597 0.269122 0.201316 0.120481
H9    H     H_    0.624182 0.538928 0.713289 0.111550
H10   H     H_    0.375835 0.461075 0.286718 0.111547
H11   H     H_    0.540267 0.453775 0.785051 0.102369
H12   H     H_    0.922731 0.327518 0.470764 0.126395
H13   H     H_    0.459765 0.546227 0.214960 0.102356
H14   H     H_    0.655642 0.754817 0.031139 0.117225
H15   H     H_    0.344319 0.245184 0.968850 0.117231
H16   H     H_    0.142466 0.546242 0.468687 0.121283
H17   H     H_    0.857533 0.453759 0.531314 0.121284
H18   H     H_    0.737460 0.838512 0.957680 0.116617
H19   H     H_    0.262486 0.161490 0.042305 0.116625
H20   H     H_    0.664038 0.586066 0.024707 0.175844
H21   H     H_    0.335962 0.413934 0.975292 0.175841
H22   H     H_    0.080671 0.818532 0.874500 0.111988
H23   H     H_    0.997156 0.215240 0.925504 0.137796
H24   H     H_    0.919359 0.181469 0.125491 0.111988
H25   H     H_    0.196605 0.870281 0.992282 0.130562
H26   H     H_    0.803428 0.129702 0.007692 0.130558
H27   H     H_    0.169472 0.752967 0.036001 0.110872
H28   H     H_    0.830547 0.247018 0.963982 0.110870
H29   H     H_    0.905090 0.523307 0.837511 0.122691
H30   H     H_    0.094903 0.476722 0.162516 0.122683
H31   H     H_    0.931958 0.597393 0.032415 0.178100
H32   H     H_    0.068040 0.402605 0.967582 0.178091
H33   H     H_    0.966273 0.371982 0.342353 0.148000
H34   H     H_    0.002952 0.784819 0.074529 0.137816
H35   H     H_    0.033724 0.628015 0.657647 0.147996
H36   H     H_    0.599117 0.070282 0.927654 0.122279
H37   H     H_    0.400883 0.929717 0.072346 0.122277
H38   H     H_    0.407578 0.937470 0.858112 0.124811
H39   H     H_    0.592422 0.062529 0.141888 0.124811
H40   H     H_    0.401071 0.059347 0.028943 0.135565
H41   H     H_    0.598928 0.940653 0.971057 0.135561
H42   H     H_    0.448299 0.321167 0.384417 0.130413
H43   H     H_    0.551702 0.678833 0.615584 0.130411
H44   H     H_    0.343149 0.401063 0.408686 0.139891
H45   H     H_    0.078535 0.132381 0.875554 0.125251
H46   H     H_    0.656852 0.598937 0.591314 0.139893
H47   H     H_    0.493149 0.581649 0.429125 0.118587
H48   H     H_    0.506853 0.418354 0.570878 0.118591
H49   H     H_    0.836685 0.597644 0.616077 0.268185
H50   H     H_    0.779150 0.630197 0.694510 0.244134
H51   H     H_    0.853691 0.721997 0.671133 0.250583
H52   H     H_    0.930053 0.775414 0.816999 0.218639
H53   H     H_    0.984116 0.736146 0.737001 0.214619
H54   H     H_    0.896223 0.559175 0.709972 0.200900
H55   H     H_    0.844449 0.601308 0.790226 0.204158
H56   H     H_    0.921631 0.867748 0.124475 0.125257
H57   H     H_    0.220873 0.369870 0.305536 0.244133
H58   H     H_    0.163307 0.402377 0.383949 0.268190
H59   H     H_    0.146335 0.278042 0.328887 0.250579
H60   H     H_    0.015896 0.263859 0.262998 0.214619
H61   H     H_    0.069989 0.224631 0.183020 0.218638
H62   H     H_    0.155566 0.398745 0.209811 0.204153
H63   H     H_    0.103766 0.440842 0.290048 0.200902
H64   H     H_    0.082538 0.056778 0.721272 0.119477
H65   H     H_    0.917576 0.943317 0.278739 0.119492
H66   H     H_    0.924027 0.149407 0.666711 0.099199
O1    O     O_3   0.251620 0.500000 0.748430 -0.478264
O2    O     O_R   0.570330 0.268390 0.136490 -0.641323
O3    O     O_R   0.134680 0.268390 0.572240 -0.650019
O4    O     O_R   0.865320 0.731610 0.427760 -0.650018
O5    O     O_R   0.306670 0.731630 0.863510 -0.638840
O6    O     O_R   0.693330 0.268370 0.136490 -0.638837
O7    O     O_R   0.135450 0.439270 0.865360 -0.641736
O8    O     O_R   0.864550 0.560730 0.134640 -0.641740
O9    O     O_R   0.429670 0.560710 0.692610 -0.635831
O10   O     O_R   0.570330 0.439290 0.307390 -0.635832
O11   O     O_R   0.308540 0.439240 0.865360 -0.652162
O12   O     O_3   0.748380 0.500000 0.251570 -0.478264
O13   O     O_R   0.691460 0.560760 0.134640 -0.652159
O14   O     O_R   0.133580 0.439310 0.571150 -0.644011
O15   O     O_R   0.866420 0.560690 0.428850 -0.644010
O16   O     O_R   0.430770 0.560690 0.864590 -0.634768
O17   O     O_R   0.569230 0.439310 0.135410 -0.634769
O18   O     O_R   0.133580 0.560760 0.692610 -0.642689
O19   O     O_R   0.866420 0.439240 0.307390 -0.642691
O20   O     O_R   0.134680 0.560740 0.864590 -0.635652
O21   O     O_R   0.865320 0.439260 0.135410 -0.635651
O22   O     O_R   0.306670 0.439270 0.571150 -0.649406
O23   O     O_R   0.693330 0.560730 0.428850 -0.649406
O24   O     O_R   0.135450 0.268370 0.694460 -0.632964
O25   O     O_R   0.864550 0.731630 0.305540 -0.632969
O26   O     O_R   0.429670 0.731610 0.863510 -0.641324
Zn1   Zn    Zn3+2 0.207400 0.586780 0.791530 0.966415
Zn2   Zn    Zn3+2 0.792600 0.413220 0.208470 0.966415
Zn3   Zn    Zn3+2 0.208510 0.413230 0.792630 0.965566
Zn4   Zn    Zn3+2 0.791490 0.586770 0.207370 0.965564
Zn5   Zn    Zn3+2 0.383150 0.586740 0.791530 0.969280
Zn6   Zn    Zn3+2 0.616850 0.413260 0.208470 0.969282
Zn7   Zn    Zn3+2 0.207400 0.413250 0.618010 0.948191
Zn8   Zn    Zn3+2 0.792600 0.586750 0.381990 0.948189

loop_
_geom_bond_atom_site_label_1
_geom_bond_atom_site_label_2
_ccdc_geom_bond_type
C47   H18   S    
C91   H55   S    
O12   Zn8   S    
C94   H63   S    
O15   Zn8   S    
C92   H52   S    
C14   C18   A    
O10   Zn6   S    
C95   C96   S    
C84   C90   S    
C76   C79   A    
O9    Zn5   S    
C66   C69   A    
C6    C9    S    
C7    C13   S    
C56   C78   S    
C47   C49   A    
C1    O24   A    
C15   C19   A    
C83   O19   A    
C45   H38   S    
C84   H16   S    
C74   C76   A    
C61   H28   S    
C24   H2    S    
C74   H32   S    
C81   O13   A    
C53   C81   S    
C70   C94   S    
O4    Zn8   S    
C80   O11   A    
C38   C42   A    
O18   Zn1   S    
C12   O4    A    
C22   H66   S    
C86   C88   S    
C58   C71   A    
C96   H59   S    
C21   C33   S    
O1    Zn5   S    
C16   O5    A    
C58   C60   A    
O8    Zn4   S    
C67   C89   S    
O6    Zn2   S    
C23   H33   S    
C60   C62   A    
C95   H60   S    
C19   H65   S    
C13   H48   S    
C38   H11   S    
C61   C63   A    
C86   H1    S    
C15   H56   S    
C91   H54   S    
C4    H41   S    
C20   C35   S    
C25   H3    S    
C96   H58   S    
C87   H12   S    
C67   H36   S    
C74   C77   A    
C45   C67   S    
C31   C33   A    
C93   H49   S    
C51   C57   A    
O20   Zn1   S    
O1    Zn7   S    
C14   C27   A    
C6    H46   S    
C2    C16   S    
C40   O20   A    
O2    Zn6   S    
C71   H22   S    
C44   C47   A    
C59   C72   A    
C52   H21   S    
C59   H26   S    
C48   C50   A    
C83   C88   S    
C14   H45   S    
C94   H62   S    
C23   C87   S    
C46   H15   S    
C4    C56   S    
C73   C75   A    
C72   H24   S    
C42   C44   A    
O3    Zn7   S    
C42   C57   S    
C5    C10   S    
C40   O7    A    
C43   C46   A    
C52   C54   A    
C54   C80   S    
C53   C55   A    
C2    C45   S    
O5    Zn1   S    
O16   Zn5   S    
C65   O23   A    
C59   C61   A    
C69   C71   A    
C23   C84   S    
C83   O15   A    
C85   C87   S    
C32   C35   A    
C62   C79   S    
C17   C89   S    
C81   O17   A    
C16   O26   A    
O13   Zn4   S    
C5    C7    S    
C62   C66   A    
C6    C8    S    
C65   O10   A    
C73   H31   S    
C12   O25   A    
O11   Zn3   S    
C1    C32   S    
C40   C76   S    
C51   C53   A    
C34   C85   S    
C80   O16   A    
C37   C39   A    
C60   H27   S    
C2    C4    S    
C34   C90   S    
C2    C78   S    
C17   O2    A    
C7    H42   S    
C9    C11   S    
O19   Zn2   S    
C96   H57   S    
C1    O3    A    
C30   H6    S    
C73   C79   A    
C29   H5    S    
C93   H50   S    
O1    Zn1   S    
C75   C77   A    
O25   Zn4   S    
C41   C75   S    
O12   Zn2   S    
C48   H19   S    
C43   C55   S    
C56   C89   S    
C22   C25   A    
C82   O14   A    
C34   H35   S    
O12   Zn6   S    
C23   C88   S    
C8    H43   S    
C12   C31   S    
C21   C24   A    
O7    Zn3   S    
O23   Zn8   S    
O21   Zn2   S    
C68   H30   S    
C91   C92   S    
C56   H39   S    
C5    H44   S    
O24   Zn3   S    
C85   C88   S    
C7    C9    S    
C63   C68   A    
C58   H25   S    
C30   C33   A    
C19   C21   A    
C36   H9    S    
C95   H61   S    
C8    C10   S    
C10   C64   S    
C24   C26   A    
C20   C22   A    
C10   C13   S    
C49   H7    S    
C4    C67   S    
C39   C43   A    
C52   C55   A    
C5    C11   S    
C27   H23   S    
C25   C27   A    
O22   Zn7   S    
C41   O8    A    
C29   C35   A    
C26   C28   A    
C51   H20   S    
C82   C90   S    
C66   H29   S    
C34   C86   S    
C3    C89   S    
C64   O9    A    
C85   H17   S    
C37   H10   S    
C29   C31   A    
O12   Zn4   S    
C6    C13   S    
C30   C32   A    
C37   C50   A    
C28   H34   S    
C15   C28   A    
C8    C11   S    
C84   C86   S    
C36   C38   A    
C92   C93   S    
C3    C45   S    
C93   H51   S    
C18   C20   A    
O14   Zn7   S    
C94   C95   S    
C78   H37   S    
C9    C65   S    
C18   H64   S    
C36   C49   A    
C64   O22   A    
C46   C48   A    
C92   H53   S    
C39   H13   S    
C70   C72   A    
C68   C70   A    
O26   Zn5   S    
C87   C90   S    
C82   O18   A    
C63   C77   S    
C17   O6    A    
C41   O21   A    
O1    Zn3   S    
C3    H40   S    
C69   C91   S    
C3    C78   S    
C11   H47   S    
C54   C57   A    
C50   H8    S    
C26   H4    S    
O17   Zn6   S    
C44   H14   S    
