data_mof_unit_67350.cif
_audit_creation_date              2013-03-05T16:08:10-0500
_audit_creation_method            fapswitch 2.2
_symmetry_space_group_name_H-M    P1
_symmetry_Int_Tables_number       1
_space_group_crystal_system       triclinic
_cell_length_a                    20.172127
_cell_length_b                    22.975335
_cell_length_c                    8.998246
_cell_angle_alpha                 89.781965
_cell_angle_beta                  104.020087
_cell_angle_gamma                 89.853328
_cell_volume                      4046.05325974

loop_
_atom_site_label
_atom_site_type_symbol
_atom_site_description
_atom_site_fract_x
_atom_site_fract_y
_atom_site_fract_z
_atom_type_partial_charge
P1    P     P_3+3 0.853370 0.434890 0.996520 0.482490
P2    P     P_3+3 0.853370 0.565110 0.496520 0.470693
P3    P     P_3+3 0.353370 0.934890 0.996520 0.477942
P4    P     P_3+3 0.353370 0.065110 0.496520 0.474004
O1    O     O_2   0.860260 0.414960 0.826400 -0.385234
O2    O     O_2   0.860260 0.585040 0.326400 -0.314501
O3    O     O_2   0.360260 0.914960 0.826400 -0.382837
O4    O     O_2   0.360260 0.085040 0.326400 -0.323527
O5    O     O_3   0.918600 0.470180 0.098890 -0.394570
O6    O     O_3   0.918600 0.529820 0.598890 -0.423215
O7    O     O_3   0.418600 0.970180 0.098890 -0.391215
O8    O     O_3   0.418600 0.029820 0.598890 -0.417105
O9    O     O_3   0.975750 0.362410 0.628650 -0.262985
O10   O     O_3   0.975750 0.637590 0.128650 -0.259362
O11   O     O_3   0.475750 0.862410 0.628650 -0.280169
O12   O     O_3   0.475750 0.137590 0.128650 -0.257324
O13   O     O_2   0.845461 0.349785 0.617814 -0.402196
O14   O     O_2   0.860632 0.683165 0.147811 -0.384407
O15   O     O_2   0.345275 0.845108 0.622800 -0.400870
O16   O     O_2   0.358753 0.180601 0.143047 -0.390238
O17   O     O_3   0.786477 0.485672 0.952459 -0.537332
O18   O     O_3   0.781277 0.520967 0.455114 -0.618277
O19   O     O_3   0.286518 0.985443 0.954277 -0.539202
O20   O     O_3   0.281074 0.020750 0.454116 -0.615748
O21   O     O_3   0.907432 0.254692 0.668845 -0.513718
O22   O     O_3   0.949347 0.760297 0.114818 -0.540945
O23   O     O_3   0.415697 0.751657 0.650262 -0.518097
O24   O     O_3   0.446548 0.259426 0.118855 -0.540678
C1    C     C_3   0.935066 0.153680 0.673929 -0.771583
C2    C     C_3   0.016840 0.835750 0.029899 -0.731490
C3    C     C_3   0.449434 0.652996 0.603093 -0.706893
C4    C     C_3   0.502302 0.341075 0.028338 -0.699286
H1    H     H_    0.922163 0.154862 0.786114 0.282361
H2    H     H_    0.050101 0.862116 0.119168 0.307849
H3    H     H_    0.495684 0.626673 0.604818 0.305106
H4    H     H_    0.537897 0.367945 0.111883 0.310284
H5    H     H_    0.889992 0.137861 0.589596 0.249197
H6    H     H_    0.966792 0.857710 0.003277 0.274067
H7    H     H_    0.429247 0.642261 0.702647 0.305859
H8    H     H_    0.450048 0.359407 0.013216 0.280614
P5    P     P_3+3 0.146350 0.434230 0.693140 0.539989
P6    P     P_3+3 0.146350 0.565770 0.193140 0.515358
P7    P     P_3+3 0.646350 0.934230 0.693140 0.515436
P8    P     P_3+3 0.646350 0.065770 0.193140 0.507049
P9    P     P_3+3 0.089753 0.310013 0.123377 0.582996
P10   P     P_3+3 0.087760 0.690928 0.627287 0.584363
P11   P     P_3+3 0.589045 0.810154 0.122817 0.578833
P12   P     P_3+3 0.587965 0.190637 0.625966 0.570505
O25   O     O_2   0.139400 0.414340 0.863230 -0.319027
O26   O     O_2   0.139400 0.585660 0.363230 -0.350968
O27   O     O_2   0.639400 0.914340 0.863230 -0.333435
O28   O     O_2   0.639400 0.085660 0.363230 -0.354209
O29   O     O_3   0.023740 0.362300 0.060930 -0.295795
O30   O     O_3   0.023740 0.637700 0.560930 -0.285447
O31   O     O_3   0.523740 0.862300 0.060930 -0.318026
O32   O     O_3   0.523740 0.137700 0.560930 -0.290401
O33   O     O_2   0.133760 0.321242 0.008434 -0.304835
O34   O     O_2   0.142615 0.670616 0.546884 -0.347788
O35   O     O_2   0.638014 0.827852 0.023855 -0.312036
O36   O     O_2   0.643133 0.169584 0.546986 -0.369910
O37   O     O_3   0.209420 0.486424 0.755665 -0.534766
O38   O     O_3   0.211222 0.513514 0.245616 -0.562974
O39   O     O_3   0.717499 0.978758 0.760650 -0.577653
O40   O     O_3   0.717856 0.019950 0.258317 -0.602330
O41   O     O_3   0.056756 0.237589 0.075934 -0.499816
O42   O     O_3   0.061042 0.759841 0.539750 -0.488030
O43   O     O_3   0.560692 0.740074 0.048186 -0.496769
O44   O     O_3   0.560869 0.258815 0.534783 -0.477757
C5    C     C_3   0.003338 0.219453 0.145760 0.102425
C6    C     C_3   0.993896 0.781648 0.542501 0.060834
C7    C     C_3   0.499519 0.715022 0.075353 0.093401
C8    C     C_3   0.494124 0.281305 0.537979 0.099465
C9    C     C_3   0.000375 0.150502 0.167557 -0.189309
C10   C     C_3   0.992903 0.849856 0.523842 -0.128970
C11   C     C_3   0.505582 0.646345 0.081287 -0.156512
C12   C     C_3   0.494301 0.349475 0.522095 -0.137780
C13   C     C_3   0.251885 0.510881 0.138316 0.119762
C14   C     C_3   0.248655 0.496432 0.649035 0.168060
C15   C     C_3   0.737595 0.988433 0.141892 0.069832
C16   C     C_3   0.737149 0.012071 0.647415 0.163918
H9    H     H_    0.226360 0.530524 0.025618 0.123344
H10   H     H_    0.221536 0.484077 0.530368 0.079891
H11   H     H_    0.698515 0.991447 0.031896 0.167820
H12   H     H_    0.698838 0.010879 0.536450 0.114956
C17   C     C_3   0.318818 0.543823 0.205402 -0.699898
C18   C     C_3   0.316965 0.463326 0.700726 -0.666322
C19   C     C_3   0.807345 0.009454 0.116928 -0.612558
C20   C     C_3   0.808430 0.992811 0.625468 -0.747760
H13   H     H_    0.308118 0.589603 0.225667 0.202865
H14   H     H_    0.308368 0.419133 0.738992 0.209343
H15   H     H_    0.850272 0.980500 0.175322 0.214095
H16   H     H_    0.849736 0.023514 0.679620 0.228551
H17   H     H_    0.344487 0.524730 0.317358 0.236175
H18   H     H_    0.351213 0.485145 0.799878 0.239247
H19   H     H_    0.806097 0.007099 0.993549 0.237725
H20   H     H_    0.807902 0.993371 0.502048 0.231211
Ba1   Ba    Ba6+2 0.999900 0.457470 0.844900 1.702717
Ba2   Ba    Ba6+2 0.999900 0.542530 0.344900 1.699920
Ba3   Ba    Ba6+2 0.499900 0.957470 0.844900 1.678849
Ba4   Ba    Ba6+2 0.499900 0.042530 0.344900 1.679318
C21   C     C_3   0.781782 0.509242 0.805352 0.258013
C22   C     C_3   0.795102 0.468880 0.389457 0.099670
C23   C     C_3   0.279897 0.008525 0.806087 0.224530
C24   C     C_3   0.294264 0.968847 0.385739 0.119162
H21   H     H_    0.771061 0.475513 0.717211 0.141234
H22   H     H_    0.818138 0.477086 0.290933 0.134457
H23   H     H_    0.269113 0.974440 0.718523 0.143501
H24   H     H_    0.315912 0.977643 0.285512 0.139943
H25   H     H_    0.831038 0.529331 0.801980 0.097573
H26   H     H_    0.831480 0.443083 0.477145 0.161780
H27   H     H_    0.328175 0.029603 0.799445 0.092420
H28   H     H_    0.331709 0.942880 0.471327 0.156416
C25   C     C_3   0.724632 0.554970 0.761077 -0.823240
C26   C     C_3   0.728048 0.434585 0.335014 -0.748396
C27   C     C_3   0.221239 0.052806 0.765830 -0.795499
C28   C     C_3   0.227343 0.933583 0.334556 -0.748496
H29   H     H_    0.729438 0.574852 0.651714 0.136027
H30   H     H_    0.741187 0.387535 0.337628 0.158244
H31   H     H_    0.221321 0.071792 0.652105 0.137082
H32   H     H_    0.241340 0.886655 0.342761 0.169047
O45   O     O_3   0.081330 0.529680 0.090830 -0.358529
O46   O     O_3   0.081330 0.470320 0.590830 -0.365236
O47   O     O_3   0.581330 0.029680 0.090830 -0.385082
O48   O     O_3   0.581330 0.970320 0.590830 -0.376237
P13   P     P_3+3 0.913893 0.691206 0.052635 0.532251
P14   P     P_3+3 0.901139 0.318574 0.558197 0.522031
P15   P     P_3+3 0.413144 0.190475 0.051497 0.527986
P16   P     P_3+3 0.401693 0.819070 0.554913 0.464962
C29   C     C_3   0.953972 0.214674 0.631466 0.258923
C30   C     C_3   0.011295 0.771101 0.071063 0.297195
C31   C     C_3   0.463344 0.718163 0.596244 0.179456
C32   C     C_3   0.504606 0.275317 0.065763 0.284671
H33   H     H_    0.950734 0.214039 0.507123 0.045433
H34   H     H_    0.015317 0.744520 0.973383 0.047213
H35   H     H_    0.455024 0.724948 0.477976 0.129423
H36   H     H_    0.507626 0.250863 0.964883 0.046915
H37   H     H_    0.976356 0.121528 0.675411 0.318998
H38   H     H_    0.040810 0.838177 0.932731 0.219978
H39   H     H_    0.411001 0.639360 0.498563 0.227867
H40   H     H_    0.519664 0.347624 0.923349 0.208847
H41   H     H_    0.950838 0.142533 0.196909 0.088720
H42   H     H_    0.939770 0.866259 0.509116 0.193756
H43   H     H_    0.455473 0.629560 0.091407 0.109277
H44   H     H_    0.441893 0.366130 0.512421 0.155981
C33   C     C_R   0.138828 0.690775 0.836752 0.128207
C34   C     C_R   0.148260 0.315252 0.327570 0.106883
C35   C     C_R   0.637560 0.191581 0.836880 0.108651
C36   C     C_R   0.643226 0.811590 0.332030 0.232406
C37   C     C_R   0.190060 0.733139 0.900472 -0.091549
C38   C     C_R   0.198690 0.271652 0.394034 0.013810
C39   C     C_R   0.690122 0.233080 0.899785 -0.087310
C40   C     C_R   0.694769 0.768802 0.397788 0.025096
C41   C     C_R   0.783298 0.323963 0.037146 -0.046045
C42   C     C_R   0.789634 0.678613 0.540906 -0.037945
C43   C     C_R   0.283427 0.824001 0.035775 -0.065275
C44   C     C_R   0.290519 0.179696 0.538149 -0.044167
C45   C     C_R   0.749507 0.325370 0.882976 -0.208235
C46   C     C_R   0.753081 0.674674 0.391947 -0.219179
C47   C     C_R   0.247622 0.826101 0.882603 -0.146597
C48   C     C_R   0.253325 0.175760 0.389271 -0.195948
C49   C     C_R   0.209794 0.778348 0.812954 -0.042605
C50   C     C_R   0.213161 0.221329 0.314344 -0.101901
C51   C     C_R   0.711038 0.278123 0.812611 -0.047960
C52   C     C_R   0.712405 0.719957 0.317453 -0.129335
C53   C     C_R   0.832276 0.367732 0.102167 0.167728
C54   C     C_R   0.837655 0.634089 0.604999 0.218595
C55   C     C_R   0.333256 0.867282 0.100014 0.209087
C56   C     C_R   0.337442 0.134397 0.603327 0.219650
H45   H     H_    0.758987 0.360277 0.810817 0.207098
H46   H     H_    0.757015 0.635747 0.329214 0.170562
H47   H     H_    0.257076 0.860885 0.809925 0.195276
H48   H     H_    0.256307 0.136496 0.327557 0.179060
C57   C     C_R   0.865391 0.362501 0.257233 -0.355007
C58   C     C_R   0.870008 0.638910 0.760984 -0.346810
C59   C     C_R   0.367853 0.861628 0.253695 -0.451435
C60   C     C_R   0.369618 0.139094 0.759239 -0.334696
C61   C     C_R   0.164640 0.635952 0.084362 0.017204
C62   C     C_R   0.167775 0.366111 0.581776 0.076433
C63   C     C_R   0.662569 0.136934 0.085825 0.096545
C64   C     C_R   0.663402 0.863375 0.585143 0.093016
C65   C     C_R   0.213457 0.680548 0.147164 -0.014755
C66   C     C_R   0.218097 0.322582 0.644436 -0.028192
C67   C     C_R   0.712698 0.180514 0.147416 -0.024726
C68   C     C_R   0.714299 0.820123 0.646817 -0.009039
C69   C     C_R   0.224626 0.729690 0.057475 0.149801
C70   C     C_R   0.232162 0.274977 0.553286 0.094531
C71   C     C_R   0.724101 0.229683 0.057629 0.193134
C72   C     C_R   0.728537 0.772463 0.556510 0.085883
C73   C     C_R   0.250186 0.678718 0.299408 -0.200089
C74   C     C_R   0.254476 0.324522 0.797599 -0.125371
C75   C     C_R   0.752061 0.176748 0.297475 -0.128312
C76   C     C_R   0.752050 0.823165 0.797875 -0.097676
C77   C     C_R   0.799363 0.219635 0.359910 -0.173812
C78   C     C_R   0.800395 0.780888 0.863923 -0.161891
C79   C     C_R   0.297841 0.721352 0.361752 -0.129747
C80   C     C_R   0.303479 0.282612 0.861291 -0.157610
C81   C     C_R   0.809229 0.269915 0.279879 -0.086633
C82   C     C_R   0.812928 0.731779 0.781925 -0.019239
C83   C     C_R   0.309075 0.770803 0.279570 0.055331
C84   C     C_R   0.315469 0.233426 0.778692 0.005540
C85   C     C_R   0.771997 0.274757 0.125217 0.147742
C86   C     C_R   0.777400 0.727801 0.626344 0.085334
C87   C     C_R   0.272323 0.774966 0.124440 0.121724
C88   C     C_R   0.279815 0.229595 0.623109 0.101818
C89   C     C_R   0.855539 0.315003 0.348144 0.236379
C90   C     C_R   0.861246 0.687535 0.849302 0.219987
C91   C     C_R   0.357689 0.814828 0.345213 0.140625
C92   C     C_R   0.362383 0.188292 0.846740 0.237401
C93   C     C_R   0.127224 0.644551 0.931381 -0.341599
C94   C     C_R   0.133227 0.359579 0.425194 -0.410473
C95   C     C_R   0.624178 0.146340 0.933387 -0.322851
C96   C     C_R   0.627422 0.855650 0.429903 -0.358436
H49   H     H_    0.828041 0.212259 0.472969 0.226118
H50   H     H_    0.827515 0.787255 0.981670 0.227988
H51   H     H_    0.325539 0.714559 0.476324 0.218516
H52   H     H_    0.330265 0.288519 0.979331 0.229374
H53   H     H_    0.242427 0.643520 0.371553 0.202638
H54   H     H_    0.245131 0.358508 0.871338 0.225123
H55   H     H_    0.747414 0.139821 0.368055 0.228405
H56   H     H_    0.744809 0.859403 0.865381 0.228245
H57   H     H_    0.899104 0.396915 0.309795 0.180416
H58   H     H_    0.901389 0.603527 0.815813 0.187754
H59   H     H_    0.400317 0.896654 0.305982 0.195241
H60   H     H_    0.399270 0.102935 0.814924 0.179298
C97   C     C_2   0.025601 0.227736 0.718050 1.070061
O49   O     O_2   0.039140 0.274249 0.782337 -0.531401
O50   O     O_R   0.077749 0.188058 0.716385 -0.708143
H61   H     H_    0.123915 0.205770 0.760863 0.351024
C98   C     C_2   0.072390 0.753488 0.190887 1.039101
O51   O     O_2   0.125800 0.780638 0.209478 -0.654750
O52   O     O_R   0.071068 0.701473 0.265918 -0.691332
H62   H     H_    0.118529 0.685801 0.297969 0.341156
C99   C     C_2   0.536218 0.734113 0.669063 1.106618
O53   O     O_2   0.549497 0.773146 0.762800 -0.539848
O54   O     O_R   0.588856 0.705712 0.622763 -0.739206
H63   H     H_    0.635114 0.721420 0.676265 0.338834
C100  C     C_2   0.569803 0.259486 0.175619 1.028479
O55   O     O_2   0.621515 0.287785 0.180067 -0.669870
O56   O     O_R   0.573413 0.208445 0.258759 -0.698316
H64   H     H_    0.622399 0.197947 0.303417 0.340647
C101  C     C_2   0.366931 0.542739 0.102930 1.108070
O57   O     O_2   0.353097 0.569466 0.981708 -0.605749
O58   O     O_R   0.426494 0.509397 0.145624 -0.688226
H65   H     H_    0.450733 0.504807 0.060379 0.385922
C102  C     C_2   0.352421 0.457244 0.574149 1.115495
O59   O     O_2   0.404214 0.485102 0.576639 -0.524539
O60   O     O_R   0.326273 0.418971 0.454682 -0.797349
H66   H     H_    0.354227 0.418734 0.375249 0.354738
C103  C     C_2   0.827898 0.069216 0.171749 1.203704
O61   O     O_2   0.822868 0.109124 0.079830 -0.590659
O62   O     O_R   0.858623 0.077915 0.326298 -0.779742
H67   H     H_    0.877265 0.118706 0.345701 0.302674
C104  C     C_2   0.831844 0.934803 0.693223 1.251094
O63   O     O_2   0.834848 0.893450 0.610364 -0.595473
O64   O     O_R   0.852894 0.929311 0.852093 -0.762081
H68   H     H_    0.865983 0.888157 0.886052 0.327629
C105  C     C_2   0.652270 0.532717 0.733133 1.257332
O65   O     O_2   0.605768 0.563760 0.663646 -0.543698
O66   O     O_R   0.635767 0.478914 0.785433 -0.693569
H69   H     H_    0.676225 0.453160 0.828595 0.336083
C106  C     C_2   0.691469 0.449746 0.172793 1.216642
O67   O     O_2   0.673069 0.410414 0.082142 -0.632738
O68   O     O_R   0.675355 0.507143 0.124892 -0.672473
H70   H     H_    0.690936 0.536711 0.209009 0.339666
C107  C     C_2   0.150464 0.029100 0.754512 1.233792
O69   O     O_2   0.101440 0.061181 0.708371 -0.502049
O70   O     O_R   0.138167 0.972567 0.796202 -0.726986
H71   H     H_    0.179371 0.946421 0.825334 0.360781
C108  C     C_2   0.189878 0.945509 0.170655 1.174108
O71   O     O_2   0.173674 0.904785 0.082984 -0.601490
O72   O     O_R   0.169642 0.001673 0.118954 -0.671006
H72   H     H_    0.184987 0.032204 0.200491 0.361957
C109  C     C_2   0.733855 0.601476 0.877876 1.186184
O73   O     O_2   0.708387 0.649071 0.841842 -0.646693
O74   O     O_R   0.770006 0.590021 0.027487 -0.723647
H73   H     H_    0.767553 0.622978 0.097765 0.341004
C110  C     C_2   0.680259 0.442603 0.438545 1.227217
O75   O     O_2   0.691547 0.417055 0.560916 -0.630847
O76   O     O_R   0.621588 0.476950 0.392670 -0.723978
H74   H     H_    0.591044 0.475106 0.466777 0.366315
C111  C     C_2   0.233587 0.099616 0.881786 1.209636
O77   O     O_2   0.224780 0.150024 0.840920 -0.696433
O78   O     O_R   0.254029 0.085297 0.036281 -0.720713
H75   H     H_    0.264805 0.120549 0.101785 0.338290
C112  C     C_2   0.179438 0.943557 0.437035 1.228131
O79   O     O_2   0.188266 0.916743 0.557231 -0.608935
O80   O     O_R   0.123614 0.981437 0.392902 -0.781337
H76   H     H_    0.093174 0.981443 0.467391 0.352782
C113  C     C_2   0.220903 0.765792 0.662891 1.143470
O81   O     O_2   0.256769 0.724261 0.650056 -0.634314
O82   O     O_R   0.196173 0.803280 0.540554 -0.676437
H77   H     H_    0.213078 0.792883 0.447492 0.340664
C114  C     C_2   0.196578 0.214716 0.149464 1.107268
O83   O     O_2   0.161305 0.174333 0.089028 -0.529100
O84   O     O_R   0.228456 0.249772 0.063941 -0.787210
H78   H     H_    0.207212 0.243372 0.951730 0.349664
C115  C     C_2   0.717217 0.268768 0.656782 1.178542
O85   O     O_2   0.756139 0.231348 0.635446 -0.661093
O86   O     O_R   0.685918 0.305487 0.537842 -0.666649
H79   H     H_    0.700033 0.296547 0.439879 0.341239
C116  C     C_2   0.694138 0.711731 0.153950 1.120815
O87   O     O_2   0.662773 0.668303 0.102219 -0.595147
O88   O     O_R   0.721334 0.747575 0.060718 -0.772251
H80   H     H_    0.697166 0.741584 0.949602 0.369009
C117  C     C_2   0.074224 0.604088 0.864829 1.093499
O89   O     O_2   0.017638 0.610176 0.886754 -0.646215
O90   O     O_R   0.087229 0.561074 0.768966 -0.719743
H81   H     H_    0.042465 0.544943 0.708708 0.375878
C118  C     C_2   0.076944 0.398336 0.360842 1.074858
O91   O     O_2   0.022417 0.392881 0.394550 -0.602418
O92   O     O_R   0.084890 0.439843 0.256006 -0.757656
H82   H     H_    0.038609 0.455015 0.200910 0.382667
C119  C     C_2   0.571722 0.105307 0.866021 1.107526
O93   O     O_2   0.514830 0.111105 0.885866 -0.647574
O94   O     O_R   0.585800 0.061682 0.772705 -0.735883
H83   H     H_    0.541662 0.045093 0.710721 0.376714
C120  C     C_2   0.574355 0.897039 0.362372 1.034226
O95   O     O_2   0.518957 0.894857 0.392849 -0.653791
O96   O     O_R   0.586488 0.937782 0.259318 -0.768674
H84   H     H_    0.541476 0.954877 0.202359 0.387543
C121  C     C_2   0.935161 0.238885 0.040204 0.983264
O97   O     O_2   0.884469 0.208091 0.019363 -0.646015
O98   O     O_R   0.930185 0.292168 0.964780 -0.673473
H85   H     H_    0.883183 0.299633 0.896920 0.353560
C122  C     C_2   0.938164 0.756697 0.417307 1.085448
O99   O     O_2   0.932328 0.704091 0.406306 -0.517380
O100  O     O_R   0.886425 0.793017 0.332726 -0.750292
H86   H     H_    0.844244 0.771432 0.276610 0.364466
C123  C     C_2   0.438377 0.734096 0.952650 1.051811
O101  O     O_2   0.393687 0.699321 0.894969 -0.600367
O102  O     O_R   0.426218 0.793416 0.928584 -0.703301
H87   H     H_    0.377667 0.801369 0.870951 0.349265
C124  C     C_2   0.438021 0.256778 0.413817 1.085727
O103  O     O_2   0.433050 0.204193 0.399692 -0.512597
O104  O     O_R   0.385032 0.293055 0.334345 -0.771882
H88   H     H_    0.344056 0.271075 0.273953 0.366173
C125  C     C_2   0.013176 0.246385 0.301975 0.721975
O105  O     O_2   0.979377 0.288223 0.318947 -0.670404
O106  O     O_R   0.067791 0.229348 0.421028 -0.803210
H89   H     H_    0.078228 0.259282 0.505361 0.313119
C126  C     C_2   0.969341 0.767443 0.682398 0.725826
O107  O     O_2   0.971326 0.717660 0.729568 -0.648575
O108  O     O_R   0.931034 0.809066 0.736612 -0.812853
H90   H     H_    0.915782 0.795059 0.827736 0.332258
C127  C     C_2   0.479288 0.732846 0.216900 0.834343
O109  O     O_2   0.423218 0.717309 0.230582 -0.720716
O110  O     O_R   0.521810 0.764924 0.330698 -0.795321
H91   H     H_    0.495870 0.793477 0.379528 0.293201
C128  C     C_2   0.468633 0.267715 0.676146 0.699612
O111  O     O_2   0.471498 0.218359 0.726557 -0.647235
O112  O     O_R   0.427135 0.309089 0.721749 -0.844474
H92   H     H_    0.414531 0.297621 0.817435 0.334200
N1    N     N_R   0.998994 0.117325 0.028525 0.259849
O113  O     O_R   0.050519 0.118546 0.965745 -0.248963
O114  O     O_R   0.953176 0.076936 0.986842 -0.366029
N2    N     N_R   0.015805 0.868283 0.390363 0.246228
O115  O     O_R   0.078353 0.858172 0.384939 -0.338370
O116  O     O_R   0.978309 0.903847 0.291682 -0.360723
N3    N     N_R   0.519010 0.620817 0.942391 0.263187
O117  O     O_R   0.566953 0.640788 0.883260 -0.302904
O118  O     O_R   0.491179 0.571365 0.892715 -0.320406
N4    N     N_R   0.514800 0.368796 0.386920 0.244184
O119  O     O_R   0.576662 0.359038 0.376072 -0.351444
O120  O     O_R   0.477287 0.406871 0.296716 -0.340513
C129  C     C_2   0.050996 0.122461 0.300705 1.220547
O121  O     O_2   0.031305 0.104747 0.410994 -0.603471
O122  O     O_R   0.119009 0.114968 0.297467 -0.733873
H93   H     H_    0.147002 0.096072 0.394520 0.327117
C130  C     C_2   0.033959 0.880407 0.662391 1.100758
O123  O     O_2   0.093057 0.865880 0.717805 -0.571494
O124  O     O_R   0.002386 0.923581 0.730888 -0.750417
H94   H     H_    0.030897 0.936704 0.833793 0.388918
C131  C     C_2   0.554845 0.620885 0.220145 1.113667
O125  O     O_2   0.561487 0.568132 0.230467 -0.528861
O126  O     O_R   0.590785 0.655957 0.338339 -0.772948
H95   H     H_    0.621701 0.632512 0.423299 0.359494
C132  C     C_2   0.538083 0.378385 0.659806 1.113491
O127  O     O_2   0.516945 0.421174 0.714460 -0.533699
O128  O     O_R   0.600643 0.353845 0.730694 -0.765442
H96   H     H_    0.619102 0.369529 0.836958 0.359380
C133  C     C_2   0.266659 0.447404 0.108986 1.090420
O129  O     O_2   0.306526 0.435858 0.030899 -0.649244
O130  O     O_R   0.236158 0.400980 0.167677 -0.713596
H97   H     H_    0.204275 0.413069 0.232492 0.334839
C134  C     C_2   0.262616 0.560624 0.650956 1.149750
O131  O     O_2   0.235014 0.593471 0.724479 -0.551642
O132  O     O_R   0.309575 0.582455 0.575048 -0.837433
H98   H     H_    0.317125 0.625357 0.596167 0.346887
C135  C     C_2   0.747395 0.924969 0.190532 1.146535
O133  O     O_2   0.769440 0.890838 0.111348 -0.601285
O134  O     O_R   0.738595 0.904656 0.330162 -0.768731
H99   H     H_    0.718199 0.933873 0.389308 0.290818
C136  C     C_2   0.743769 0.073352 0.705123 1.139397
O135  O     O_2   0.722928 0.086529 0.816773 -0.626703
O136  O     O_R   0.781089 0.113411 0.643908 -0.812691
H100  H     H_    0.802171 0.142991 0.724210 0.377848

loop_
_geom_bond_atom_site_label_1
_geom_bond_atom_site_label_2
_geom_bond_distance
_ccdc_geom_bond_type
Ba2   O45   3.135950 S    
C2    H38   1.098170 S    
C19   H15   1.114614 S    
C82   C90   1.433453 A    
C21   C25   1.536104 S    
O38   C13   1.411597 S    
O82   H77   1.006996 S    
C58   H58   1.071442 S    
C59   C91   1.397340 A    
C15   C19   1.555368 S    
C125  O105  1.208459 D    
P7    O39   1.750808 S    
C124  O103  1.217149 D    
P8    O40   1.763641 S    
P9    O33   1.538954 D    
O3    Ba3   2.950307 S    
P7    Ba3   3.581814 S    
C42   C46   1.367803 A    
C36   C96   1.429404 A    
O14   P13   1.538670 D    
C135  O134  1.389944 S    
O72   H72   1.010517 S    
C1    H1    1.102263 S    
C2    H6    1.100220 S    
C45   H45   1.076279 S    
C34   C38   1.446172 A    
O19   C23   1.408940 S    
O74   H73   0.997154 S    
C43   C55   1.435699 A    
C6    C10   1.575006 S    
C47   C49   1.398777 A    
P5    O37   1.743359 S    
P4    O8    1.624465 S    
C79   C83   1.401839 A    
O22   C30   1.420363 S    
C123  O101  1.224950 D    
C16   H12   1.105169 S    
C118  O92   1.375575 S    
C84   C92   1.433583 A    
C102  O59   1.222265 D    
O27   Ba3   2.947439 S    
C30   H34   1.091104 S    
P8    C63   1.963817 S    
P5    O25   1.633991 D    
N1    O114  1.301946 A    
C73   H53   1.070421 S    
C6    C122  1.502048 S    
C41   C85   1.428331 A    
P7    C64   1.970762 S    
C54   C58   1.402133 A    
C5    C125  1.506726 S    
O98   H85   1.009491 S    
O68   H70   1.011401 S    
C18   H14   1.098533 S    
C30   C98   1.481690 S    
C116  O87   1.215153 D    
P4    C56   1.928633 S    
Ba4   O48   2.923112 S    
O21   P14   1.757350 S    
C98   O51   1.222603 D    
C22   C26   1.542001 S    
O23   P16   1.756434 S    
C14   H10   1.113596 S    
O50   H61   1.007776 S    
O44   C8    1.447718 S    
C48   H48   1.070270 S    
C118  O91   1.216393 D    
C62   C66   1.435863 A    
C11   H43   1.106829 S    
C29   H33   1.105019 S    
C12   C132  1.495226 S    
C12   H44   1.106672 S    
C108  O72   1.396022 S    
C133  O129  1.218582 D    
O40   C15   1.409537 S    
P1    Ba1   3.581026 S    
O130  H97   1.006475 S    
C106  O68   1.398584 S    
O12   Ba4   2.880391 S    
O126  H95   1.013742 S    
C77   H49   1.054214 S    
C20   C104  1.490662 S    
C136  O135  1.218209 D    
P8    O47   1.637580 S    
P4    Ba4   3.580340 S    
C60   C92   1.407313 A    
C131  O126  1.393525 S    
C112  O80   1.399608 S    
C129  O121  1.223525 D    
O42   C6    1.448841 S    
P4    O20   1.747028 S    
C72   C86   1.452294 A    
O9    Ba1   2.893482 S    
P3    O7    1.631312 S    
O25   Ba1   2.947439 S    
O104  H88   1.010017 S    
O100  H86   1.010344 S    
C16   C20   1.561204 S    
C121  O97   1.221941 D    
N3    O117  1.295637 A    
C58   C90   1.408790 A    
C59   H59   1.074290 S    
C23   H23   1.097226 S    
C66   C74   1.396620 A    
C56   C60   1.400525 A    
C105  O66   1.390662 S    
C10   C130  1.497396 S    
C64   C68   1.436706 A    
C76   C78   1.399172 A    
C134  O132  1.388776 S    
O5    Ba2   2.938698 S    
C35   C39   1.439500 A    
O112  H92   0.989997 S    
Ba1   Ba2   4.898408 S    
P3    C55   1.902628 S    
C31   C99   1.504162 S    
C103  O61   1.219912 D    
C8    C128  1.488362 S    
C4    H4    1.098222 S    
C104  O63   1.220343 D    
C51   C115  1.454199 S    
C119  O94   1.382317 S    
N4    O119  1.294126 A    
C44   C56   1.429838 A    
P14   C89   1.893282 S    
C62   C94   1.421188 A    
C101  O57   1.221194 D    
C64   C96   1.421570 A    
O8    Ba3   2.924384 S    
Ba1   O45   2.937409 S    
C17   H17   1.103700 S    
C1    C29   1.524612 S    
C117  O90   1.379974 S    
C19   H19   1.105900 S    
C82   C86   1.413165 A    
C9    C129  1.513676 S    
C99   O53   1.218582 D    
P6    O38   1.750732 S    
O24   P15   1.773674 S    
C84   C88   1.413631 A    
P8    O28   1.637044 D    
C5    C121  1.534136 S    
P9    O29   1.776578 S    
C24   C28   1.548584 S    
C110  O75   1.217293 D    
P10   O34   1.534102 D    
C115  O86   1.385206 S    
C43   C87   1.427231 A    
O10   Ba2   2.880391 S    
C33   C93   1.413762 A    
O39   C16   1.404430 S    
C126  O108  1.389968 S    
C7    C123  1.505331 S    
O26   Ba2   2.952700 S    
C2    H2    1.098652 S    
C43   C47   1.393064 A    
C44   C48   1.371132 A    
O16   P15   1.540032 D    
C25   C109  1.481785 S    
C24   H28   1.109927 S    
C46   H46   1.072382 S    
P11   O35   1.536090 D    
O28   Ba4   2.952700 S    
C28   H32   1.111489 S    
O24   C32   1.416006 S    
C48   C50   1.390239 A    
P5    O46   1.630616 S    
O6    Ba1   2.924384 S    
C49   C113  1.451195 S    
P2    O18   1.740744 S    
C114  O83   1.217626 D    
C11   C131  1.510213 S    
C32   H36   1.083452 S    
N2    O116  1.301574 A    
C113  O81   1.218634 D    
C28   C112  1.506281 S    
C26   H30   1.111145 S    
C9    N1    1.461982 S    
C107  O70   1.390086 S    
P6    O26   1.637044 D    
C25   H29   1.108827 S    
C14   C134  1.501574 S    
O1    Ba1   2.950307 S    
C18   C102  1.491212 S    
C27   H31   1.111259 S    
P9    O41   1.807604 S    
P5    Ba1   3.581814 S    
C55   C59   1.395273 A    
C19   C103  1.486442 S    
C60   H60   1.071482 S    
C41   C53   1.434969 A    
C36   C40   1.445621 A    
C38   C70   1.430908 A    
C57   C89   1.404521 A    
O70   H71   1.005522 S    
C111  O78   1.388862 S    
C100  O56   1.380814 S    
O4    Ba4   2.945108 S    
C93   C117  1.437003 S    
O84   H78   1.008250 S    
C11   N3    1.465694 S    
P8    Ba4   3.582516 S    
C78   C82   1.405920 A    
C61   C65   1.441799 A    
C97   O50   1.393063 S    
C4    H40   1.094204 S    
C15   C135  1.519371 S    
O12   P15   1.764691 S    
C132  O128  1.385975 S    
P3    Ba3   3.581026 S    
O31   Ba3   2.881036 S    
O78   H75   0.996536 S    
O32   Ba4   2.894104 S    
C3    H39   1.110885 S    
O66   H69   1.004600 S    
P6    O45   1.637580 S    
Ba3   O48   3.135106 S    
C130  O124  1.400390 S    
C44   C88   1.425062 A    
C20   H20   1.108057 S    
C37   C69   1.417713 A    
C8    C124  1.497335 S    
C81   C89   1.433480 A    
O56   H64   1.000876 S    
C7    C127  1.487102 S    
C40   C72   1.428536 A    
C57   H57   1.077538 S    
N1    O113  1.297970 A    
O54   H63   1.009011 S    
O62   H67   1.010665 S    
C9    H41   1.109173 S    
C27   C111  1.480320 S    
C39   C71   1.421408 A    
C128  O111  1.215753 D    
C47   H47   1.077010 S    
P1    O1    1.637184 D    
O2    Ba2   2.945108 S    
P11   O31   1.764153 S    
P10   O42   1.788359 S    
P3    O3    1.637184 D    
P6    Ba2   3.582516 S    
C80   H52   1.077932 S    
O13   P14   1.534315 D    
C21   H25   1.103641 S    
O58   H65   1.010264 S    
P12   C35   1.919287 S    
O15   P16   1.537006 D    
C13   C133  1.524550 S    
C23   H27   1.103137 S    
C66   C70   1.437864 A    
C120  O96   1.378614 S    
C26   C110  1.505532 S    
C42   C86   1.423454 A    
C65   C73   1.391052 A    
O76   H74   1.012467 S    
C68   C76   1.389916 A    
C5    C9    1.598577 S    
C127  O110  1.382336 S    
C50   C114  1.448322 S    
P2    C54   1.929797 S    
C79   H51   1.057651 S    
C80   C84   1.407149 A    
C124  O104  1.403268 S    
O94   H83   1.005905 S    
C108  O71   1.219361 D    
C83   C87   1.415803 A    
C25   C105  1.510711 S    
C35   C95   1.419692 A    
C74   H54   1.072065 S    
C125  O106  1.391891 S    
C116  O88   1.379511 S    
C38   C50   1.429045 A    
O90   H81   1.006345 S    
P1    O5    1.631312 S    
C101  O58   1.395504 S    
O110  H91   1.004526 S    
C17   H13   1.097964 S    
C2    C30   1.540333 S    
O22   P13   1.778499 S    
C23   C27   1.532880 S    
O86   H79   1.011434 S    
C75   C77   1.395079 A    
C112  O79   1.217392 D    
C67   C71   1.437436 A    
C73   C79   1.394997 A    
O106  H89   1.010193 S    
C13   H9    1.113324 S    
P10   O30   1.777603 S    
C17   C101  1.492129 S    
C96   C120  1.447284 S    
P12   O44   1.787207 S    
O9    P14   1.797711 S    
O11   P16   1.787685 S    
C102  O60   1.393514 S    
C3    H3    1.107436 S    
C22   H26   1.107267 S    
C37   C49   1.416095 A    
C16   C136  1.497560 S    
C24   H24   1.111209 S    
C134  O131  1.223661 D    
P15   C92   1.879500 S    
O132  H98   1.009503 S    
O124  H94   1.011961 S    
C78   H50   1.078892 S    
O136  H100  1.010529 S    
C1    H37   1.109506 S    
C71   C85   1.449490 A    
Ba4   O47   3.135950 S    
C69   C87   1.449103 A    
C52   C116  1.440780 S    
C98   O52   1.373856 S    
O102  H87   1.006854 S    
C15   H11   1.107716 S    
P7    O27   1.633991 D    
C119  O93   1.210545 D    
C106  O67   1.216704 D    
N4    O120  1.300121 A    
O41   C5    1.434530 S    
O43   C7    1.436137 S    
C41   C45   1.389800 A    
C122  O99   1.216729 D    
O96   H84   1.006264 S    
C117  O89   1.212406 D    
C1    H5    1.097340 S    
C133  O130  1.397011 S    
C42   C54   1.427268 A    
C10   N2    1.449556 S    
O128  H96   1.006770 S    
C33   C37   1.437498 A    
C27   C107  1.509722 S    
O108  H90   0.995628 S    
P1    O17   1.751702 S    
O23   C31   1.406294 S    
C115  O85   1.209669 D    
P3    O19   1.747107 S    
O122  H93   1.013372 S    
P4    O4    1.634123 D    
O21   C29   1.410962 S    
O134  H99   1.005251 S    
C126  O107  1.215677 D    
C136  O136  1.384876 S    
O10   P13   1.764784 S    
C26   C106  1.506476 S    
C105  O65   1.220079 D    
C31   H35   1.047413 S    
C129  O122  1.389602 S    
P10   C33   1.916483 S    
P6    C61   1.964754 S    
C53   C57   1.397958 A    
C63   C95   1.417791 A    
P13   C90   1.882215 S    
C122  O100  1.403817 S    
C61   C93   1.413288 A    
C12   N4    1.445012 S    
C18   H18   1.109563 S    
C109  O74   1.390706 S    
O80   H76   1.012780 S    
C121  O98   1.389023 S    
C3    C31   1.527757 S    
C81   C85   1.416052 A    
P16   C91   1.883678 S    
C107  O69   1.220103 D    
C45   C51   1.397456 A    
C74   C80   1.396115 A    
O17   C21   1.409953 S    
C14   C18   1.541112 S    
C10   H42   1.112262 S    
C128  O112  1.392143 S    
O88   H80   1.010718 S    
P2    O2    1.634123 D    
P11   O43   1.788133 S    
C34   C94   1.426575 A    
P12   O36   1.536409 D    
C63   C67   1.438789 A    
C21   H21   1.094877 S    
C103  O62   1.393982 S    
P9    C34   1.932629 S    
C20   H16   1.112744 S    
P5    C62   1.964348 S    
C75   H55   1.075691 S    
C104  O64   1.394307 S    
C65   C69   1.435023 A    
C95   C119  1.440330 S    
O92   H82   1.005800 S    
O29   Ba1   2.881036 S    
C111  O77   1.213330 D    
C6    C126  1.495423 S    
C68   C72   1.435295 A    
O7    Ba4   2.938698 S    
O20   C24   1.398099 S    
C32   C100  1.484588 S    
Ba1   O46   3.135106 S    
Ba3   Ba4   4.898408 S    
P1    C53   1.911483 S    
O37   C14   1.402530 S    
C83   C91   1.436185 A    
C97   O49   1.216918 D    
C123  O102  1.390999 S    
C70   C88   1.450241 A    
C8    C12   1.572284 S    
N3    O118  1.300550 A    
C99   O54   1.392728 S    
C94   C118  1.445535 S    
C132  O127  1.221993 D    
C40   C52   1.427319 A    
Ba2   O46   2.923112 S    
C39   C51   1.421514 A    
C110  O76   1.396387 S    
C76   H56   1.062880 S    
C29   C97   1.497800 S    
O64   H68   1.007244 S    
P2    O6    1.624465 S    
C4    C32   1.544751 S    
Ba3   O47   2.937409 S    
C130  O123  1.220599 D    
P12   O32   1.773800 S    
P11   C36   1.934771 S    
O11   Ba3   2.893482 S    
C67   C75   1.393010 A    
O60   H66   1.012024 S    
C46   C52   1.388819 A    
O18   C22   1.393727 S    
C114  O84   1.375540 S    
C131  O125  1.219785 D    
C7    C11   1.582008 S    
C135  O133  1.215040 D    
C77   C81   1.398930 A    
N2    O115  1.294884 A    
C113  O82   1.388154 S    
C3    H7    1.097601 S    
C22   H22   1.111848 S    
C4    H8    1.111196 S    
C120  O95   1.214569 D    
C13   C17   1.540775 S    
P2    Ba2   3.580340 S    
O52   H62   0.996543 S    
O30   Ba2   2.894104 S    
C127  O109  1.221092 D    
C100  O55   1.223087 D    
P7    O48   1.630616 S    
C28   C108  1.509024 S    
C109  O73   1.215938 D    
