data_mof_unit_8418.cif
_audit_creation_date              2012-10-26T19:09:57-0400
_audit_creation_method            fapswitch 2.2
_symmetry_space_group_name_H-M    P1
_symmetry_Int_Tables_number       1
_space_group_crystal_system       triclinic
_cell_length_a                    15.621555
_cell_length_b                    15.051629
_cell_length_c                    9.432233
_cell_angle_alpha                 89.777886
_cell_angle_beta                  90.27399
_cell_angle_gamma                 90.089309
_cell_volume                      2217.75487977

loop_
_atom_site_label
_atom_site_type_symbol
_atom_type_description
_atom_site_fract_x
_atom_site_fract_y
_atom_site_fract_z
_atom_type_partial_charge
C1    C     C_R   0.120169 0.379169 0.500070 0.590994
C2    C     C_R   0.880723 0.620075 0.499539 0.583878
C3    C     C_R   0.380931 0.879531 0.500199 0.584312
C4    C     C_R   0.380719 0.120071 0.499538 0.583886
C5    C     C_3   0.778122 0.297278 0.653459 -0.225050
C6    C     C_3   0.841101 0.224803 0.441293 -0.248078
C7    C     C_3   0.820171 0.747883 0.629230 -0.244005
C8    C     C_3   0.816605 0.744617 0.361823 -0.247980
C9    C     C_3   0.278105 0.797293 0.653456 -0.225040
C10   C     C_3   0.341091 0.724810 0.441307 -0.248073
C11   C     C_3   0.320124 0.247823 0.629298 -0.243976
C12   C     C_R   0.113773 0.626881 0.499908 0.600569
C13   C     C_3   0.316651 0.244661 0.361880 -0.247976
C14   C     C_3   0.210181 0.722762 0.657103 -0.084673
C15   C     C_3   0.264244 0.660296 0.428369 -0.106800
C16   C     C_3   0.261976 0.329180 0.610527 -0.103589
C17   C     C_3   0.238216 0.306805 0.351622 -0.102113
C18   C     C_3   0.710201 0.222744 0.657108 -0.084698
C19   C     C_3   0.764252 0.160289 0.428358 -0.106810
C20   C     C_3   0.762021 0.829237 0.610405 -0.103591
C21   C     C_3   0.738144 0.806726 0.351552 -0.102137
C22   C     C_3   0.737010 0.348436 0.402993 -0.226372
C23   C     C_R   0.620165 0.879166 0.500068 0.590996
C24   C     C_3   0.723332 0.640243 0.502897 -0.228195
C25   C     C_3   0.237003 0.848442 0.402978 -0.226365
C26   C     C_3   0.223325 0.140242 0.502744 -0.228224
C27   C     C_3   0.810189 0.313867 0.500371 -0.055262
C28   C     C_3   0.811622 0.687168 0.498394 -0.046427
C29   C     C_3   0.310178 0.813876 0.500370 -0.055267
C30   C     C_3   0.311619 0.187164 0.498389 -0.046450
C31   C     C_3   0.180201 0.700649 0.499507 -0.051003
C32   C     C_3   0.187563 0.306866 0.498955 -0.057002
C33   C     C_3   0.680212 0.200639 0.499511 -0.051002
C34   C     C_R   0.613779 0.126876 0.499909 0.600626
C35   C     C_3   0.687561 0.806863 0.498951 -0.057008
C36   C     C_3   0.152469 0.793321 0.423305 0.055459
C37   C     C_3   0.148961 0.209114 0.527727 0.068811
C38   C     C_3   0.652477 0.293314 0.423326 0.055458
C39   C     C_3   0.648976 0.709125 0.527886 0.068796
C40   C     C_3   0.933320 0.558442 0.082985 -0.111622
C41   C     C_3   0.932706 0.557536 0.915678 -0.104800
C42   C     C_3   0.984342 0.410169 0.084160 -0.097203
C43   C     C_3   0.987278 0.409680 0.917109 -0.104698
C44   C     C_3   0.433369 0.058505 0.082985 -0.111640
C45   C     C_3   0.083150 0.532612 0.083868 -0.095569
C46   C     C_3   0.432727 0.057562 0.915678 -0.104831
C47   C     C_3   0.484256 0.910187 0.084161 -0.097209
C48   C     C_3   0.487259 0.909684 0.917114 -0.104648
C49   C     C_2   0.144155 0.744900 0.769659 0.579118
C50   C     C_2   0.257528 0.627906 0.276899 0.560474
C51   C     C_2   0.242556 0.367670 0.754243 0.578904
C52   C     C_2   0.190745 0.286139 0.214841 0.613788
C53   C     C_2   0.644187 0.244876 0.769687 0.579083
C54   C     C_2   0.757525 0.127907 0.276886 0.560471
C55   C     C_2   0.742651 0.867819 0.754073 0.578785
C56   C     C_3   0.083334 0.531893 0.917323 -0.107606
C57   C     C_2   0.690613 0.785938 0.214874 0.613836
C58   C     C_2   0.090503 0.849872 0.511504 0.627027
C59   C     C_2   0.106618 0.783994 0.279940 0.619209
C60   C     C_2   0.111861 0.199851 0.676725 0.624170
C61   C     C_2   0.073950 0.182967 0.432103 0.603294
C62   C     C_2   0.590514 0.349852 0.511549 0.627008
C63   C     C_2   0.606621 0.283994 0.279963 0.619160
C64   C     C_2   0.611938 0.699923 0.676935 0.624208
C65   C     C_2   0.573928 0.682935 0.432372 0.603306
C66   C     C_3   0.583179 0.032535 0.083868 -0.095596
C67   C     C_3   0.583344 0.031866 0.917321 -0.107629
C68   C     C_R   0.880937 0.379526 0.500200 0.584342
Cu1   Cu    Cu3+1 0.000100 0.500000 0.642410 0.971518
Cu2   Cu    Cu3+1 0.000100 0.500000 0.357590 0.989784
Cu3   Cu    Cu3+1 0.500100 0.000000 0.642410 0.971576
Cu4   Cu    Cu3+1 0.500100 1.000000 0.357590 0.989762
H1    H     H_    0.753393 0.360693 0.697349 0.195994
H2    H     H_    0.890281 0.195820 0.513609 0.172821
H3    H     H_    0.887220 0.769758 0.645285 0.176475
H4    H     H_    0.876030 0.784999 0.362936 0.195950
H5    H     H_    0.332407 0.776984 0.723371 0.147528
H6    H     H_    0.390266 0.695830 0.513636 0.172792
H7    H     H_    0.387168 0.269697 0.645430 0.176432
H8    H     H_    0.376091 0.285017 0.363053 0.195999
H9    H     H_    0.242419 0.662179 0.699825 0.120818
H10   H     H_    0.281838 0.599961 0.491031 0.128539
H11   H     H_    0.302722 0.381801 0.561777 0.124023
H12   H     H_    0.872753 0.235589 0.337095 0.192023
H13   H     H_    0.263827 0.375310 0.336622 0.157685
H14   H     H_    0.742443 0.162160 0.699815 0.120882
H15   H     H_    0.781848 0.099951 0.491009 0.128651
H16   H     H_    0.802749 0.881825 0.561524 0.124099
H17   H     H_    0.763722 0.875232 0.336393 0.157684
H18   H     H_    0.726994 0.421005 0.418254 0.145275
H19   H     H_    0.760533 0.343586 0.292172 0.196864
H20   H     H_    0.723804 0.586250 0.583713 0.172946
H21   H     H_    0.714562 0.604676 0.400523 0.175627
H22   H     H_    0.226987 0.921011 0.418233 0.145265
H23   H     H_    0.803012 0.709601 0.726234 0.184358
H24   H     H_    0.260531 0.843587 0.292160 0.196845
H25   H     H_    0.223765 0.086212 0.583497 0.172966
H26   H     H_    0.214595 0.104723 0.400316 0.175574
H27   H     H_    0.942819 0.627847 0.119731 0.161362
H28   H     H_    0.940620 0.626703 0.876384 0.137187
H29   H     H_    0.030176 0.361413 0.128114 0.202266
H30   H     H_    0.039322 0.364986 0.882936 0.201401
H31   H     H_    0.442943 0.127907 0.119693 0.161413
H32   H     H_    0.440644 0.126719 0.876343 0.137211
H33   H     H_    0.530001 0.861369 0.128194 0.202264
H34   H     H_    0.821580 0.701747 0.266304 0.171125
H35   H     H_    0.539330 0.864995 0.883024 0.201406
H36   H     H_    0.869466 0.537201 0.122649 0.137114
H37   H     H_    0.869043 0.534347 0.877256 0.143962
H38   H     H_    0.920177 0.386346 0.118087 0.134437
H39   H     H_    0.926491 0.381073 0.876240 0.131275
H40   H     H_    0.369499 0.037341 0.122685 0.137109
H41   H     H_    0.369053 0.034374 0.877301 0.143934
H42   H     H_    0.420044 0.886457 0.118013 0.134349
H43   H     H_    0.426493 0.881066 0.876184 0.131326
H44   H     H_    0.095091 0.601723 0.119088 0.197235
H45   H     H_    0.253378 0.860711 0.697342 0.196015
H46   H     H_    0.096335 0.599744 0.880295 0.169588
H47   H     H_    0.136428 0.492652 0.125872 0.195929
H48   H     H_    0.136110 0.490382 0.878547 0.173004
H49   H     H_    0.595196 0.101621 0.119137 0.197226
H50   H     H_    0.596350 0.099726 0.880337 0.169570
H51   H     H_    0.636419 0.992494 0.125819 0.195888
H52   H     H_    0.636110 0.990359 0.878499 0.173015
H53   H     H_    0.021104 0.762202 0.827180 0.319873
H54   H     H_    0.280776 0.527073 0.142456 0.333186
H55   H     H_    0.276977 0.459616 0.899511 0.334448
H56   H     H_    0.372749 0.735591 0.337111 0.192038
H57   H     H_    0.138019 0.194786 0.084633 0.373728
H58   H     H_    0.521144 0.262185 0.827248 0.319863
H59   H     H_    0.780729 0.027066 0.142431 0.333088
H60   H     H_    0.777058 0.959920 0.899102 0.334265
H61   H     H_    0.637899 0.694457 0.084884 0.373688
H62   H     H_    0.968671 0.884179 0.552435 0.344311
H63   H     H_    0.086822 0.834826 0.084380 0.368729
H64   H     H_    0.010204 0.220324 0.803628 0.326356
H65   H     H_    0.995813 0.084514 0.364694 0.348643
H66   H     H_    0.468679 0.384088 0.552595 0.344285
H67   H     H_    0.302936 0.209494 0.726244 0.184305
H68   H     H_    0.586835 0.334809 0.084387 0.368712
H69   H     H_    0.510289 0.720338 0.803876 0.326344
H70   H     H_    0.495748 0.584459 0.365194 0.348607
H71   H     H_    0.321628 0.201819 0.266328 0.171115
H72   H     H_    0.832428 0.276969 0.723368 0.147521
N1    N     N_3   0.001260 0.500000 0.143650 -0.262088
N2    N     N_3   0.001260 0.500000 0.856350 -0.256879
N3    N     N_3   0.501260 0.000000 0.143650 -0.262061
N4    N     N_3   0.501260 0.000000 0.856350 -0.256867
O1    O     O_R   0.091250 0.408820 0.620260 -0.469746
O2    O     O_R   0.908940 0.408800 0.379740 -0.511987
O3    O     O_R   0.908940 0.591200 0.620260 -0.512997
O4    O     O_R   0.908940 0.591200 0.379740 -0.507867
O5    O     O_R   0.408940 0.908800 0.620260 -0.507904
O6    O     O_R   0.408940 0.908800 0.379740 -0.512008
O7    O     O_R   0.408940 0.091200 0.620260 -0.512991
O8    O     O_R   0.408940 0.091200 0.379740 -0.507874
O9    O     O_2   0.169425 0.760409 0.889895 -0.498058
O10   O     O_R   0.056213 0.744718 0.741619 -0.669531
O11   O     O_2   0.242965 0.679534 0.179530 -0.494026
O12   O     O_R   0.091250 0.408820 0.379740 -0.470178
O13   O     O_R   0.277225 0.539365 0.247804 -0.723123
O14   O     O_2   0.197336 0.327991 0.838335 -0.469928
O15   O     O_R   0.284208 0.445941 0.795167 -0.719305
O16   O     O_2   0.184639 0.343896 0.124566 -0.529659
O17   O     O_R   0.165545 0.199395 0.181907 -0.681097
O18   O     O_2   0.669470 0.260375 0.889919 -0.498053
O19   O     O_R   0.556242 0.244702 0.741673 -0.669477
O20   O     O_2   0.742981 0.179544 0.179521 -0.494003
O21   O     O_R   0.777185 0.039357 0.247782 -0.723168
O22   O     O_2   0.697496 0.828172 0.838301 -0.469715
O23   O     O_R   0.091250 0.591180 0.620260 -0.495912
O24   O     O_R   0.784255 0.946162 0.794781 -0.719348
O25   O     O_2   0.684396 0.843637 0.124527 -0.529416
O26   O     O_R   0.665475 0.699149 0.182106 -0.681164
O27   O     O_2   0.116829 0.908574 0.590088 -0.504018
O28   O     O_R   0.002241 0.837892 0.498204 -0.678909
O29   O     O_2   0.042563 0.737793 0.269265 -0.515038
O30   O     O_R   0.129584 0.838189 0.165328 -0.652387
O31   O     O_2   0.148207 0.156159 0.768642 -0.502709
O32   O     O_R   0.032044 0.237381 0.706191 -0.695912
O33   O     O_2   0.034964 0.238308 0.362389 -0.529057
O34   O     O_R   0.091250 0.591180 0.379740 -0.471601
O35   O     O_R   0.046752 0.094283 0.429851 -0.665363
O36   O     O_2   0.616837 0.408580 0.590087 -0.504022
O37   O     O_R   0.502255 0.337812 0.498349 -0.678906
O38   O     O_2   0.542562 0.237796 0.269292 -0.515049
O39   O     O_R   0.629591 0.338180 0.165344 -0.652405
O40   O     O_2   0.648352 0.656318 0.768883 -0.502796
O41   O     O_R   0.532093 0.737386 0.706413 -0.695896
O42   O     O_2   0.534935 0.738243 0.362599 -0.529121
O43   O     O_R   0.546711 0.594256 0.430287 -0.665301
O44   O     O_R   0.591250 0.908820 0.620260 -0.469724
O45   O     O_R   0.591250 0.908820 0.379740 -0.470234
O46   O     O_R   0.591250 0.091180 0.620260 -0.495859
O47   O     O_R   0.591250 0.091180 0.379740 -0.471585
O48   O     O_R   0.908940 0.408800 0.620260 -0.507895

loop_
_geom_bond_atom_site_label_1
_geom_bond_atom_site_label_2
_ccdc_geom_bond_type
C34   O47   A    
C47   H42   S    
C42   H29   S    
Cu4   O8    S    
C41   H28   S    
C9    H45   S    
C58   O27   D    
Cu2   O2    S    
C16   C51   S    
C3    O5    A    
C14   C31   S    
C36   C59   S    
C12   O34   A    
C67   H52   S    
C44   N3    S    
Cu4   O47   S    
C64   O41   S    
C10   H6    S    
C21   H17   S    
C60   O31   D    
C6    C19   S    
C18   H14   S    
H62   O28   S    
C40   N1    S    
C17   H13   S    
C36   C58   S    
C10   C15   S    
C14   C49   S    
C22   C38   S    
C48   N4    S    
C8    H4    S    
C24   C39   S    
C51   O14   D    
Cu1   O23   S    
C15   C50   S    
C3    C29   S    
C11   H67   S    
C27   C68   S    
C18   C53   S    
C5    C27   S    
C20   C35   S    
H58   O19   S    
C53   O19   S    
C46   N4    S    
C41   N2    S    
C65   O43   S    
C45   C56   S    
C47   H33   S    
C22   H19   S    
C51   O15   S    
Cu3   O44   S    
C12   O23   A    
H54   O13   S    
H61   O26   S    
C55   O22   D    
C9    C29   S    
C40   H36   S    
C34   O46   A    
C13   H71   S    
C66   C67   S    
C13   H8    S    
C25   H22   S    
C41   H37   S    
C50   O13   S    
C25   C29   S    
Cu1   N2    S    
C56   H48   S    
C54   O21   S    
C49   O9    D    
C43   H39   S    
C40   H27   S    
C20   C55   S    
C10   H56   S    
C24   H20   S    
C17   C52   S    
C23   O44   A    
C44   H31   S    
C44   C46   S    
C6    H2    S    
C15   H10   S    
C59   O30   S    
C2    O4    A    
C47   N3    S    
C61   O35   S    
C6    H12   S    
Cu1   O3    S    
C47   C48   S    
C13   C30   S    
C59   O29   D    
H66   O37   S    
H69   O41   S    
C11   C30   S    
C19   C33   S    
Cu4   O45   S    
H53   O10   S    
Cu3   O46   S    
C7    H3    S    
C5    C18   S    
C26   H25   S    
C46   H32   S    
Cu1   O48   S    
C7    C28   S    
C8    H34   S    
C35   C39   S    
C9    C14   S    
C56   N2    S    
C21   C57   S    
C39   C64   S    
C52   O17   S    
C11   C16   S    
C61   O33   D    
C6    C27   S    
C63   O38   D    
Cu3   O7    S    
C23   O45   A    
Cu2   O34   S    
C33   C34   S    
C22   H18   S    
C66   H49   S    
Cu2   O4    S    
C68   O48   A    
Cu2   N1    S    
C9    H5    S    
C32   C37   S    
C1    O1    A    
C66   N3    S    
C64   O40   D    
C11   H7    S    
C26   H26   S    
C62   O37   S    
C57   O25   D    
C44   H40   S    
C19   C54   S    
C40   C41   S    
C4    O8    A    
C52   O16   D    
C39   C65   S    
C26   C30   S    
C63   O39   S    
C22   C27   S    
C48   H43   S    
C12   C31   S    
C8    C28   S    
C45   N1    S    
C49   O10   S    
C60   O32   S    
C42   C43   S    
C1    C32   S    
Cu4   N3    S    
C67   H50   S    
C55   O24   S    
C38   C63   S    
C2    O3    A    
H59   O21   S    
H55   O15   S    
C46   H41   S    
C66   H51   S    
H68   O39   S    
C56   H46   S    
C1    O12   A    
C58   O28   S    
C24   C28   S    
H63   O30   S    
C54   O20   D    
C5    H72   S    
C8    C21   S    
C16   H11   S    
C37   C61   S    
C26   C37   S    
C15   C31   S    
C21   C35   S    
H57   O17   S    
C50   O11   D    
C16   C32   S    
Cu4   O6    S    
C7    H23   S    
H64   O32   S    
C23   C35   S    
C33   C38   S    
C13   C17   S    
Cu1   O1    S    
C42   H38   S    
C43   H30   S    
Cu3   Cu4   S    
C43   N2    S    
C24   H21   S    
C45   H44   S    
C45   H47   S    
H65   O35   S    
C19   H15   S    
H70   O43   S    
C20   H16   S    
Cu3   N4    S    
Cu2   O12   S    
C3    O6    A    
C5    H1    S    
Cu1   Cu2   S    
C18   C33   S    
C37   C60   S    
C68   O2    A    
C25   C36   S    
C62   O36   D    
C57   O26   S    
C48   H35   S    
C10   C29   S    
C53   O18   D    
C4    O7    A    
C65   O42   D    
C25   H24   S    
C7    C20   S    
C67   N4    S    
C17   C32   S    
C31   C36   S    
C2    C28   S    
H60   O24   S    
C14   H9    S    
C42   N1    S    
C4    C30   S    
C38   C62   S    
Cu3   O5    S    
