data_mof_unit_31428.cif
_audit_creation_date              2012-12-10T17:31:51-0500
_audit_creation_method            fapswitch 2.2
_symmetry_space_group_name_H-M    P1
_symmetry_Int_Tables_number       1
_space_group_crystal_system       triclinic
_cell_length_a                    12.066839
_cell_length_b                    11.489757
_cell_length_c                    12.894826
_cell_angle_alpha                 89.611911
_cell_angle_beta                  92.78309
_cell_angle_gamma                 87.509611
_cell_volume                      1783.93783788

loop_
_atom_site_label
_atom_site_type_symbol
_atom_type_description
_atom_site_fract_x
_atom_site_fract_y
_atom_site_fract_z
_atom_type_partial_charge
C1    C     C_R   0.478982 0.501330 0.299673 0.933436
C2    C     C_R   0.975682 0.556120 0.506181 -0.243998
C3    C     C_R   0.499054 0.282166 0.500010 0.926289
C4    C     C_R   0.501158 0.717803 0.499970 0.860885
C5    C     C_1   0.498293 0.161704 0.500080 -0.170946
C6    C     C_1   0.503359 0.838140 0.500328 -0.202903
C7    C     C_1   0.500443 0.059259 0.500241 -0.018980
C8    C     C_1   0.502916 0.940479 0.500503 -0.016950
C9    C     C_R   0.535322 0.492013 0.809805 -0.282417
C10   C     C_R   0.469164 0.509224 0.188034 -0.275595
C11   C     C_R   0.382602 0.598331 0.032986 -0.272876
C12   C     C_R   0.521604 0.497463 0.699511 0.948147
C13   C     C_R   0.612893 0.393796 0.962576 -0.287500
C14   C     C_R   0.383584 0.580426 0.139572 0.386533
C15   C     C_R   0.612091 0.409508 0.855767 0.410708
C16   C     C_R   0.552418 0.454485 0.129692 0.403086
C17   C     C_R   0.464180 0.562380 0.868405 0.404928
C18   C     C_R   0.543389 0.463599 0.022372 -0.060004
C19   C     C_R   0.463417 0.542577 0.974489 -0.052550
C20   C     C_3   0.444093 0.742154 0.787493 0.104443
C21   C     C_3   0.435394 0.839931 0.867030 -0.399928
C22   C     C_3   0.491549 0.948402 0.830457 -0.918920
C23   C     C_R   0.045640 0.648266 0.532754 0.471642
C24   C     C_3   0.735646 0.461355 0.189653 0.144641
C25   C     C_3   0.833599 0.413557 0.129329 -0.426047
C26   C     C_3   0.941282 0.470393 0.163858 -0.950467
C27   C     C_3   0.788391 0.334675 0.818985 0.115110
C28   C     C_3   0.838969 0.450323 0.789800 -0.357099
C29   C     C_3   0.963342 0.447677 0.817915 -0.978723
C30   C     C_3   0.316965 0.748475 0.211821 0.084962
C31   C     C_3   0.229908 0.797804 0.283800 -0.293603
C32   C     C_3   0.242676 0.927571 0.302723 -0.967589
C33   C     C_3   0.782886 0.719924 0.384977 0.163999
C34   C     C_R   0.954135 0.350111 0.472628 0.476642
C35   C     C_3   0.883353 0.762260 0.328945 -0.381182
C36   C     C_3   0.848817 0.810954 0.221243 -1.007109
C37   C     C_3   0.193589 0.270617 0.609568 0.158458
C38   C     C_3   0.213941 0.138365 0.607066 -0.290475
C39   C     C_3   0.217647 0.085137 0.715983 -1.006467
C40   C     C_3   0.996747 0.773014 0.659514 -0.249352
C41   C     C_3   0.996942 0.213356 0.353455 -0.271330
C42   C     C_R   0.161077 0.628662 0.535148 -0.220681
C43   C     C_R   0.838768 0.370190 0.470422 -0.226046
C44   C     C_R   0.142282 0.426824 0.507251 0.580617
C45   C     C_R   0.858391 0.573219 0.490808 0.561352
C46   C     C_R   0.024442 0.443037 0.495411 -0.268840
H1    H     H_    0.317095 0.654083 0.996364 0.200792
H2    H     H_    0.480534 0.019228 0.887694 0.267915
H3    H     H_    0.454363 0.978761 0.754003 0.272368
H4    H     H_    0.762574 0.458362 0.272905 0.183241
H5    H     H_    0.718418 0.555015 0.168269 0.095195
H6    H     H_    0.844083 0.317754 0.141178 0.230634
H7    H     H_    0.817681 0.432704 0.045567 0.219560
H8    H     H_    0.934928 0.565136 0.145867 0.277057
H9    H     H_    0.011350 0.430531 0.121815 0.274624
H10   H     H_    0.959211 0.457761 0.248554 0.255435
H11   H     H_    0.828749 0.264552 0.773246 0.168038
H12   H     H_    0.663473 0.323177 0.998389 0.191509
H13   H     H_    0.808796 0.311081 0.901419 0.108199
H14   H     H_    0.825592 0.466035 0.704982 0.247728
H15   H     H_    0.798438 0.523793 0.831339 0.207942
H16   H     H_    0.978554 0.437830 0.903239 0.275759
H17   H     H_    0.998685 0.530194 0.792608 0.263999
H18   H     H_    0.006164 0.374148 0.778675 0.256514
H19   H     H_    0.308647 0.797373 0.136762 0.128608
H20   H     H_    0.401091 0.760424 0.249059 0.115139
H21   H     H_    0.145369 0.784265 0.249028 0.222139
H22   H     H_    0.238775 0.750572 0.359294 0.242217
H23   H     H_    0.786569 0.296952 0.459737 0.204551
H24   H     H_    0.327201 0.943538 0.335858 0.273552
H25   H     H_    0.181093 0.958993 0.358545 0.270503
H26   H     H_    0.228093 0.977420 0.228864 0.261985
H27   H     H_    0.720882 0.794069 0.387502 0.168690
H28   H     H_    0.741758 0.650571 0.339633 0.107923
H29   H     H_    0.922829 0.832172 0.374705 0.278272
H30   H     H_    0.945297 0.689028 0.320490 0.212557
H31   H     H_    0.808278 0.743663 0.173146 0.260214
H32   H     H_    0.923399 0.838689 0.182096 0.273357
H33   H     H_    0.790323 0.887664 0.227505 0.273215
H34   H     H_    0.213306 0.701241 0.549955 0.185536
H35   H     H_    0.113466 0.288320 0.647393 0.116757
H36   H     H_    0.261420 0.309859 0.657339 0.145141
H37   H     H_    0.146734 0.098650 0.559225 0.263535
H38   H     H_    0.293532 0.117075 0.571014 0.225362
H39   H     H_    0.284821 0.122853 0.765323 0.273628
H40   H     H_    0.234065 0.989479 0.711404 0.272912
H41   H     H_    0.136907 0.101806 0.752265 0.267981
H42   H     H_    0.963728 0.862579 0.674649 0.192571
H43   H     H_    0.080101 0.762524 0.700305 0.143670
H44   H     H_    0.938531 0.711219 0.691837 0.168436
H45   H     H_    0.401736 0.773160 0.713359 0.170654
H46   H     H_    0.053069 0.271487 0.313520 0.184473
H47   H     H_    0.911800 0.220128 0.316030 0.151200
H48   H     H_    0.029357 0.122481 0.343838 0.187721
H49   H     H_    0.533033 0.723686 0.770743 0.104756
H50   H     H_    0.346429 0.862378 0.879074 0.227636
H51   H     H_    0.475854 0.810082 0.942374 0.216273
H52   H     H_    0.581843 0.929124 0.823247 0.266916
N1    N     N_R   0.792200 0.479100 0.480660 -0.194219
N2    N     N_R   0.207800 0.520900 0.519340 -0.162185
O1    O     O_R   0.578300 0.494420 0.341180 -0.635651
O2    O     O_3   0.641975 0.390430 0.176866 -0.632340
O3    O     O_3   0.672794 0.334587 0.793244 -0.625455
O4    O     O_3   0.298787 0.629204 0.195887 -0.610043
O5    O     O_3   0.811025 0.685026 0.489082 -0.584092
O6    O     O_3   0.191386 0.316087 0.507055 -0.590184
O7    O     O_3   0.003163 0.759328 0.551413 -0.586024
O8    O     O_3   0.996163 0.237556 0.460428 -0.590018
O9    O     O_R   0.421700 0.505580 0.658820 -0.598045
O10   O     O_R   0.390690 0.507830 0.353590 -0.560344
O11   O     O_R   0.609310 0.492170 0.646410 -0.594802
O12   O     O_R   0.593810 0.327740 0.493800 -0.614135
O13   O     O_R   0.406190 0.672260 0.506200 -0.639417
O14   O     O_R   0.406190 0.341150 0.506220 -0.584421
O15   O     O_R   0.593810 0.658850 0.493780 -0.593727
O16   O     O_3   0.388653 0.643441 0.821229 -0.638082
Zn1   Zn    Zn3+2 0.625270 0.491050 0.491710 0.956904
Zn2   Zn    Zn3+2 0.374730 0.508950 0.508290 0.984383

loop_
_geom_bond_atom_site_label_1
_geom_bond_atom_site_label_2
_ccdc_geom_bond_type
C22   H2    S    
C29   H17   S    
C42   H34   S    
C22   H52   S    
C41   O8    S    
C38   H37   S    
C4    O15   A    
C11   H1    S    
C35   C36   S    
C39   H41   S    
C26   H9    S    
O10   Zn2   S    
C7    C8    S    
C32   H26   S    
C2    C46   A    
C31   H21   S    
C11   C19   A    
C23   C42   A    
C13   C18   A    
C33   H27   S    
C28   C29   S    
C25   H7    S    
C36   H31   S    
C30   C31   S    
C11   C14   A    
C18   C19   A    
C17   C19   A    
C41   H47   S    
C31   C32   S    
C44   C46   A    
O15   Zn1   S    
C34   C46   A    
C40   H43   S    
C28   H15   S    
C24   H5    S    
C29   H18   S    
C43   H23   S    
C21   C22   S    
C37   H35   S    
C26   H8    S    
C12   O9    A    
C45   O5    S    
O9    Zn2   S    
C32   H25   S    
C28   H14   S    
C2    C45   A    
C24   H4    S    
C31   H22   S    
C20   H45   S    
C35   H30   S    
C1    C10   S    
C4    O13   A    
C33   O5    S    
C24   C25   S    
C4    C6    S    
C45   N1    A    
C20   O16   S    
C6    C8    T    
C13   H12   S    
C25   C26   S    
C3    O14   A    
C38   C39   S    
C37   C38   S    
C42   N2    A    
C1    O10   A    
N1    Zn1   S    
C21   H51   S    
C14   O4    S    
C41   H48   S    
C3    O12   A    
C23   O7    S    
C30   H20   S    
O14   Zn2   S    
C40   O7    S    
C9    C17   A    
C20   H49   S    
C13   C15   A    
C27   H11   S    
C37   H36   S    
N2    Zn2   S    
C39   H39   S    
C1    O1    A    
C2    C23   A    
C5    C7    T    
C22   H3    S    
C29   H16   S    
C38   H38   S    
C34   C43   A    
C35   H29   S    
C43   N1    A    
C3    C5    S    
C36   H33   S    
C26   H10   S    
C32   H24   S    
C21   H50   S    
C44   O6    S    
C36   H32   S    
O11   Zn1   S    
C34   O8    S    
C40   H42   S    
C9    C15   A    
C25   H6    S    
O1    Zn1   S    
C37   O6    S    
C27   H13   S    
C16   O2    S    
C44   N2    A    
O12   Zn1   S    
C27   O3    S    
C33   C35   S    
C24   O2    S    
C9    C12   S    
C30   H19   S    
O13   Zn2   S    
C15   O3    S    
C33   H28   S    
C41   H46   S    
C20   C21   S    
C16   C18   A    
C30   O4    S    
C27   C28   S    
C10   C16   A    
C39   H40   S    
C40   H44   S    
C12   O11   A    
C17   O16   S    
C10   C14   A    
