data_mof_unit_67048.cif
_audit_creation_date              2013-03-05T15:58:16-0500
_audit_creation_method            fapswitch 2.2
_symmetry_space_group_name_H-M    P1
_symmetry_Int_Tables_number       1
_space_group_crystal_system       triclinic
_cell_length_a                    8.469981
_cell_length_b                    12.922943
_cell_length_c                    14.292782
_cell_angle_alpha                 94.981201
_cell_angle_beta                  90.410479
_cell_angle_gamma                 98.067758
_cell_volume                      1542.81553379

loop_
_atom_site_label
_atom_site_type_symbol
_atom_site_description
_atom_site_fract_x
_atom_site_fract_y
_atom_site_fract_z
_atom_type_partial_charge
P1    P     P_3+3 0.054400 0.427280 0.286870 0.515831
O1    O     O_2   0.887370 0.460630 0.272300 -0.298961
O2    O     O_3   0.129410 0.451380 0.388510 -0.426397
O3    O     O_3   0.670210 0.653170 0.329170 -0.398930
O4    O     O_2   0.752609 0.580366 0.159009 -0.339522
O5    O     O_3   0.029689 0.297785 0.230280 -0.579361
O6    O     O_3   0.691577 0.771789 0.174771 -0.551437
H1    H     H_    0.732921 0.865197 0.298769 0.079735
C1    C     C_3   0.611802 0.941244 0.197294 -0.480331
H2    H     H_    0.611760 0.006067 0.253648 0.215664
H3    H     H_    0.709013 0.961246 0.147756 0.229671
P2    P     P_3+3 0.668300 0.742890 0.573060 0.459989
P3    P     P_3+3 0.138844 0.839909 0.381284 0.529072
O7    O     O_2   0.845380 0.761330 0.544970 -0.367120
O8    O     O_3   0.088930 0.704860 0.376040 -0.384254
O9    O     O_2   0.024655 0.887196 0.451277 -0.381074
O10   O     O_3   0.683996 0.770449 0.694884 -0.619652
O11   O     O_3   0.091729 0.885262 0.273526 -0.577708
C2    C     C_3   0.071723 0.800736 0.203456 1.158643
H4    H     H_    0.972323 0.740713 0.220838 0.081784
C3    C     C_3   0.034512 0.839432 0.109012 -0.959415
H5    H     H_    0.931914 0.883661 0.114479 0.248023
H6    H     H_    0.137621 0.892355 0.084805 0.241700
C4    C     C_3   0.265029 0.771572 0.724800 0.675928
H7    H     H_    0.319585 0.740156 0.659508 0.086300
C5    C     C_3   0.194748 0.871101 0.707080 -0.357055
H8    H     H_    0.156655 0.908876 0.774523 0.213123
H9    H     H_    0.084760 0.849476 0.662602 0.220639
Ba1   Ba    Ba6+2 0.855630 0.555280 0.454520 1.570877
C6    C     C_3   0.972993 0.211253 0.280030 1.217683
C7    C     C_3   0.981624 0.111570 0.213503 -0.977003
H10   H     H_    0.935621 0.118192 0.142100 0.267170
H11   H     H_    0.916802 0.042111 0.243805 0.240333
H12   H     H_    0.107111 0.097378 0.202894 0.254567
C8    C     C_3   0.733644 0.686883 0.737922 0.160126
H13   H     H_    0.834489 0.656833 0.700641 0.125745
H14   H     H_    0.632496 0.622243 0.739546 0.122791
C9    C     C_3   0.787422 0.727535 0.838341 0.275360
H15   H     H_    0.902654 0.780236 0.837939 0.128168
H16   H     H_    0.699050 0.773137 0.872791 0.115314
P4    P     P_3+3 0.135310 0.572810 0.713130 0.462386
O12   O     O_2   0.302330 0.539400 0.727760 -0.391543
O13   O     O_3   0.060300 0.548700 0.611500 -0.408292
O14   O     O_3   0.519500 0.346920 0.670840 -0.378096
O15   O     O_3   0.136658 0.703776 0.753732 -0.618390
P5    P     P_3+3 0.049755 0.158084 0.613870 0.443417
O16   O     O_3   0.614310 0.373510 0.452640 -0.404767
O17   O     O_3   0.100780 0.295230 0.623970 -0.411102
O18   O     O_2   0.184786 0.114068 0.558220 -0.345324
O19   O     O_3   0.066711 0.113142 0.725263 -0.571054
Ba2   Ba    Ba6+2 0.334200 0.444810 0.545490 1.556494
P6    P     P_3+3 0.633576 0.646329 0.208243 0.455861
C10   C     C_3   0.638879 0.843515 0.243034 0.344231
H17   H     H_    0.525429 0.812816 0.276371 0.105043
O20   O     O_3   0.575400 0.626570 0.547370 -0.395110
C11   C     C_3   0.538177 0.283821 0.240675 0.689707
H18   H     H_    0.662085 0.320684 0.255368 0.204723
C12   C     C_3   0.518448 0.234928 0.137903 -0.401162
H19   H     H_    0.406333 0.178302 0.130396 0.197302
H20   H     H_    0.507329 0.294697 0.088194 0.281201
P7    P     P_3+3 0.522582 0.240327 0.420170 0.548814
O21   O     O_2   0.344320 0.238700 0.455090 -0.317576
O22   O     O_3   0.490382 0.203887 0.299104 -0.514372
H21   H     H_    0.005952 0.771434 0.055569 0.264842
C13   C     C_3   0.063358 0.196632 0.794889 0.126031
H22   H     H_    0.172889 0.254336 0.792792 0.127705
H23   H     H_    0.959637 0.238185 0.785624 0.067492
C14   C     C_3   0.053142 0.153712 0.890968 1.235211
H24   H     H_    0.159859 0.116507 0.904335 -0.082449
P8    P     P_3+3 0.541527 0.355104 0.793202 0.525068
C15   C     C_3   0.560236 0.163109 0.839320 1.472808
O23   O     O_2   0.432076 0.433514 0.832548 -0.356382
O24   O     O_3   0.451678 0.235775 0.831975 -0.590290
H25   H     H_    0.556813 0.013991 0.900999 0.267484
C16   C     C_3   0.473084 0.069384 0.885220 -1.047604
H26   H     H_    0.375290 0.027290 0.839636 0.231489
H27   H     H_    0.418391 0.096616 0.951439 0.235893
C17   C     C_R   0.977991 0.456520 0.057993 0.922941
C18   C     C_R   0.165611 0.510582 0.198528 0.326322
C19   C     C_R   0.311343 0.567984 0.230259 -0.345333
C20   C     C_R   0.426772 0.603291 0.166702 0.277612
C21   C     C_R   0.388376 0.599906 0.071107 -0.111574
C22   C     C_R   0.236491 0.554947 0.036447 -0.008661
C23   C     C_R   0.124689 0.506179 0.098817 -0.233820
H28   H     H_    0.343940 0.573476 0.304076 0.148548
C24   C     C_R   0.053446 0.502715 0.898742 -0.139495
C25   C     C_R   0.939536 0.459046 0.961673 -0.287780
C26   C     C_R   0.014199 0.493818 0.799018 0.362499
C27   C     C_R   0.866648 0.435405 0.767264 -0.279054
C28   C     C_R   0.748783 0.406528 0.832577 0.089469
C29   C     C_R   0.784227 0.421057 0.928263 0.875090
C30   C     C_R   0.200056 0.553735 0.938963 -0.043521
H29   H     H_    0.478628 0.630770 0.023488 0.156697
H30   H     H_    0.288843 0.591941 0.895204 0.164635
C31   C     C_R   0.768461 0.170467 0.514192 -0.471569
C32   C     C_R   0.430508 0.811404 0.464920 -0.578742
C33   C     C_R   0.410890 0.986211 0.421536 0.646770
C34   C     C_R   0.346647 0.881338 0.422553 0.118917
C35   C     C_R   0.577921 0.845304 0.511013 0.294954
C36   C     C_R   0.642959 0.955269 0.513461 -0.152054
C37   C     C_R   0.556555 0.026700 0.468547 -0.294679
C38   C     C_R   0.618239 0.136358 0.473602 0.417138
C39   C     C_R   0.854421 0.103221 0.557144 0.240223
C40   C     C_R   0.789908 0.996918 0.559627 -0.099789
H31   H     H_    0.855863 0.948125 0.597914 0.181713
H32   H     H_    0.821127 0.251028 0.510542 0.154724
H33   H     H_    0.376424 0.730501 0.465768 0.201901
C41   C     C_3   0.308669 0.948838 0.658299 -0.913146
H34   H     H_    0.433912 0.934591 0.663464 0.242208
H35   H     H_    0.271577 0.944310 0.584411 0.281994
H36   H     H_    0.300080 0.028800 0.689029 0.311775
F1    F     F_    0.820829 0.214392 0.309801 -0.773431
C42   C     C_3   0.075523 0.203222 0.362310 -0.655231
H37   H     H_    0.067673 0.267586 0.417691 0.223834
H38   H     H_    0.042774 0.126998 0.392719 0.235509
H39   H     H_    0.194080 0.206249 0.330820 0.251551
F2    F     F_    0.804070 0.645485 0.891204 -0.732546
C43   C     C_3   0.454023 0.926406 0.143083 -0.721823
H40   H     H_    0.357487 0.933188 0.193801 0.299215
H41   H     H_    0.450822 0.988490 0.094929 0.224138
H42   H     H_    0.434676 0.849520 0.100389 0.284042
C44   C     C_3   0.435098 0.368676 0.251900 -1.047013
H43   H     H_    0.315371 0.337968 0.222972 0.244753
H44   H     H_    0.428143 0.402305 0.325323 0.278931
H45   H     H_    0.491572 0.429817 0.209350 0.229887
C45   C     C_3   0.657230 0.178179 0.109205 -0.651763
H46   H     H_    0.762518 0.232491 0.092147 0.350141
H47   H     H_    0.686629 0.135272 0.167590 0.250827
H48   H     H_    0.628412 0.121349 0.047832 0.264400
F3    F     F_    0.045076 0.234219 0.960251 -0.737706
F4    F     F_    0.919674 0.079133 0.894408 -0.691357
F5    F     F_    0.688042 0.205207 0.897626 -0.695681
C46   C     C_3   0.621290 0.126101 0.743132 -1.015931
H49   H     H_    0.726520 0.179701 0.725469 0.210067
H50   H     H_    0.658156 0.046921 0.743123 0.254097
H51   H     H_    0.531725 0.127135 0.686713 0.229142
F6    F     F_    0.663756 0.400874 0.988779 -0.657975
C47   C     C_3   0.825885 0.406261 0.664807 -0.611120
H52   H     H_    0.773743 0.323448 0.656159 0.174354
H53   H     H_    0.750093 0.461024 0.637922 0.242175
H54   H     H_    0.920696 0.399831 0.616300 0.254277
F7    F     F_    0.870112 0.402387 0.109889 -0.651397
F8    F     F_    0.325142 0.047107 0.375572 -0.661503
F9    F     F_    0.209195 0.755457 0.194661 -0.774563
C48   C     C_3   0.386640 0.793871 0.806388 -0.961299
H55   H     H_    0.329012 0.820353 0.872136 0.247287
H56   H     H_    0.435759 0.721197 0.818357 0.235473
H57   H     H_    0.486141 0.855078 0.791857 0.253620

loop_
_geom_bond_atom_site_label_1
_geom_bond_atom_site_label_2
_geom_bond_distance
_ccdc_geom_bond_type
C17   C25   1.416602 A    
C9    H16   1.108467 S    
C45   H46   1.097495 S    
C25   C29   1.403039 A    
P2    Ba1   3.416304 S    
P4    O12   1.553792 D    
C2    H4    1.106958 S    
C48   H55   1.111778 S    
C10   H17   1.113628 S    
C41   H34   1.104853 S    
C22   C30   1.423198 A    
P5    O18   1.543158 D    
C5    H8    1.112899 S    
C37   C38   1.435361 A    
P3    O11   1.757402 S    
O3    P6    1.746279 S    
O1    Ba1   2.810795 S    
C4    O15   1.386647 S    
C2    C3    1.525419 S    
C4    C5    1.530406 S    
O6    P6    1.735897 S    
O11   C2    1.407306 S    
C4    C48   1.531335 S    
C17   F7    1.339730 S    
C18   C23   1.458678 A    
C24   C26   1.452347 A    
C12   H20   1.106801 S    
C32   C35   1.403379 A    
C33   C34   1.389092 A    
C36   C40   1.418720 A    
C11   H18   1.100734 S    
P7    O22   1.762379 S    
P1    O1    1.553419 D    
P3    C34   1.843439 S    
O2    Ba1   2.958988 S    
C43   H40   1.104219 S    
C33   F8    1.349730 S    
C3    H21   1.111439 S    
C15   F5    1.380334 S    
C29   F6    1.354425 S    
C9    F2    1.376451 S    
O17   Ba2   2.870389 S    
C35   C36   1.447575 A    
C41   H35   1.093975 S    
C14   H24   1.104604 S    
C13   H23   1.104892 S    
C32   C34   1.398940 A    
P2    O10   1.747001 S    
C46   H51   1.105400 S    
C7    H11   1.107851 S    
O4    P6    1.544526 D    
O14   P8    1.749932 S    
C1    H2    1.110599 S    
O3    Ba1   2.861385 S    
C31   C38   1.391907 A    
O12   Ba2   2.811324 S    
C42   H39   1.100445 S    
P7    O21   1.591539 D    
C21   H29   1.084285 S    
C3    H5    1.104806 S    
Ba1   O13   2.839949 S    
C1    C43   1.520031 S    
P4    O13   1.569497 S    
P8    C28   1.852949 S    
Ba2   O21   2.870418 S    
C30   H30   1.075463 S    
C40   H31   1.078677 S    
C48   H56   1.104957 S    
C31   C39   1.387805 A    
O8    Ba1   2.869782 S    
P5    O17   1.757394 S    
C7    H12   1.112887 S    
H25   C16   1.111066 S    
P1    O5    1.778387 S    
C8    C9    1.528390 S    
C4    H7    1.114577 S    
C5    C41   1.511805 S    
C15   O24   1.412942 S    
O2    Ba2   2.840545 S    
C24   C25   1.416375 A    
O16   Ba2   2.947100 S    
Ba1   O20   2.947916 S    
C45   H48   1.096882 S    
C12   H19   1.112931 S    
C20   C21   1.397774 A    
C6    F1    1.365039 S    
P1    O2    1.569618 S    
C43   H42   1.110866 S    
C11   C44   1.493544 S    
C14   F4    1.382920 S    
C16   H26   1.100332 S    
C15   C46   1.533504 S    
C19   H28   1.082466 S    
C31   H32   1.079344 S    
C16   H27   1.108345 S    
C7    H10   1.104316 S    
C6    C7    1.543896 S    
C13   C14   1.523619 S    
P8    O24   1.757657 S    
P1    Ba1   3.385775 S    
C11   O22   1.402009 S    
C14   F3    1.381912 S    
C1    H3    1.107459 S    
C2    F9    1.376427 S    
C47   H53   1.109869 S    
O14   Ba2   2.860768 S    
O5    C6    1.406745 S    
C32   H33   1.082098 S    
Ba1   O16   2.887378 S    
C21   C22   1.403226 A    
C3    H6    1.108130 S    
C46   H49   1.094640 S    
P1    C18   1.899715 S    
C22   C23   1.425039 A    
C1    C10   1.515767 S    
O6    C10   1.405574 S    
O7    Ba1   2.870172 S    
C44   H44   1.105654 S    
C48   H57   1.105879 S    
C42   H37   1.106690 S    
Ba1   Ba2   4.693652 S    
P4    C26   1.882284 S    
C45   H47   1.087185 S    
C8    H14   1.111342 S    
P2    O7    1.546768 D    
C19   C20   1.395963 A    
C47   H54   1.071995 S    
H1    C10   1.112240 S    
O16   P7    1.806115 S    
P2    C35   1.898039 S    
C12   C45   1.511440 S    
P5    C39   1.857153 S    
P5    O19   1.753136 S    
C5    H9    1.112516 S    
C41   H36   1.099423 S    
C44   H45   1.097480 S    
P3    O8    1.732029 S    
P7    C38   1.876094 S    
C44   H43   1.099705 S    
C24   C30   1.414697 A    
C15   C16   1.528477 S    
O13   Ba2   2.959783 S    
C28   C29   1.389054 A    
C9    H15   1.109347 S    
C36   C37   1.444157 A    
C11   C12   1.546119 S    
Ba2   O20   2.886683 S    
C13   H22   1.108042 S    
P6    C20   1.839664 S    
O19   C13   1.406336 S    
C43   H41   1.104461 S    
P2    O20   1.606731 S    
C47   H52   1.095086 S    
C18   C19   1.398614 A    
C17   C23   1.413129 A    
C26   C27   1.416085 A    
C27   C47   1.505306 S    
P3    O9    1.543773 D    
C39   C40   1.408918 A    
C46   H50   1.110938 S    
P4    O15   1.739327 S    
P8    O23   1.540976 D    
C8    H13   1.108150 S    
O10   C8    1.400204 S    
C27   C28   1.405916 A    
P4    Ba2   3.386260 S    
C33   C37   1.411849 A    
C42   H38   1.111541 S    
C6    C42   1.476414 S    
