data_mof_unit_57889.cif
_audit_creation_date              2012-12-10T18:31:58-0500
_audit_creation_method            fapswitch 2.2
_symmetry_space_group_name_H-M    P1
_symmetry_Int_Tables_number       1
_space_group_crystal_system       triclinic
_cell_length_a                    10.674657
_cell_length_b                    14.973248
_cell_length_c                    15.465652
_cell_angle_alpha                 81.649825
_cell_angle_beta                  91.260352
_cell_angle_gamma                 104.176123
_cell_volume                      2371.02031053

loop_
_atom_site_label
_atom_site_type_symbol
_atom_type_description
_atom_site_fract_x
_atom_site_fract_y
_atom_site_fract_z
_atom_type_partial_charge
C1    C     C_R   0.481028 0.441776 0.662395 0.867794
C2    C     C_R   0.544739 0.463891 0.894802 0.107608
C3    C     C_R   0.585392 0.381364 0.924046 0.168784
C4    C     C_R   0.742126 0.502321 0.497524 0.832834
C5    C     C_R   0.561702 0.535433 0.948662 -0.021008
C6    C     C_R   0.591192 0.513118 0.037975 0.057521
C7    C     C_R   0.634343 0.431223 0.064602 -0.167594
C8    C     C_R   0.633934 0.367586 0.007723 -0.226329
C9    C     C_R   0.549044 0.627703 0.918203 -0.035733
C10   C     C_R   0.535373 0.686002 0.977959 -0.280050
C11   C     C_R   0.540806 0.657509 0.067043 0.139433
C12   C     C_3   0.121093 0.501978 0.493392 0.150342
C13   C     C_R   0.572579 0.572088 0.097974 0.087839
C14   C     C_R   0.514597 0.713930 0.125747 -0.175454
C15   C     C_R   0.510215 0.683058 0.215030 -0.191862
C16   C     C_R   0.519653 0.558633 0.338128 0.854270
C17   C     C_R   0.573511 0.544869 0.188471 -0.206337
C18   C     C_R   0.715238 0.846190 0.624288 -0.277787
C19   C     C_R   0.683845 0.759021 0.597480 0.141737
C20   C     C_R   0.494537 0.789060 0.528827 -0.084301
C21   C     C_R   0.521444 0.879213 0.553859 -0.006092
C22   C     C_R   0.633208 0.905990 0.603658 0.091913
C23   C     C_3   0.056729 0.479016 0.403821 -0.018418
C24   C     C_R   0.444579 0.944118 0.529009 0.061199
C25   C     C_R   0.484880 0.037159 0.550316 0.018142
C26   C     C_R   0.582272 0.053450 0.615069 0.147963
C27   C     C_R   0.658928 0.990027 0.636446 -0.202901
C28   C     C_R   0.258096 0.500837 0.496200 0.814503
C29   C     C_R   0.329083 0.918962 0.482895 -0.206999
C30   C     C_R   0.266909 0.985297 0.445373 -0.181561
C31   C     C_R   0.320136 0.079112 0.449639 0.147993
C32   C     C_R   0.427309 0.107628 0.503607 0.001034
C33   C     C_R   0.273968 0.144349 0.392938 -0.349082
C34   C     C_3   0.108283 0.601925 0.503980 -0.501390
C35   C     C_R   0.336022 0.238239 0.386505 0.123559
C36   C     C_R   0.476649 0.205619 0.501169 -0.098464
C37   C     C_3   0.907150 0.436009 0.571688 -0.433516
C38   C     C_3   0.050179 0.435151 0.572655 -0.380761
C39   C     C_3   0.911559 0.475689 0.407821 -0.383685
C40   C     C_3   0.965898 0.605500 0.503567 -0.161027
C41   C     C_3   0.879383 0.506342 0.494315 0.057693
C42   C     C_2   0.564176 0.671250 0.825866 0.886892
C43   C     C_2   0.324715 0.295366 0.302011 0.900567
C44   C     C_3   0.595429 0.126585 0.674565 -0.417017
C45   C     C_R   0.489359 0.408667 0.755560 -0.073723
C46   C     C_3   0.727321 0.196262 0.662116 -0.910350
C47   C     C_3   0.079055 0.394392 0.364724 -0.347844
C48   C     C_3   0.035610 0.298699 0.421274 -0.773857
C49   C     C_2   0.943465 0.683849 0.435326 0.922831
C50   C     C_R   0.535553 0.596819 0.245992 -0.055060
C51   C     C_R   0.576012 0.313244 0.869093 -0.196546
C52   C     C_R   0.531045 0.328220 0.784297 -0.216795
C53   C     C_R   0.482831 0.469727 0.814175 -0.187747
H1    H     H_    0.848851 0.365364 0.565211 0.189719
H2    H     H_    0.533218 0.279321 0.740354 0.161142
H3    H     H_    0.432662 0.523447 0.793836 0.149642
H4    H     H_    0.879375 0.453672 0.634930 0.172210
H5    H     H_    0.671625 0.415087 0.128744 0.152366
H6    H     H_    0.492193 0.780019 0.102440 0.142383
H7    H     H_    0.736544 0.004556 0.682727 0.157277
H8    H     H_    0.558630 0.234534 0.538156 0.172035
H9    H     H_    0.181739 0.963465 0.406786 0.155783
H10   H     H_    0.801547 0.865945 0.662272 0.160285
H11   H     H_    0.745477 0.711759 0.614448 0.180174
H12   H     H_    0.164810 0.653963 0.451249 0.179237
H13   H     H_    0.412691 0.762742 0.489976 0.130915
H14   H     H_    0.093429 0.458100 0.634382 0.161257
H15   H     H_    0.285098 0.848337 0.473228 0.140323
H16   H     H_    0.199972 0.121005 0.346325 0.183127
H17   H     H_    0.060716 0.363228 0.574205 0.186439
H18   H     H_    0.851541 0.404662 0.402991 0.194203
H19   H     H_    0.943491 0.622459 0.568474 0.147828
H20   H     H_    0.150738 0.622040 0.566944 0.192413
H21   H     H_    0.496990 0.750137 0.727350 0.347147
H22   H     H_    0.212345 0.322988 0.199910 0.342920
H23   H     H_    0.884408 0.520266 0.350221 0.177063
H24   H     H_    0.802674 0.166347 0.697462 0.259676
H25   H     H_    0.755093 0.213271 0.591844 0.253923
H26   H     H_    0.725213 0.260916 0.688366 0.252201
H27   H     H_    0.514331 0.160694 0.666799 0.192998
H28   H     H_    0.586448 0.092102 0.743652 0.213042
H29   H     H_    0.110214 0.286681 0.469385 0.257041
H30   H     H_    0.942667 0.289839 0.455821 0.233422
H31   H     H_    0.021882 0.243256 0.379043 0.267340
H32   H     H_    0.026002 0.390821 0.302086 0.209759
H33   H     H_    0.182211 0.408201 0.346195 0.226284
H34   H     H_    0.100560 0.539799 0.354049 0.137249
H35   H     H_    0.887929 0.804472 0.411381 0.341935
H36   H     H_    0.667564 0.305650 0.030458 0.149112
H37   H     H_    0.597894 0.481407 0.216319 0.188721
H38   H     H_    0.483240 0.725039 0.259486 0.157316
H39   H     H_    0.521198 0.754773 0.954768 0.180731
H40   H     H_    0.607952 0.250342 0.890500 0.142593
N1    N     N_R   0.573860 0.731700 0.552730 -0.114423
N2    N     N_R   0.426060 0.268290 0.447230 -0.130747
O1    O     O_R   0.462770 0.383110 0.605620 -0.621140
O2    O     O_R   0.483080 0.727987 0.792111 -0.814721
O3    O     O_2   0.422107 0.342703 0.263388 -0.636011
O4    O     O_R   0.206184 0.283239 0.259342 -0.851122
O5    O     O_2   0.967613 0.685852 0.358036 -0.656923
O6    O     O_R   0.898652 0.755867 0.462037 -0.818836
O7    O     O_R   0.510160 0.531900 0.639510 -0.581554
O8    O     O_R   0.661510 0.425600 0.483070 -0.626850
O9    O     O_R   0.708900 0.574390 0.516960 -0.614907
O10   O     O_R   0.489840 0.468100 0.360490 -0.582271
O11   O     O_R   0.537230 0.616890 0.394380 -0.611919
O12   O     O_R   0.291100 0.425610 0.483040 -0.626967
O13   O     O_R   0.338490 0.574400 0.516930 -0.634806
O14   O     O_2   0.647749 0.658277 0.779845 -0.644193
Zn1   Zn    Zn3+2 0.468350 0.400660 0.477370 0.946882
Zn2   Zn    Zn3+2 0.531650 0.599340 0.522630 0.968112

loop_
_geom_bond_atom_site_label_1
_geom_bond_atom_site_label_2
_ccdc_geom_bond_type
O10   Zn1   S    
C38   H17   S    
C15   H38   S    
C43   O3    D    
H35   O6    S    
C26   C44   S    
C7    C8    A    
C39   C41   S    
C14   H6    S    
C12   C23   S    
C9    C42   S    
C29   C30   A    
C12   C28   S    
O8    Zn1   S    
C34   C40   S    
C5    C6    A    
C32   C36   A    
C20   H13   S    
C42   O14   D    
C43   O4    S    
C27   H7    S    
C49   O6    S    
C46   H26   S    
C11   C14   A    
C18   H10   S    
C4    C41   S    
C28   O12   A    
C40   C49   S    
C4    O8    A    
N1    Zn2   S    
C18   C19   A    
C15   C50   A    
C24   C29   A    
C47   C48   S    
C31   C33   A    
C35   C43   S    
C9    C10   A    
C7    H5    S    
C52   H2    S    
C33   H16   S    
C25   C32   A    
C10   H39   S    
C23   H34   S    
C21   C22   A    
C12   C38   S    
O7    Zn2   S    
C34   H12   S    
C44   C46   S    
H21   O2    S    
O11   Zn2   S    
C23   C47   S    
C51   C52   A    
C47   H33   S    
C44   H27   S    
C24   C25   A    
C44   H28   S    
C42   O2    S    
C46   H25   S    
C3    C51   A    
C45   C52   A    
C25   C26   A    
O1    Zn1   S    
N2    Zn1   S    
C48   H31   S    
C5    C9    A    
C37   C38   S    
O9    Zn2   S    
C29   H15   S    
C31   C32   A    
C19   H11   S    
H22   O4    S    
C26   C27   A    
C39   H23   S    
C20   C21   A    
C19   N1    A    
C16   O10   A    
C51   H40   S    
C37   H1    S    
C40   C41   S    
C3    C8    A    
C35   N2    A    
C22   C27   A    
C30   H9    S    
O12   Zn1   S    
C2    C5    A    
C12   C34   S    
C36   H8    S    
C47   H32   S    
C53   H3    S    
C20   N1    A    
C40   H19   S    
C18   C22   A    
C17   H37   S    
C16   C50   S    
C2    C53   A    
C17   C50   A    
C46   H24   S    
C48   H30   S    
C6    C7    A    
C16   O11   A    
O13   Zn2   S    
C13   C17   A    
C2    C3    A    
C49   O5    D    
C11   C13   A    
C36   N2    A    
C1    C45   S    
C30   C31   A    
C28   O13   A    
C1    O1    A    
C23   C39   S    
C4    O9    A    
C33   C35   A    
C48   H29   S    
C37   C41   S    
C10   C11   A    
C34   H20   S    
C45   C53   A    
C38   H14   S    
C21   C24   A    
C39   H18   S    
C14   C15   A    
C8    H36   S    
C1    O7    A    
C37   H4    S    
C6    C13   A    
