data_mof_unit_17924.cif
_audit_creation_date              2012-12-10T18:58:12-0500
_audit_creation_method            fapswitch 2.2
_symmetry_space_group_name_H-M    P1
_symmetry_Int_Tables_number       1
_space_group_crystal_system       triclinic
_cell_length_a                    11.073374
_cell_length_b                    10.822355
_cell_length_c                    9.548283
_cell_angle_alpha                 89.735606
_cell_angle_beta                  103.038994
_cell_angle_gamma                 90.217714
_cell_volume                      1114.74684194

loop_
_atom_site_label
_atom_site_type_symbol
_atom_type_description
_atom_site_fract_x
_atom_site_fract_y
_atom_site_fract_z
_atom_type_partial_charge
C1    C     C_R   0.501843 0.262419 0.500821 0.801383
C2    C     C_R   0.512842 0.129443 0.505105 -0.100346
C3    C     C_R   0.548729 0.065489 0.393502 -0.202645
C4    C     C_R   0.548697 0.936677 0.393486 -0.214551
C5    C     C_R   0.512121 0.871085 0.504367 -0.097815
C6    C     C_R   0.492318 0.936019 0.623175 0.121646
C7    C     C_3   0.385600 0.929542 0.694929 -0.462844
C8    C     C_3   0.386763 0.069773 0.695828 -0.470564
C9    C     C_R   0.597345 0.549606 0.098680 0.254730
C10   C     C_R   0.410383 0.439976 0.051319 -0.087250
C11   C     C_R   0.410403 0.439912 0.902474 -0.075083
C12   C     C_R   0.262373 0.499787 0.440970 0.734175
C13   C     C_R   0.597668 0.548872 0.951314 0.196941
C14   C     C_3   0.644170 0.678258 0.954394 -0.446723
C15   C     C_3   0.640489 0.680801 0.112218 0.146825
C16   C     C_R   0.501727 0.737738 0.500375 0.798771
C17   C     C_R   0.737254 0.499847 0.558695 0.861152
C18   C     C_2   0.125938 0.498808 0.405783 0.241912
C19   C     C_2   0.066642 0.497919 0.513780 -0.177743
C20   C     C_2   0.872347 0.499715 0.592305 -0.407634
C21   C     C_2   0.931723 0.496365 0.485243 -0.077566
C22   C     C_R   0.492933 0.063286 0.623606 0.139747
Cu1   Cu    Cu3+1 0.499990 0.499980 0.640670 0.946134
Cu2   Cu    Cu3+1 0.500010 0.500020 0.359330 0.945167
H1    H     H_    0.879822 0.492680 0.374252 0.252146
H2    H     H_    0.414701 0.109400 0.805656 0.200804
H3    H     H_    0.336682 0.393172 0.088006 0.144924
H4    H     H_    0.336732 0.392907 0.827887 0.137531
H5    H     H_    0.739174 0.683019 0.934313 0.224241
H6    H     H_    0.576466 0.742262 0.887883 0.168243
H7    H     H_    0.570814 0.746256 0.136026 0.103439
H8    H     H_    0.117757 0.498571 0.625332 0.133755
H9    H     H_    0.923141 0.502787 0.703848 0.163895
H10   H     H_    0.572169 0.114420 0.303976 0.169323
H11   H     H_    0.572957 0.889357 0.304663 0.154465
H12   H     H_    0.300776 0.889507 0.624452 0.202372
H13   H     H_    0.411843 0.888689 0.804489 0.193283
H14   H     H_    0.302487 0.111483 0.626185 0.195116
N1    N     N_R   0.500780 0.500930 0.148120 -0.216614
N2    N     N_R   0.500790 0.500890 0.852210 -0.186577
O1    O     O_R   0.500000 0.319640 0.618810 -0.574977
O2    O     O_R   0.500010 0.319680 0.381230 -0.581120
O3    O     O_R   0.320680 0.500000 0.575130 -0.599184
O4    O     O_R   0.320690 0.500040 0.337550 -0.584918
O5    O     O_R   0.499990 0.680320 0.618770 -0.578103
O6    O     O_R   0.500000 0.680360 0.381190 -0.595489
O7    O     O_R   0.679310 0.499960 0.662450 -0.571243
O8    O     O_R   0.679320 0.500000 0.424870 -0.582644
O9    O     O_3   0.759232 0.692097 0.201318 -0.689068
H15   H     H_    0.746652 0.708733 0.299095 0.333527
O10   O     O_3   0.058037 0.498667 0.264732 -0.719322
H16   H     H_    0.115340 0.499500 0.198785 0.334374

loop_
_geom_bond_atom_site_label_1
_geom_bond_atom_site_label_2
_ccdc_geom_bond_type
C16   O5    A    
C2    C22   A    
C8    C22   S    
Cu1   Cu2   S    
C15   H7    S    
C6    C7    S    
Cu1   O5    S    
Cu2   O2    S    
C7    H12   S    
Cu1   O1    S    
C17   O8    A    
Cu2   O6    S    
Cu2   N1    S    
C2    C3    A    
C7    H13   S    
C4    H11   S    
C10   H3    S    
C7    C8    S    
C12   O4    A    
C13   C14   S    
O10   H16   S    
C11   N2    A    
C8    H14   S    
C11   H4    S    
C14   H6    S    
C20   H9    S    
C1    O1    A    
C19   C21   S    
C18   O10   S    
C18   C19   D    
C12   O3    A    
C15   O9    S    
C9    C15   S    
C5    C6    A    
Cu2   O4    S    
Cu1   O7    S    
C10   C11   A    
C19   H8    S    
C14   H5    S    
C12   C18   S    
C3    C4    A    
C6    C22   A    
C1    O2    A    
C9    N1    A    
C17   C20   S    
C8    H2    S    
C20   C21   D    
C1    C2    S    
C16   O6    A    
O9    H15   S    
Cu1   N2    S    
C9    C13   A    
C14   C15   S    
C4    C5    A    
C5    C16   S    
C21   H1    S    
C3    H10   S    
Cu1   O3    S    
C17   O7    A    
C10   N1    A    
C13   N2    A    
Cu2   O8    S    
