data_mof_unit_53903.cif
_audit_creation_date              2012-12-10T20:00:01-0500
_audit_creation_method            fapswitch 2.2
_symmetry_space_group_name_H-M    P1
_symmetry_Int_Tables_number       1
_space_group_crystal_system       triclinic
_cell_length_a                    14.822319
_cell_length_b                    14.312749
_cell_length_c                    8.869308
_cell_angle_alpha                 90.000271
_cell_angle_beta                  92.271091
_cell_angle_gamma                 90.000163
_cell_volume                      1880.12914844

loop_
_atom_site_label
_atom_site_type_symbol
_atom_type_description
_atom_site_fract_x
_atom_site_fract_y
_atom_site_fract_z
_atom_type_partial_charge
C1    C     C_R   0.329560 0.499997 0.524643 0.946870
C2    C     C_R   0.444851 0.894440 0.398022 -0.255641
C3    C     C_R   0.499626 0.500005 0.218894 0.953044
C4    C     C_R   0.500374 0.500005 0.781106 0.953041
C5    C     C_R   0.499998 0.053200 0.500003 0.093911
C6    C     C_R   0.499999 0.946600 0.500002 0.099161
C7    C     C_1   0.499882 0.500023 0.065502 -0.080420
C8    C     C_1   0.500118 0.500023 0.934497 -0.080428
C9    C     C_R   0.094148 0.583541 0.558726 -0.211907
C10   C     C_R   0.905517 0.415582 0.441833 -0.204263
C11   C     C_R   0.905851 0.583542 0.441265 -0.211905
C12   C     C_R   0.670439 0.499997 0.475354 0.946870
C13   C     C_R   0.094481 0.415581 0.558142 -0.204285
C14   C     C_R   0.187038 0.584245 0.585942 0.415669
C15   C     C_R   0.812641 0.415340 0.413952 0.416101
C16   C     C_R   0.812960 0.584246 0.414051 0.415658
C17   C     C_R   0.187357 0.415339 0.586028 0.416106
C18   C     C_R   0.235068 0.499901 0.569445 -0.318402
C19   C     C_R   0.764930 0.499902 0.430545 -0.318394
C20   C     C_R   0.048268 0.499507 0.525962 0.027654
C21   C     C_R   0.951730 0.499508 0.474019 0.027645
C22   C     C_R   0.451931 0.203401 0.390370 0.320924
C23   C     C_R   0.553360 0.796404 0.602721 0.312732
C24   C     C_R   0.548068 0.203402 0.609631 0.320768
C25   C     C_R   0.446639 0.796403 0.397280 0.312696
C26   C     C_R   0.452869 0.105353 0.387668 -0.291527
C27   C     C_R   0.555146 0.894440 0.601982 -0.255647
C28   C     C_R   0.547128 0.105355 0.612336 -0.291504
H1    H     H_    0.058972 0.649057 0.568116 0.196149
H2    H     H_    0.714152 0.181874 0.418433 0.383314
H3    H     H_    0.641286 0.722838 0.208114 0.384056
H4    H     H_    0.285685 0.181793 0.581544 0.383348
H5    H     H_    0.940405 0.349847 0.433208 0.196048
H6    H     H_    0.941027 0.649058 0.431879 0.196146
H7    H     H_    0.059593 0.349846 0.566757 0.196046
H8    H     H_    0.415751 0.072012 0.295838 0.173888
H9    H     H_    0.600827 0.927716 0.682613 0.172453
H10   H     H_    0.584248 0.072014 0.704165 0.173905
H11   H     H_    0.399169 0.927715 0.317393 0.172450
H12   H     H_    0.358637 0.722862 0.792098 0.384043
I1    I     I_    0.369072 0.266657 0.218267 -0.113931
I2    I     I_    0.637731 0.732020 0.771604 -0.164482
I3    I     I_    0.630937 0.266661 0.781719 -0.113927
I4    I     I_    0.362267 0.732018 0.228398 -0.164634
N1    N     N_R   0.500000 0.252470 0.500000 -0.133730
N2    N     N_R   0.500000 0.747530 0.500000 -0.142776
O1    O     O_R   0.369060 0.579480 0.500010 -0.562349
O2    O     O_2   0.169250 0.733312 0.764815 -0.238977
O3    O     O_3   0.329662 0.661704 0.770139 -0.538908
O4    O     O_2   0.678853 0.335602 0.242288 -0.282847
O5    O     O_2   0.829793 0.267679 0.232256 -0.245916
O6    O     O_3   0.740146 0.237187 0.471378 -0.526320
O7    O     O_2   0.741878 0.753584 0.458581 -0.279395
O8    O     O_2   0.830748 0.733318 0.235188 -0.238884
O9    O     O_3   0.670338 0.661708 0.229857 -0.538934
O10   O     O_2   0.321134 0.335601 0.757719 -0.282738
O11   O     O_2   0.170194 0.267664 0.767689 -0.246031
O12   O     O_R   0.630940 0.420520 0.499990 -0.564940
O13   O     O_3   0.259876 0.237197 0.528590 -0.526371
O14   O     O_R   0.630940 0.579480 0.499990 -0.562406
O15   O     O_R   0.369060 0.420520 0.500010 -0.564901
O16   O     O_R   0.500000 0.579460 0.285340 -0.602445
O17   O     O_R   0.500000 0.420540 0.714660 -0.593080
O18   O     O_R   0.500000 0.579460 0.714660 -0.602379
O19   O     O_R   0.500000 0.420540 0.285340 -0.593084
O20   O     O_2   0.258122 0.753585 0.541425 -0.279330
S1    S     S_3+6 0.235879 0.687104 0.665341 0.070584
S2    S     S_3+6 0.763538 0.312773 0.333706 0.070669
S3    S     S_3+6 0.764120 0.687106 0.334659 0.070602
S4    S     S_3+6 0.236460 0.312770 0.666270 0.070663
Zn1   Zn    Zn3+2 0.500000 0.606140 0.500000 1.063182
Zn2   Zn    Zn3+2 0.500000 0.393860 0.500000 1.091642

loop_
_geom_bond_atom_site_label_1
_geom_bond_atom_site_label_2
_ccdc_geom_bond_type
C9    C14   A    
C13   C17   A    
O11   S4    D    
C10   H5    S    
C5    C28   A    
C11   C16   A    
C14   C18   A    
C9    C20   A    
O10   S4    D    
C6    C27   A    
H4    O13   S    
C9    H1    S    
O6    S2    S    
C4    C8    S    
O7    S3    D    
C17   C18   A    
C1    C18   S    
C12   O12   A    
C7    C8    T    
O2    S1    D    
C23   N2    A    
C2    C6    A    
C20   C21   S    
N1    Zn2   S    
C15   C19   A    
C23   I2    S    
C4    O17   A    
O1    Zn1   S    
N2    Zn1   S    
O9    S3    S    
O8    S3    D    
C14   S1    S    
C27   H9    S    
C16   C19   A    
C15   S2    S    
C25   N2    A    
C12   C19   S    
C26   H8    S    
O5    S2    D    
C11   C21   A    
O16   Zn1   S    
C13   H7    S    
C2    C25   A    
C3    C7    S    
C23   C27   A    
O12   Zn2   S    
C10   C21   A    
C25   I4    S    
C5    C6    S    
C3    O19   A    
O18   Zn1   S    
C22   I1    S    
C24   N1    A    
O13   S4    S    
C5    C26   A    
O19   Zn2   S    
C24   C28   A    
C17   S4    S    
C22   N1    A    
O20   S1    D    
O17   Zn2   S    
O15   Zn2   S    
C22   C26   A    
C3    O16   A    
C24   I3    S    
C4    O18   A    
C1    O1    A    
H2    O6    S    
O3    S1    S    
O14   Zn1   S    
H3    O9    S    
C28   H10   S    
O4    S2    D    
C2    H11   S    
C13   C20   A    
C11   H6    S    
C16   S3    S    
H12   O3    S    
C1    O15   A    
C10   C15   A    
C12   O14   A    
