data_mof_unit_63906.cif
_audit_creation_date              2012-12-10T16:53:41-0500
_audit_creation_method            fapswitch 2.2
_symmetry_space_group_name_H-M    P1
_symmetry_Int_Tables_number       1
_space_group_crystal_system       triclinic
_cell_length_a                    31.631604
_cell_length_b                    30.069031
_cell_length_c                    21.040532
_cell_angle_alpha                 89.999634
_cell_angle_beta                  136.252258
_cell_angle_gamma                 90.000043
_cell_volume                      13838.2084661

loop_
_atom_site_label
_atom_site_type_symbol
_atom_type_description
_atom_site_fract_x
_atom_site_fract_y
_atom_site_fract_z
_atom_type_partial_charge
C1    C     C_R   0.805669 0.810547 0.493890 0.790654
C2    C     C_R   0.558637 0.439354 0.497836 0.841058
C3    C     C_R   0.557971 0.561510 0.497807 0.829325
C4    C     C_R   0.441364 0.439353 0.502165 0.841051
C5    C     C_R   0.941364 0.060648 0.502164 0.841038
C6    C     C_R   0.057972 0.938492 0.497808 0.829344
C7    C     C_R   0.058635 0.060649 0.497835 0.841034
C8    C     C_R   0.942028 0.938491 0.502193 0.829338
C9    C     C_R   0.664549 0.749563 0.328330 0.893612
C10   C     C_R   0.335451 0.250436 0.671670 0.897557
C11   C     C_R   0.335451 0.749563 0.671670 0.893615
C12   C     C_R   0.195108 0.189579 0.507723 0.793246
C13   C     C_R   0.664549 0.250436 0.328330 0.897559
C14   C     C_R   0.164549 0.249564 0.328330 0.897553
C15   C     C_R   0.835451 0.750437 0.671670 0.893615
C16   C     C_R   0.835451 0.249564 0.671670 0.897557
C17   C     C_R   0.164549 0.750437 0.328330 0.893618
C18   C     C_1   0.614204 0.748523 0.226715 -0.209092
C19   C     C_1   0.385792 0.251467 0.773285 -0.206903
C20   C     C_1   0.385795 0.748523 0.773285 -0.209091
C21   C     C_1   0.614208 0.251467 0.226715 -0.206902
C22   C     C_1   0.114208 0.248533 0.226715 -0.206903
C23   C     C_R   0.194331 0.810547 0.506111 0.790658
C24   C     C_1   0.885796 0.751477 0.773284 -0.209093
C25   C     C_1   0.885792 0.248533 0.773285 -0.206902
C26   C     C_1   0.114204 0.751477 0.226715 -0.209092
C27   C     C_1   0.571771 0.748075 0.142128 0.001702
C28   C     C_1   0.428225 0.251909 0.857872 0.003609
C29   C     C_1   0.428228 0.748075 0.857872 0.001703
C30   C     C_1   0.571776 0.251909 0.142127 0.003610
C31   C     C_1   0.071775 0.248091 0.142127 0.003608
C32   C     C_1   0.928228 0.751925 0.857872 0.001702
C33   C     C_1   0.928224 0.248091 0.857872 0.003609
C34   C     C_R   0.804891 0.189579 0.492275 0.793247
C35   C     C_1   0.071772 0.751925 0.142128 0.001703
C36   C     C_1   0.521373 0.747853 0.042278 0.004387
C37   C     C_1   0.478625 0.252127 0.957722 0.005988
C38   C     C_1   0.478626 0.747853 0.957722 0.004387
C39   C     C_1   0.521375 0.252127 0.042278 0.005989
C40   C     C_1   0.021375 0.247873 0.042278 0.005987
C41   C     C_1   0.978626 0.752146 0.957722 0.004387
C42   C     C_1   0.978624 0.247873 0.957722 0.005988
C43   C     C_1   0.021374 0.752147 0.042278 0.004387
C44   C     C_2   0.881483 0.870678 0.441228 0.039100
C45   C     C_R   0.304891 0.310420 0.492274 0.793247
C46   C     C_2   0.112947 0.130484 0.550201 0.032253
C47   C     C_2   0.118514 0.870677 0.558769 0.039096
C48   C     C_2   0.887059 0.130485 0.449809 0.032245
C49   C     C_2   0.387064 0.369514 0.449818 0.032242
C50   C     C_2   0.618522 0.629320 0.558779 0.039106
C51   C     C_2   0.612930 0.369513 0.550174 0.032233
C52   C     C_2   0.381480 0.629321 0.441223 0.039102
C53   C     C_2   0.917585 0.900419 0.510377 0.420475
C54   C     C_2   0.085233 0.096522 0.489793 0.428194
C55   C     C_2   0.082417 0.900421 0.489623 0.420478
C56   C     C_R   0.694330 0.689453 0.506108 0.790652
C57   C     C_2   0.914763 0.096518 0.510205 0.428204
C58   C     C_2   0.414762 0.403484 0.510206 0.428212
C59   C     C_2   0.582412 0.599584 0.489623 0.420471
C60   C     C_2   0.585242 0.403488 0.489796 0.428218
C61   C     C_2   0.417585 0.599582 0.510376 0.420474
C62   C     C_2   0.853973 0.835204 0.449412 -0.248234
C63   C     C_2   0.140174 0.165804 0.541397 -0.247937
C64   C     C_2   0.146024 0.835203 0.550584 -0.248232
C65   C     C_2   0.859832 0.165805 0.458614 -0.247935
C66   C     C_2   0.359838 0.334195 0.458624 -0.247936
C67   C     C_R   0.695110 0.310420 0.507727 0.793250
C68   C     C_2   0.646032 0.664795 0.550595 -0.248236
C69   C     C_2   0.640156 0.334194 0.541367 -0.247936
C70   C     C_2   0.353970 0.664796 0.449408 -0.248233
C71   C     C_2   0.824871 0.846135 0.471705 0.419189
C72   C     C_2   0.177026 0.154733 0.532999 0.419407
C73   C     C_2   0.175131 0.846134 0.528300 0.419186
C74   C     C_2   0.822973 0.154734 0.466997 0.419410
C75   C     C_2   0.322972 0.345266 0.466996 0.419411
C76   C     C_2   0.675126 0.653864 0.528289 0.419189
C77   C     C_2   0.677029 0.345264 0.533008 0.419410
C78   C     C_R   0.305670 0.689453 0.493891 0.790653
C79   C     C_2   0.324872 0.653865 0.471707 0.419189
C80   C     C_3   0.951137 0.926768 0.646419 -0.289708
C81   C     C_3   0.069881 0.059581 0.376212 -0.318260
C82   C     C_3   0.048876 0.926778 0.353594 -0.289723
C83   C     C_3   0.930095 0.059566 0.623759 -0.318291
C84   C     C_3   0.430079 0.440443 0.623739 -0.318316
C85   C     C_3   0.548844 0.573245 0.353563 -0.289683
C86   C     C_3   0.569943 0.440458 0.376287 -0.318342
C87   C     C_3   0.451143 0.573236 0.646424 -0.289699
C88   C     C_3   0.807083 0.905589 0.523039 -0.238075
C89   C     C_R   0.442028 0.561509 0.502192 0.829328
C90   C     C_3   0.212292 0.093452 0.511689 -0.228092
C91   C     C_3   0.192931 0.905590 0.476985 -0.238064
C92   C     C_3   0.787688 0.093453 0.488275 -0.228089
C93   C     C_3   0.287674 0.406547 0.488249 -0.228085
C94   C     C_3   0.692898 0.594414 0.476927 -0.238094
C95   C     C_3   0.712345 0.406546 0.511785 -0.228076
C96   C     C_3   0.307089 0.594412 0.523051 -0.238085
H1    H     H_    0.861830 0.800891 0.444010 0.130503
H2    H     H_    0.883498 0.843041 0.356086 0.182320
H3    H     H_    0.160504 0.135579 0.683644 0.208280
H4    H     H_    0.093281 0.163108 0.610147 0.179205
H5    H     H_    0.178071 0.875272 0.696315 0.206199
H6    H     H_    0.116488 0.843036 0.643896 0.182321
H7    H     H_    0.839516 0.135591 0.316373 0.208282
H8    H     H_    0.906743 0.163114 0.389891 0.179206
H9    H     H_    0.339533 0.364400 0.316389 0.208282
H10   H     H_    0.406764 0.336882 0.389924 0.179198
H11   H     H_    0.678095 0.624710 0.696327 0.206194
H12   H     H_    0.125196 0.199753 0.533444 0.131695
H13   H     H_    0.616523 0.656953 0.643943 0.182323
H14   H     H_    0.660449 0.364388 0.683596 0.208284
H15   H     H_    0.593213 0.336876 0.610041 0.179199
H16   H     H_    0.321913 0.624718 0.303676 0.206196
H17   H     H_    0.383489 0.656957 0.356073 0.182324
H18   H     H_    0.919527 0.955001 0.602717 0.128297
H19   H     H_    0.999507 0.937313 0.693852 0.191104
H20   H     H_    0.945139 0.916943 0.690303 0.167706
H21   H     H_    0.023136 0.045365 0.328019 0.189695
H22   H     H_    0.104365 0.035441 0.431694 0.133264
H23   H     H_    0.138162 0.800890 0.555977 0.130504
H24   H     H_    0.079651 0.065190 0.335743 0.172164
H25   H     H_    0.080488 0.955009 0.397303 0.128297
H26   H     H_    0.000507 0.937325 0.306159 0.191104
H27   H     H_    0.054878 0.916956 0.309713 0.167707
H28   H     H_    0.976838 0.045345 0.671951 0.189691
H29   H     H_    0.895608 0.035431 0.568265 0.133276
H30   H     H_    0.920321 0.065170 0.664224 0.172169
H31   H     H_    0.395590 0.464575 0.568237 0.133285
H32   H     H_    0.476820 0.454667 0.671930 0.189688
H33   H     H_    0.420302 0.434842 0.664201 0.172175
H34   H     H_    0.874817 0.199753 0.466580 0.131695
H35   H     H_    0.500474 0.562702 0.306133 0.191104
H36   H     H_    0.580452 0.545009 0.397254 0.128297
H37   H     H_    0.554839 0.583074 0.309677 0.167704
H38   H     H_    0.604435 0.464585 0.431801 0.133295
H39   H     H_    0.523204 0.454686 0.328097 0.189682
H40   H     H_    0.579724 0.434862 0.335829 0.172178
H41   H     H_    0.499513 0.562691 0.693856 0.191104
H42   H     H_    0.419534 0.545002 0.602726 0.128297
H43   H     H_    0.445146 0.583062 0.690309 0.167706
H44   H     H_    0.842685 0.888929 0.591088 0.151333
H45   H     H_    0.374827 0.300247 0.466600 0.131696
H46   H     H_    0.761287 0.901984 0.495436 0.185067
H47   H     H_    0.817491 0.941680 0.533993 0.151689
H48   H     H_    0.258896 0.101000 0.544409 0.181616
H49   H     H_    0.176813 0.103894 0.438287 0.160009
H50   H     H_    0.209371 0.056771 0.513070 0.159584
H51   H     H_    0.157328 0.888935 0.408932 0.151338
H52   H     H_    0.238728 0.901983 0.504591 0.185065
H53   H     H_    0.182528 0.941682 0.466039 0.151693
H54   H     H_    0.741084 0.101006 0.455551 0.181612
H55   H     H_    0.823166 0.103887 0.561681 0.160020
H56   H     H_    0.638182 0.699108 0.556011 0.130502
H57   H     H_    0.790601 0.056772 0.486880 0.159595
H58   H     H_    0.323151 0.396117 0.561659 0.160027
H59   H     H_    0.241070 0.398990 0.455521 0.181610
H60   H     H_    0.290581 0.443228 0.486844 0.159600
H61   H     H_    0.738692 0.598016 0.504525 0.185071
H62   H     H_    0.657296 0.611079 0.408884 0.151328
H63   H     H_    0.682483 0.558324 0.465962 0.151683
H64   H     H_    0.676868 0.396124 0.438371 0.160037
H65   H     H_    0.758949 0.398985 0.544518 0.181605
H66   H     H_    0.709446 0.443228 0.513203 0.159607
H67   H     H_    0.625160 0.300247 0.533377 0.131696
H68   H     H_    0.261294 0.598016 0.495449 0.185069
H69   H     H_    0.342691 0.611073 0.591098 0.151332
H70   H     H_    0.317499 0.558321 0.534008 0.151688
H71   H     H_    0.361825 0.699109 0.444001 0.130503
H72   H     H_    0.821920 0.875279 0.303681 0.206198
N1    N     N_3   0.869265 0.872997 0.361037 -0.465888
N2    N     N_3   0.114669 0.133430 0.620139 -0.471766
N3    N     N_3   0.130726 0.872992 0.638954 -0.465892
N4    N     N_3   0.885348 0.133437 0.379883 -0.471773
N5    N     N_3   0.385363 0.366558 0.379902 -0.471779
N6    N     N_3   0.630749 0.626997 0.638978 -0.465883
N7    N     N_3   0.614621 0.366552 0.620078 -0.471784
N8    N     N_3   0.369259 0.627001 0.361029 -0.465888
O1    O     O_R   0.820750 0.769700 0.499970 -0.628698
O2    O     O_R   0.230310 0.179230 0.500010 -0.620463
O3    O     O_R   0.230310 0.820770 0.500010 -0.615941
O4    O     O_R   0.769690 0.179230 0.499990 -0.620467
O5    O     O_R   0.269690 0.320770 0.499990 -0.620470
O6    O     O_R   0.730310 0.679230 0.500010 -0.615933
O7    O     O_R   0.730310 0.320770 0.500010 -0.620475
O8    O     O_R   0.269690 0.679230 0.499990 -0.615936
O9    O     O_R   0.712390 0.724470 0.373700 -0.604639
O10   O     O_R   0.287610 0.275530 0.626300 -0.602425
O11   O     O_R   0.287610 0.724470 0.626300 -0.604638
O12   O     O_R   0.179250 0.230300 0.500030 -0.631004
O13   O     O_R   0.712390 0.275530 0.373700 -0.602423
O14   O     O_R   0.212390 0.224470 0.373700 -0.602429
O15   O     O_R   0.787610 0.775530 0.626300 -0.604638
O16   O     O_R   0.787610 0.224470 0.626300 -0.602426
O17   O     O_R   0.212390 0.775530 0.373700 -0.604637
O18   O     O_R   0.661330 0.775540 0.373730 -0.589054
O19   O     O_R   0.338670 0.224460 0.626270 -0.591244
O20   O     O_R   0.338670 0.775540 0.626270 -0.589055
O21   O     O_R   0.661330 0.224460 0.373730 -0.591246
O22   O     O_R   0.161330 0.275540 0.373730 -0.591245
O23   O     O_R   0.179250 0.769700 0.500030 -0.628699
O24   O     O_R   0.838670 0.724460 0.626270 -0.589054
O25   O     O_R   0.838670 0.275540 0.626270 -0.591248
O26   O     O_R   0.161330 0.724460 0.373730 -0.589054
O27   O     O_R   0.419140 0.545230 0.428730 -0.603060
O28   O     O_R   0.580860 0.454770 0.571270 -0.605464
O29   O     O_R   0.580860 0.545230 0.571270 -0.603060
O30   O     O_R   0.419140 0.454770 0.428730 -0.605460
O31   O     O_R   0.919140 0.045230 0.428730 -0.605457
O32   O     O_R   0.080860 0.954770 0.571270 -0.603060
O33   O     O_R   0.080860 0.045230 0.571270 -0.605453
O34   O     O_R   0.820750 0.230300 0.499970 -0.631006
O35   O     O_R   0.919140 0.954770 0.428730 -0.603059
O36   O     O_R   0.490420 0.545230 0.571310 -0.628341
O37   O     O_R   0.509580 0.454770 0.428690 -0.623503
O38   O     O_R   0.509580 0.545230 0.428690 -0.628343
O39   O     O_R   0.490420 0.454770 0.571310 -0.623505
O40   O     O_R   0.990420 0.045230 0.571310 -0.623510
O41   O     O_R   0.009580 0.954770 0.428690 -0.628335
O42   O     O_R   0.009580 0.045230 0.428690 -0.623512
O43   O     O_R   0.990420 0.954770 0.571310 -0.628337
O44   O     O_3   0.939174 0.889349 0.594665 -0.614331
O45   O     O_R   0.320750 0.269700 0.499970 -0.631008
O46   O     O_3   0.072491 0.100958 0.410932 -0.612454
O47   O     O_3   0.060834 0.889356 0.405338 -0.614331
O48   O     O_3   0.927494 0.100946 0.589058 -0.612452
O49   O     O_3   0.427485 0.399060 0.589053 -0.612449
O50   O     O_3   0.560816 0.610659 0.405332 -0.614331
O51   O     O_3   0.572528 0.399071 0.410956 -0.612445
O52   O     O_3   0.439177 0.610653 0.594665 -0.614331
O53   O     O_3   0.805473 0.890337 0.457797 -0.604961
O54   O     O_3   0.203973 0.112392 0.563434 -0.603809
O55   O     O_3   0.194536 0.890335 0.542220 -0.604959
O56   O     O_R   0.679250 0.730300 0.500030 -0.628696
O57   O     O_3   0.796018 0.112396 0.436546 -0.603807
O58   O     O_3   0.296013 0.387602 0.436532 -0.603808
O59   O     O_3   0.694516 0.609661 0.542180 -0.604963
O60   O     O_3   0.703995 0.387599 0.563488 -0.603805
O61   O     O_3   0.305476 0.609663 0.457804 -0.604962
O62   O     O_R   0.679250 0.269700 0.500030 -0.631010
O63   O     O_R   0.320750 0.730300 0.499970 -0.628697
O64   O     O_R   0.769690 0.820770 0.499990 -0.615937
Zn1   Zn    Zn3+2 0.784090 0.715900 0.499990 0.950202
Zn2   Zn    Zn3+2 0.547600 0.500000 0.595200 0.976115
Zn3   Zn    Zn3+2 0.952400 0.000000 0.404800 0.976112
Zn4   Zn    Zn3+2 0.047600 0.000000 0.595200 0.976114
Zn5   Zn    Zn3+2 0.215910 0.284100 0.500010 0.947541
Zn6   Zn    Zn3+2 0.215910 0.715900 0.500010 0.950202
Zn7   Zn    Zn3+2 0.784090 0.284100 0.499990 0.947539
Zn8   Zn    Zn3+2 0.284090 0.215900 0.499990 0.947542
Zn9   Zn    Zn3+2 0.715910 0.784100 0.500010 0.950203
Zn10  Zn    Zn3+2 0.715910 0.215900 0.500010 0.947540
Zn11  Zn    Zn3+2 0.284090 0.784100 0.499990 0.950201
Zn12  Zn    Zn3+2 0.452400 0.500000 0.404800 0.976117

loop_
_geom_bond_atom_site_label_1
_geom_bond_atom_site_label_2
_ccdc_geom_bond_type
O40   Zn4   S    
O1    Zn1   S    
C84   H32   S    
C94   H63   S    
O25   Zn7   S    
C81   H21   S    
O13   Zn7   S    
H11   N6    S    
C96   O61   S    
C92   O57   S    
C34   O4    A    
O41   Zn3   S    
C67   C77   S    
C6    C55   S    
C33   C42   S    
C91   H51   S    
C65   H34   S    
C45   O5    A    
C48   C57   D    
C66   H45   S    
H14   N7    S    
C31   C40   S    
C3    O38   A    
C81   O46   S    
C14   O22   A    
C81   H24   S    
C1    C71   S    
C64   H23   S    
C72   O54   S    
C75   O58   S    
H15   N7    S    
C50   C59   D    
C28   C37   S    
C47   C55   D    
C93   H58   S    
C83   H29   S    
C90   H49   S    
C9    O9    A    
C52   C61   D    
C95   H65   S    
C85   H36   S    
C2    C60   S    
C94   O59   S    
C54   O46   S    
O22   Zn5   S    
C12   O12   A    
C23   O23   A    
C84   H33   S    
C67   O7    A    
C13   O13   A    
O43   Zn4   S    
C56   O56   A    
O37   Zn12  S    
O8    Zn6   S    
C88   H46   S    
C59   O50   S    
C44   N1    S    
C88   H44   S    
O36   Zn2   S    
C34   O34   A    
O23   Zn6   S    
O15   Zn9   S    
C48   N4    S    
H2    N1    S    
O4    Zn10  S    
C44   C53   D    
C86   H38   S    
C80   H20   S    
C61   C89   S    
C16   O16   A    
C29   C38   S    
C62   C71   D    
C32   C41   S    
C92   H57   S    
C83   H28   S    
C8    O35   A    
C35   C43   S    
C52   N8    S    
C88   H47   S    
C23   O3    A    
H8    N4    S    
C84   H31   S    
C40   C42   T    
C88   O53   S    
C12   C72   S    
O64   Zn9   S    
C94   H62   S    
C4    O39   A    
H9    N5    S    
O62   Zn10  S    
C86   O51   S    
C41   C43   T    
C17   O17   A    
C1    O1    A    
O34   Zn7   S    
C87   H41   S    
C84   O49   S    
O33   Zn4   S    
C49   N5    S    
C91   H52   S    
C7    O33   A    
C23   C73   S    
C89   O36   A    
C20   C29   T    
C1    O64   A    
O26   Zn6   S    
C11   C20   S    
C61   O52   S    
C49   C66   S    
H4    N2    S    
C95   H64   S    
C3    O29   A    
O35   Zn3   S    
C93   H59   S    
C2    O28   A    
C11   O20   A    
C85   H37   S    
C22   C31   T    
C95   H66   S    
C47   C64   S    
H3    N2    S    
C9    O18   A    
O9    Zn1   S    
C82   O47   S    
C44   C62   S    
C5    O40   A    
O63   Zn11  S    
C81   H22   S    
C77   O60   S    
C65   C74   D    
C96   H68   S    
C91   O55   S    
C24   C32   T    
C68   H56   S    
C96   H70   S    
O31   Zn3   S    
C5    O31   A    
C62   H1    S    
O3    Zn11  S    
C9    C18   S    
C47   N3    S    
C80   H19   S    
C10   C19   S    
C64   C73   D    
C46   C54   D    
C92   H55   S    
C93   O58   S    
C71   O53   S    
O18   Zn9   S    
C13   C21   S    
O12   Zn5   S    
O7    Zn7   S    
O42   Zn3   S    
H6    N3    S    
C74   O57   S    
C51   N7    S    
C19   C28   T    
C45   C75   S    
C58   O49   S    
C13   O21   A    
C34   C74   S    
H17   N8    S    
O2    Zn8   S    
C83   O48   S    
C86   H40   S    
H72   N1    S    
H16   N8    S    
C80   H18   S    
C94   H61   S    
C56   C76   S    
C69   H67   S    
O38   Zn12  S    
H7    N4    S    
C48   C65   S    
C11   O11   A    
C51   C60   D    
C95   O60   S    
C17   C26   S    
C87   H42   S    
C4    C58   S    
O29   Zn2   S    
O6    Zn1   S    
C82   H27   S    
C73   O55   S    
O30   Zn12  S    
C55   O47   S    
O19   Zn8   S    
C16   C25   S    
C15   O15   A    
C15   C24   S    
O39   Zn2   S    
C82   H25   S    
C78   O8    A    
C89   O27   A    
C70   C79   D    
H13   N6    S    
C6    O32   A    
C93   H60   S    
C18   C27   T    
O32   Zn4   S    
C87   H43   S    
C79   O61   S    
C8    C53   S    
C80   O44   S    
O28   Zn2   S    
C7    O42   A    
C4    O30   A    
C85   O50   S    
O45   Zn8   S    
C27   C36   S    
C68   C76   D    
C51   C69   S    
C21   C30   T    
C67   O62   A    
O14   Zn8   S    
C78   O63   A    
C5    C57   S    
C46   C63   S    
C50   N6    S    
C60   O51   S    
C45   O45   A    
C14   C22   S    
C36   C38   T    
C63   H12   S    
C90   H50   S    
C8    O43   A    
C10   O19   A    
C85   H35   S    
C92   H54   S    
C15   O24   A    
C78   C79   S    
C69   C77   D    
C56   O6    A    
O21   Zn10  S    
C53   O44   S    
O16   Zn10  S    
C66   C75   D    
O20   Zn11  S    
C10   O10   A    
H10   N5    S    
C30   C39   S    
H5    N3    S    
C76   O59   S    
O5    Zn5   S    
O11   Zn6   S    
O17   Zn11  S    
C17   O26   A    
C52   C70   S    
C49   C58   D    
O27   Zn12  S    
C14   O14   A    
C46   N2    S    
C86   H39   S    
C63   C72   D    
C2    O37   A    
C37   C39   T    
C87   O52   S    
C91   H53   S    
C26   C35   T    
C6    O41   A    
C96   H69   S    
C90   O54   S    
O56   Zn9   S    
C83   H30   S    
C7    C54   S    
C12   O2    A    
C70   H71   S    
C50   C68   S    
O24   Zn1   S    
C82   H26   S    
O10   Zn5   S    
C90   H48   S    
C16   O25   A    
C25   C33   T    
C57   O48   S    
C3    C59   S    
