data_mof_unit_17258.cif
_audit_creation_date              2012-12-11T14:10:56-0500
_audit_creation_method            fapswitch 2.2
_symmetry_space_group_name_H-M    P1
_symmetry_Int_Tables_number       1
_space_group_crystal_system       triclinic
_cell_length_a                    20.311903
_cell_length_b                    17.065609
_cell_length_c                    15.764263
_cell_angle_alpha                 90.360479
_cell_angle_beta                  50.87107
_cell_angle_gamma                 89.857962
_cell_volume                      4238.69202095

loop_
_atom_site_label
_atom_site_type_symbol
_atom_type_description
_atom_site_fract_x
_atom_site_fract_y
_atom_site_fract_z
_atom_type_partial_charge
C1    C     C_R   0.342499 0.179861 0.042768 0.516134
C2    C     C_3   0.735680 0.743138 0.427142 -0.604968
C3    C     C_3   0.188886 0.904107 0.406839 -0.095514
C4    C     C_3   0.742341 0.589923 0.643853 0.203896
C5    C     C_3   0.260445 0.411641 0.356028 0.115433
C6    C     C_3   0.360030 0.576560 0.433642 0.041619
C7    C     C_3   0.688886 0.404107 0.406839 -0.095513
C8    C     C_3   0.764933 0.203277 0.417795 -0.520855
C9    C     C_3   0.225427 0.800214 0.584010 -0.393461
C10   C     C_3   0.766349 0.757776 0.572498 -0.603384
C11   C     C_3   0.235681 0.243138 0.427142 -0.604967
C12   C     C_3   0.264933 0.703277 0.417795 -0.520854
C13   C     C_3   0.725427 0.300213 0.584010 -0.393463
C14   C     C_2   0.262010 0.712512 0.979881 0.402453
C15   C     C_2   0.738668 0.287038 0.018733 0.397719
C16   C     C_2   0.737674 0.712823 0.020382 0.395178
C17   C     C_R   0.657017 0.819658 0.958101 0.524716
C18   C     C_2   0.261501 0.286501 0.981039 0.393379
C19   C     C_2   0.762010 0.212512 0.979881 0.402453
C20   C     C_2   0.238668 0.787038 0.018733 0.397719
C21   C     C_2   0.237674 0.212823 0.020382 0.395178
C22   C     C_2   0.761502 0.786501 0.981039 0.393379
C23   C     C_R   0.401199 0.800152 0.208670 0.465141
C24   C     C_R   0.596262 0.200335 0.792774 0.461121
C25   C     C_R   0.595545 0.798991 0.792730 0.487576
C26   C     C_R   0.405066 0.201052 0.207055 0.489353
C27   C     C_R   0.901199 0.300152 0.208670 0.465141
C28   C     C_R   0.656545 0.179843 0.958723 0.516683
C29   C     C_R   0.096262 0.700335 0.792774 0.461121
C30   C     C_R   0.095545 0.298991 0.792730 0.487576
C31   C     C_R   0.905066 0.701052 0.207055 0.489353
C32   C     C_R   0.338746 0.903521 0.937524 -0.051118
C33   C     C_R   0.661547 0.096269 0.061967 -0.048968
C34   C     C_R   0.660951 0.903450 0.062980 -0.087428
C35   C     C_R   0.338643 0.096204 0.937717 -0.096033
C36   C     C_R   0.838746 0.403521 0.937524 -0.051118
C37   C     C_R   0.161548 0.596269 0.061967 -0.048968
C38   C     C_R   0.160951 0.403450 0.062980 -0.087428
C39   C     C_R   0.343892 0.819701 0.040433 0.502398
C40   C     C_R   0.838643 0.596204 0.937717 -0.096034
C41   C     C_R   0.413798 0.111451 0.298670 0.544440
C42   C     C_R   0.586756 0.888472 0.700994 0.550407
C43   C     C_R   0.598202 0.107676 0.693777 0.510764
C44   C     C_R   0.398238 0.893216 0.308319 0.490807
C45   C     C_R   0.913798 0.611451 0.298670 0.544439
C46   C     C_R   0.086757 0.388472 0.700994 0.550408
C47   C     C_R   0.098202 0.607676 0.693777 0.510765
C48   C     C_R   0.898238 0.393217 0.308319 0.490807
C49   C     C_R   0.299105 0.160456 0.006508 -0.097840
C50   C     C_R   0.842499 0.679861 0.042768 0.516134
C51   C     C_R   0.700164 0.838887 0.994755 -0.097289
C52   C     C_R   0.700077 0.160594 0.994696 -0.114896
C53   C     C_R   0.300498 0.838919 0.004238 -0.114959
C54   C     C_R   0.799105 0.660456 0.006508 -0.097840
C55   C     C_R   0.200164 0.338887 0.994755 -0.097289
C56   C     C_R   0.200077 0.660594 0.994696 -0.114896
C57   C     C_R   0.800497 0.338919 0.004238 -0.114959
C58   C     C_R   0.379590 0.817210 0.308056 -0.063398
C59   C     C_R   0.614677 0.184254 0.694878 -0.052169
C60   C     C_R   0.608818 0.812725 0.697539 -0.107856
C61   C     C_R   0.157017 0.319658 0.958101 0.524716
C62   C     C_R   0.392452 0.187408 0.301864 -0.107200
C63   C     C_R   0.879590 0.317209 0.308056 -0.063399
C64   C     C_R   0.114677 0.684254 0.694878 -0.052170
C65   C     C_R   0.108818 0.312725 0.697539 -0.107856
C66   C     C_R   0.892452 0.687408 0.301864 -0.107200
C67   C     C_3   0.267992 0.180915 0.518511 0.545553
C68   C     C_3   0.734099 0.819988 0.481077 0.559989
C69   C     C_3   0.767057 0.181514 0.510909 0.474456
C70   C     C_3   0.223705 0.822238 0.490606 0.544949
C71   C     C_3   0.767992 0.680915 0.518511 0.545553
C72   C     C_R   0.156544 0.679843 0.958724 0.516684
C73   C     C_3   0.234099 0.319988 0.481077 0.559989
C74   C     C_3   0.267057 0.681514 0.510909 0.474456
C75   C     C_3   0.723705 0.322238 0.490606 0.544950
C76   C     C_3   0.685590 0.702979 0.539743 0.570300
C77   C     C_3   0.316569 0.297867 0.459772 0.576850
C78   C     C_3   0.311030 0.757309 0.500167 0.535347
C79   C     C_3   0.678539 0.246182 0.502988 0.544695
C80   C     C_3   0.185591 0.202979 0.539743 0.570299
C81   C     C_3   0.816569 0.797867 0.459772 0.576850
C82   C     C_3   0.811030 0.257308 0.500167 0.535347
C83   C     C_R   0.843892 0.319702 0.040433 0.502398
C84   C     C_3   0.178539 0.746182 0.502988 0.544695
C85   C     C_3   0.682832 0.779355 0.593423 -0.181765
C86   C     C_3   0.319238 0.221463 0.406097 -0.173134
C87   C     C_3   0.310112 0.780159 0.407457 -0.197329
C88   C     C_3   0.680644 0.223538 0.594937 -0.148044
C89   C     C_3   0.182832 0.279355 0.593423 -0.181764
C90   C     C_3   0.819238 0.721463 0.406097 -0.173133
C91   C     C_3   0.810112 0.280159 0.407457 -0.197329
C92   C     C_3   0.180644 0.723538 0.594937 -0.148044
C93   C     C_3   0.558002 0.677896 0.577779 0.010910
C94   C     C_3   0.266349 0.257776 0.572498 -0.603384
C95   C     C_3   0.445376 0.321561 0.419066 -0.041329
C96   C     C_3   0.365287 0.754156 0.591395 0.006243
C97   C     C_3   0.617358 0.213420 0.424060 -0.028825
C98   C     C_3   0.058002 0.177896 0.577779 0.010912
C99   C     C_3   0.945376 0.821561 0.419066 -0.041328
C100  C     C_3   0.865287 0.254157 0.591395 0.006247
C101  C     C_3   0.117359 0.713420 0.424060 -0.028825
C102  C     C_3   0.242341 0.089923 0.643853 0.203895
C103  C     C_3   0.760445 0.911641 0.356028 0.115432
C104  C     C_3   0.860030 0.076560 0.433642 0.041622
Cl1   Cl    Cl    0.315302 0.261367 0.127776 -0.624139
Cl2   Cl    Cl    0.542682 0.288433 0.861180 -0.383690
Cl3   Cl    Cl    0.542199 0.712484 0.862908 -0.407109
Cl4   Cl    Cl    0.457822 0.287707 0.136807 -0.414431
Cl5   Cl    Cl    0.955166 0.211563 0.143033 -0.414054
Cl6   Cl    Cl    0.042682 0.788433 0.861180 -0.383690
Cl7   Cl    Cl    0.042199 0.212484 0.862908 -0.407109
Cl8   Cl    Cl    0.957822 0.787707 0.136807 -0.414430
Cl9   Cl    Cl    0.481627 0.093762 0.329986 -0.583645
Cl10  Cl    Cl    0.518614 0.904882 0.669913 -0.565967
Cl11  Cl    Cl    0.606260 0.061391 0.588391 -0.534940
Cl12  Cl    Cl    0.683857 0.737859 0.873682 -0.621931
Cl13  Cl    Cl    0.389499 0.938961 0.414599 -0.488745
Cl14  Cl    Cl    0.981627 0.593763 0.329986 -0.583645
Cl15  Cl    Cl    0.018614 0.404882 0.669914 -0.565967
Cl16  Cl    Cl    0.106260 0.561391 0.588391 -0.534941
Cl17  Cl    Cl    0.889499 0.438961 0.414599 -0.488746
Cl18  Cl    Cl    0.368973 0.682501 0.881714 -0.535457
Cl19  Cl    Cl    0.631716 0.317180 0.116558 -0.553530
Cl20  Cl    Cl    0.630638 0.684414 0.116932 -0.519974
Cl21  Cl    Cl    0.368537 0.314860 0.884377 -0.482260
Cl22  Cl    Cl    0.868973 0.182501 0.881714 -0.535457
Cl23  Cl    Cl    0.681939 0.261509 0.876390 -0.618752
Cl24  Cl    Cl    0.131716 0.817180 0.116558 -0.553530
Cl25  Cl    Cl    0.130638 0.184414 0.116932 -0.519974
Cl26  Cl    Cl    0.868537 0.814860 0.884377 -0.482260
Cl27  Cl    Cl    0.319376 0.737192 0.121135 -0.616544
Cl28  Cl    Cl    0.815302 0.761367 0.127776 -0.624139
Cl29  Cl    Cl    0.183857 0.237859 0.873682 -0.621931
Cl30  Cl    Cl    0.181939 0.761509 0.876390 -0.618752
Cl31  Cl    Cl    0.819376 0.237192 0.121136 -0.616544
Cl32  Cl    Cl    0.455166 0.711563 0.143033 -0.414054
H1    H     H_    0.323957 0.930955 0.889697 0.177985
H2    H     H_    0.723929 0.737120 0.367606 0.225477
H3    H     H_    0.783305 0.164999 0.348637 0.237312
H4    H     H_    0.207644 0.839741 0.651847 0.243242
H5    H     H_    0.777929 0.763898 0.632198 0.226269
H6    H     H_    0.223929 0.237120 0.367606 0.225477
H7    H     H_    0.283305 0.664999 0.348637 0.237312
H8    H     H_    0.707644 0.339741 0.651847 0.243242
H9    H     H_    0.584172 0.679035 0.491059 0.105100
H10   H     H_    0.533977 0.736826 0.616270 0.166839
H11   H     H_    0.503029 0.637722 0.621915 0.180663
H12   H     H_    0.676436 0.068835 0.109689 0.175854
H13   H     H_    0.470455 0.264010 0.376388 0.178622
H14   H     H_    0.420062 0.317005 0.505218 0.123315
H15   H     H_    0.499471 0.362706 0.377205 0.173914
H16   H     H_    0.328667 0.699888 0.633432 0.128693
H17   H     H_    0.330045 0.806685 0.643377 0.182447
H18   H     H_    0.425071 0.750193 0.579565 0.146091
H19   H     H_    0.638857 0.151288 0.408419 0.197948
H20   H     H_    0.664169 0.249662 0.351576 0.119122
H21   H     H_    0.557112 0.215302 0.436780 0.166414
H22   H     H_    0.084172 0.179035 0.491059 0.105099
H23   H     H_    0.674891 0.930935 0.111936 0.171510
H24   H     H_    0.033977 0.236826 0.616270 0.166839
H25   H     H_    0.003029 0.137722 0.621915 0.180663
H26   H     H_    0.970455 0.764010 0.376389 0.178621
H27   H     H_    0.920062 0.817005 0.505218 0.123314
H28   H     H_    0.999471 0.862706 0.377205 0.173914
H29   H     H_    0.828666 0.199890 0.633434 0.128693
H30   H     H_    0.830046 0.306687 0.643375 0.182447
H31   H     H_    0.925071 0.250192 0.579565 0.146089
H32   H     H_    0.138858 0.651287 0.408419 0.197948
H33   H     H_    0.164169 0.749662 0.351576 0.119122
H34   H     H_    0.324592 0.068704 0.888887 0.173116
H35   H     H_    0.057112 0.715302 0.436779 0.166415
H36   H     H_    0.172985 0.099664 0.692236 0.170141
H37   H     H_    0.267177 0.125892 0.676962 0.129692
H38   H     H_    0.251938 0.027479 0.652975 0.168485
H39   H     H_    0.737584 0.874961 0.320986 0.157287
H40   H     H_    0.829847 0.903467 0.309000 0.167575
H41   H     H_    0.749563 0.973803 0.347479 0.159130
H42   H     H_    0.913868 0.118239 0.393720 0.162302
H43   H     H_    0.848193 0.059068 0.376321 0.151277
H44   H     H_    0.878862 0.022981 0.453325 0.165635
H45   H     H_    0.823957 0.430955 0.889697 0.177985
H46   H     H_    0.123487 0.884519 0.445404 0.167035
H47   H     H_    0.236124 0.870304 0.330390 0.073035
H48   H     H_    0.193550 0.966238 0.383455 0.163956
H49   H     H_    0.672985 0.599664 0.692236 0.170141
H50   H     H_    0.767177 0.625892 0.676963 0.129691
H51   H     H_    0.751938 0.527479 0.652975 0.168485
H52   H     H_    0.237584 0.374961 0.320986 0.157287
H53   H     H_    0.329847 0.403467 0.309000 0.167575
H54   H     H_    0.249563 0.473803 0.347479 0.159130
H55   H     H_    0.413868 0.618239 0.393720 0.162301
H56   H     H_    0.176436 0.568836 0.109689 0.175854
H57   H     H_    0.348193 0.559068 0.376321 0.151278
H58   H     H_    0.378862 0.522982 0.453326 0.165635
H59   H     H_    0.623487 0.384519 0.445404 0.167035
H60   H     H_    0.736124 0.370305 0.330390 0.073035
H61   H     H_    0.693550 0.466238 0.383455 0.163956
H62   H     H_    0.174891 0.430935 0.111936 0.171510
H63   H     H_    0.824592 0.568704 0.888887 0.173116
H64   H     H_    0.277929 0.263898 0.632198 0.226269
N1    N     N_R   0.408680 0.130810 0.995780 -0.094864
N2    N     N_R   0.578590 0.132790 0.846380 -0.137857
N3    N     N_R   0.578590 0.867210 0.846380 -0.139467
N4    N     N_R   0.421410 0.132790 0.153620 -0.142708
N5    N     N_R   0.921410 0.367210 0.153620 -0.145820
N6    N     N_R   0.078590 0.632790 0.846380 -0.137857
N7    N     N_R   0.078590 0.367210 0.846380 -0.139467
N8    N     N_R   0.921410 0.632790 0.153620 -0.142709
N9    N     N_R   0.403840 0.921910 0.935760 -0.083120
N10   N     N_R   0.596160 0.078090 0.064240 -0.081332
N11   N     N_R   0.596160 0.921910 0.064240 -0.085740
N12   N     N_R   0.591320 0.869190 0.004220 -0.091637
N13   N     N_R   0.403840 0.078090 0.935760 -0.089254
N14   N     N_R   0.903840 0.421910 0.935760 -0.083120
N15   N     N_R   0.096160 0.578090 0.064240 -0.081332
N16   N     N_R   0.096160 0.421910 0.064240 -0.085739
N17   N     N_R   0.903840 0.578090 0.935760 -0.089254
N18   N     N_R   0.426250 0.076100 0.213650 -0.143985
N19   N     N_R   0.573750 0.923900 0.786350 -0.139041
N20   N     N_R   0.573750 0.076100 0.786350 -0.137968
N21   N     N_R   0.426250 0.923900 0.213650 -0.146957
N22   N     N_R   0.926250 0.576100 0.213650 -0.143985
N23   N     N_R   0.591320 0.130810 0.004220 -0.092363
N24   N     N_R   0.073750 0.423900 0.786350 -0.139041
N25   N     N_R   0.073750 0.576100 0.786350 -0.137968
N26   N     N_R   0.926250 0.423900 0.213650 -0.146957
N27   N     N_R   0.408680 0.869190 0.995780 -0.093811
N28   N     N_R   0.908680 0.630810 0.995780 -0.094864
N29   N     N_R   0.091320 0.369190 0.004220 -0.091637
N30   N     N_R   0.091320 0.630810 0.004220 -0.092363
N31   N     N_R   0.908680 0.369190 0.995780 -0.093811
N32   N     N_R   0.421410 0.867210 0.153620 -0.145820
Ni1   Ni    Ni4+2 0.500000 0.131570 0.000000 0.342414
Ni2   Ni    Ni4+2 0.500000 0.868430 0.000000 0.341356
Ni3   Ni    Ni4+2 0.000000 0.631570 0.000000 0.342414
Ni4   Ni    Ni4+2 0.000000 0.368430 0.000000 0.341356
Ni5   Ni    Ni4+2 0.488900 0.000000 0.862310 0.281453
Ni6   Ni    Ni4+2 0.511100 0.000000 0.137690 0.278213
Ni7   Ni    Ni4+2 0.988900 0.500000 0.862310 0.281453
Ni8   Ni    Ni4+2 0.011100 0.500000 0.137690 0.278213
O1    O     O_3   0.618545 0.649097 0.586358 -0.580276
O2    O     O_3   0.714411 0.896042 0.467884 -0.586420
O3    O     O_3   0.785762 0.107627 0.531362 -0.635765
O4    O     O_3   0.204176 0.899976 0.482256 -0.554949
O5    O     O_3   0.787400 0.604842 0.532022 -0.584596
O6    O     O_3   0.214411 0.396042 0.467884 -0.586420
O7    O     O_3   0.285762 0.607627 0.531362 -0.635765
O8    O     O_3   0.704176 0.399977 0.482257 -0.554949
O9    O     O_3   0.383614 0.351712 0.413555 -0.609428
O10   O     O_3   0.385798 0.761948 0.488329 -0.580784
O11   O     O_3   0.601882 0.242811 0.518904 -0.586358
O12   O     O_3   0.118545 0.149097 0.586358 -0.580276
O13   O     O_3   0.883615 0.851712 0.413555 -0.609428
O14   O     O_3   0.885798 0.261947 0.488329 -0.580785
O15   O     O_3   0.101883 0.742811 0.518903 -0.586359
O16   O     O_3   0.287401 0.104842 0.532022 -0.584596

loop_
_geom_bond_atom_site_label_1
_geom_bond_atom_site_label_2
_ccdc_geom_bond_type
C78   C87   S    
C45   Cl14  S    
C23   C58   A    
C14   C56   S    
C10   C85   S    
C14   Cl18  S    
C12   C74   S    
C40   N17   A    
C31   C66   A    
C18   C21   D    
C101  H35   S    
C50   N28   A    
C43   N20   A    
C96   O10   S    
C5    O6    S    
C17   N12   A    
C1    N1    A    
C58   C87   S    
C95   O9    S    
C21   C49   S    
C41   N18   A    
C61   Cl29  S    
C66   C90   S    
N30   Ni3   S    
C67   O16   S    
C33   C52   A    
C65   C89   S    
C62   C86   S    
C24   N2    A    
C34   C51   A    
C50   C54   A    
C72   N30   A    
C23   Cl32  S    
C100  H31   S    
C45   N22   A    
N10   Ni6   S    
C4    H51   S    
C101  O15   S    
N9    Ni5   S    
C5    H54   S    
C20   Cl24  S    
C2    C68   S    
C28   N23   A    
C18   Cl21  S    
C71   C76   S    
C9    H4    S    
C97   H20   S    
C104  H43   S    
C70   C87   S    
C11   C86   S    
N8    N22   A    
N15   N30   A    
C55   C61   A    
C77   C94   S    
C80   C89   S    
C103  O2    S    
C46   N24   A    
C12   C84   S    
C100  H30   S    
C13   H8    S    
N2    N20   A    
C89   C94   S    
C2    C90   S    
C39   C53   A    
C59   C88   S    
N28   Ni3   S    
C69   C82   S    
N23   Ni1   S    
C43   Cl11  S    
C37   C56   A    
C72   Cl30  S    
C19   C52   S    
C42   Cl10  S    
C104  H42   S    
C38   C55   A    
C98   H22   S    
C68   O2    S    
C56   C72   A    
C102  O16   S    
C6    H55   S    
C35   C49   A    
C8    C79   S    
C61   N29   A    
C31   Cl8   S    
C38   H62   S    
C101  H33   S    
N31   Ni4   S    
C95   H13   S    
C25   C60   A    
C70   C84   S    
C3    H48   S    
N17   Ni7   S    
C39   N27   A    
C23   N32   A    
C28   Cl23  S    
C75   C91   S    
C3    O4    S    
C64   C92   S    
C70   O4    S    
C10   C71   S    
N22   Ni8   S    
C29   C64   A    
C74   C92   S    
N7    N24   A    
C100  H29   S    
C22   Cl26  S    
C68   C85   S    
C15   C57   S    
C17   C51   A    
C15   Cl19  S    
C41   C62   A    
N6    N25   A    
C100  O14   S    
N14   N31   A    
C9    C92   S    
N32   Ni2   S    
C79   C88   S    
C11   H6    S    
C1    Cl1   S    
N7    Ni4   S    
C102  H36   S    
C26   N4    A    
C4    O5    S    
C96   H18   S    
N18   Ni6   S    
N26   Ni8   S    
C67   C80   S    
C2    H2    S    
C13   C75   S    
C6    O7    S    
C93   H10   S    
C9    C70   S    
N3    Ni2   S    
C97   O11   S    
C42   N19   A    
C11   C73   S    
C24   Cl2   S    
C26   Cl4   S    
C48   Cl17  S    
C95   H14   S    
C69   O3    S    
C48   C63   A    
C73   O6    S    
C13   C82   S    
C29   N6    A    
N4    N18   A    
N6    Ni3   S    
C27   N5    A    
C10   H5    S    
N16   Ni8   S    
C4    H49   S    
C7    H61   S    
C101  H32   S    
C15   C19   D    
N11   N12   A    
N4    Ni1   S    
C33   H12   S    
C14   C20   D    
C67   C94   S    
C99   H26   S    
C48   N26   A    
C33   N10   A    
C29   Cl6   S    
N1    Ni1   S    
C96   H17   S    
C47   N25   A    
C102  H37   S    
N1    N13   A    
C44   C58   A    
C84   O15   S    
C103  H39   S    
N16   N29   A    
C8    C69   S    
N11   Ni6   S    
N5    N26   A    
C8    C91   S    
C50   Cl28  S    
C57   C83   A    
C35   N13   A    
N8    Ni3   S    
C21   Cl25  S    
C69   C88   S    
C27   C63   A    
C18   C55   S    
C46   C65   A    
C99   H27   S    
C81   C90   S    
C3    H47   S    
C47   Cl16  S    
C98   H24   S    
C77   C86   S    
C36   C57   A    
C40   C54   A    
N24   Ni7   S    
C8    H3    S    
C74   C78   S    
N25   Ni7   S    
C93   H9    S    
C95   H15   S    
C71   O5    S    
C7    H59   S    
C42   C60   A    
C32   C53   A    
C6    H58   S    
C98   H25   S    
C2    C76   S    
C11   C80   S    
C25   Cl3   S    
N27   Ni2   S    
N3    N19   A    
C67   C86   S    
C16   C22   D    
N10   N23   A    
C10   C81   S    
C12   C87   S    
C13   C88   S    
C79   O11   S    
C83   Cl31  S    
N5    Ni4   S    
C36   N14   A    
C38   N16   A    
C20   C53   S    
C25   N3    A    
C32   N9    A    
N12   Ni2   S    
C60   C85   S    
C47   C64   A    
N15   Ni8   S    
C40   H63   S    
C43   C59   A    
C102  H38   S    
C104  O3    S    
N9    N27   A    
N21   Ni6   S    
C19   Cl22  S    
N13   Ni5   S    
C12   H7    S    
C68   C81   S    
C30   Cl7   S    
C81   O13   S    
N19   Ni5   S    
N29   Ni4   S    
N14   Ni7   S    
C26   C62   A    
C73   C89   S    
C31   N8    A    
C99   O13   S    
C93   O1    S    
C34   H23   S    
C4    H50   S    
C98   O12   S    
C74   O7    S    
C28   C52   A    
C104  H44   S    
C71   C90   S    
C75   C79   S    
C44   Cl13  S    
C83   N31   A    
C24   C59   A    
C78   O10   S    
C30   N7    A    
C7    O8    S    
N21   N32   A    
C41   Cl9   S    
C103  H40   S    
C36   H45   S    
C46   Cl15  S    
C93   H11   S    
C94   H64   S    
C9    C78   S    
C97   H19   S    
C16   Cl20  S    
N20   Ni5   S    
C3    H46   S    
C16   C54   S    
C39   Cl27  S    
C30   C65   A    
C34   N11   A    
C82   C91   S    
N17   N28   A    
C76   O1    S    
C99   H28   S    
C32   H1    S    
C37   H56   S    
C77   O9    S    
C27   Cl5   S    
C80   O12   S    
C63   C91   S    
C45   C66   A    
C35   H34   S    
C73   C77   S    
C5    H53   S    
C82   O14   S    
C44   N21   A    
C84   C92   S    
C5    H52   S    
C103  H41   S    
C7    H60   S    
C1    C49   A    
C76   C85   S    
C37   N15   A    
C6    H57   S    
C75   O8    S    
C17   Cl12  S    
C97   H21   S    
C22   C51   S    
N2    Ni1   S    
C96   H16   S    
