data_mof_unit_37087.cif
_audit_creation_date              2012-12-10T18:58:36-0500
_audit_creation_method            fapswitch 2.2
_symmetry_space_group_name_H-M    P1
_symmetry_Int_Tables_number       1
_space_group_crystal_system       triclinic
_cell_length_a                    10.719064
_cell_length_b                    9.81923
_cell_length_c                    17.475768
_cell_angle_alpha                 90.214711
_cell_angle_beta                  90.087511
_cell_angle_gamma                 89.991671
_cell_volume                      1839.36114076

loop_
_atom_site_label
_atom_site_type_symbol
_atom_type_description
_atom_site_fract_x
_atom_site_fract_y
_atom_site_fract_z
_atom_type_partial_charge
C1    C     C_R   0.259796 0.500009 0.499957 0.871229
C2    C     C_R   0.740200 0.499991 0.500048 0.869302
C3    C     C_1   0.590607 0.510081 0.965735 -0.068271
C4    C     C_1   0.586038 0.510072 0.033808 -0.069315
C5    C     C_R   0.063869 0.378495 0.485154 -0.195230
C6    C     C_R   0.936106 0.621498 0.514875 -0.194093
C7    C     C_R   0.936065 0.378471 0.485226 -0.197160
C8    C     C_R   0.063910 0.621528 0.514788 -0.197281
C9    C     C_R   0.501803 0.499817 0.353155 0.891563
C10   C     C_R   0.503105 0.500373 0.646839 0.893885
C11   C     C_R   0.872594 0.499978 0.500069 -0.012544
C12   C     C_R   0.127388 0.500020 0.499947 -0.014617
C13   C     C_R   0.566437 0.632228 0.844675 0.175315
C14   C     C_R   0.581106 0.382956 0.153983 0.155643
C15   C     C_R   0.532093 0.628101 0.152732 0.192593
C16   C     C_R   0.575189 0.382113 0.845994 0.181574
C17   C     C_R   0.536060 0.627134 0.767273 -0.227272
C18   C     C_R   0.554267 0.381153 0.232377 -0.201280
C19   C     C_R   0.506903 0.622642 0.230637 -0.243630
C20   C     C_R   0.544988 0.380513 0.768424 -0.236021
C21   C     C_R   0.524408 0.502251 0.729171 -0.122091
C22   C     C_R   0.517962 0.500273 0.270462 -0.128762
C23   C     C_R   0.574023 0.072339 0.549720 -0.077460
C24   C     C_R   0.425984 0.927661 0.450285 -0.077545
C25   C     C_R   0.425980 0.071709 0.450288 -0.079788
C26   C     C_R   0.574014 0.928284 0.549727 -0.079451
C27   C     C_R   0.583138 0.508584 0.884530 0.062474
C28   C     C_R   0.569302 0.507813 0.114562 0.050234
H1    H     H_    0.522128 0.721801 0.736706 0.168837
H2    H     H_    0.563264 0.288184 0.264776 0.178608
H3    H     H_    0.478872 0.714718 0.260414 0.159612
H4    H     H_    0.538963 0.283687 0.738632 0.165171
H5    H     H_    0.633135 0.127330 0.589423 0.123174
H6    H     H_    0.366860 0.872670 0.410593 0.124161
H7    H     H_    0.366840 0.126200 0.410608 0.123679
H8    H     H_    0.633109 0.873789 0.589439 0.120467
H9    H     H_    0.112537 0.284097 0.473098 0.153616
H10   H     H_    0.887434 0.715890 0.526942 0.153504
H11   H     H_    0.887362 0.284056 0.473226 0.156664
H12   H     H_    0.112611 0.715947 0.526777 0.157051
N1    N     N_R   0.500000 0.857200 0.500000 -0.077010
N2    N     N_R   0.500000 0.142800 0.500000 -0.077385
O1    O     O_R   0.316770 0.614620 0.500000 -0.625964
O2    O     O_R   0.683230 0.385380 0.500000 -0.627506
O3    O     O_R   0.683230 0.614620 0.500000 -0.624662
O4    O     O_R   0.316770 0.385380 0.500000 -0.623683
O5    O     O_R   0.500010 0.614710 0.389120 -0.618083
O6    O     O_R   0.499990 0.385290 0.610880 -0.619821
O7    O     O_R   0.499990 0.614710 0.610880 -0.623460
O8    O     O_R   0.500010 0.385290 0.389120 -0.625203
Zn1   Zn    Zn3+2 0.500000 0.653120 0.500000 0.943306
Zn2   Zn    Zn3+2 0.500000 0.346880 0.500000 0.942026
C29   C     C_3   0.578707 0.771143 0.882141 -0.425974
C30   C     C_3   0.695861 0.844585 0.854808 -0.879968
H13   H     H_    0.779700 0.781011 0.865786 0.265757
H14   H     H_    0.689564 0.867211 0.792708 0.253162
H15   H     H_    0.706292 0.942087 0.886509 0.250495
H16   H     H_    0.495127 0.833673 0.868605 0.206672
H17   H     H_    0.583819 0.764197 0.945026 0.224970
C31   C     C_3   0.621415 0.254956 0.110817 -0.391403
C32   C     C_3   0.641361 0.127246 0.159106 -0.917169
H18   H     H_    0.713806 0.145630 0.203468 0.264929
H19   H     H_    0.552510 0.095492 0.186337 0.255835
H20   H     H_    0.673812 0.042909 0.121590 0.252800
H21   H     H_    0.549688 0.231126 0.066894 0.221031
H22   H     H_    0.710634 0.276637 0.080899 0.206483
C33   C     C_3   0.520385 0.763861 0.112557 -0.420438
C34   C     C_3   0.398086 0.774339 0.068047 -0.872606
H23   H     H_    0.391217 0.693348 0.023823 0.264612
H24   H     H_    0.317669 0.765290 0.107718 0.262926
H25   H     H_    0.393177 0.874802 0.039217 0.246497
H26   H     H_    0.522750 0.848532 0.154863 0.204280
H27   H     H_    0.601529 0.779916 0.074356 0.199928
C35   C     C_3   0.598101 0.247342 0.885498 -0.422227
C36   C     C_3   0.475375 0.178303 0.906416 -0.878035
H28   H     H_    0.419168 0.245733 0.944150 0.262560
H29   H     H_    0.420907 0.154232 0.853965 0.262006
H30   H     H_    0.494863 0.081915 0.937258 0.249319
H31   H     H_    0.652285 0.179153 0.847023 0.201308
H32   H     H_    0.655648 0.260629 0.937803 0.203150

loop_
_geom_bond_atom_site_label_1
_geom_bond_atom_site_label_2
_ccdc_geom_bond_type
C5    H9    S    
C17   H1    S    
C14   C18   A    
C19   H3    S    
C29   H17   S    
C29   C30   S    
C15   C19   A    
C23   N2    A    
C16   C35   S    
C9    C22   S    
O3    Zn1   S    
O4    Zn2   S    
C33   H26   S    
C23   C26   A    
C32   H19   S    
C1    O1    A    
C2    O2    A    
C34   H23   S    
O7    Zn1   S    
O8    Zn2   S    
C6    H10   S    
C33   H27   S    
C8    C12   A    
O2    Zn2   S    
C16   C27   A    
C31   H22   S    
C2    O3    A    
C35   H32   S    
C24   N1    A    
C1    C12   S    
C2    C11   S    
C4    C28   S    
C13   C29   S    
C10   C21   S    
C30   H14   S    
C35   C36   S    
C33   C34   S    
C19   C22   A    
C24   C25   A    
C5    C12   A    
C6    C11   A    
C5    C7    A    
C6    C8    A    
C23   H5    S    
C24   H6    S    
C31   C32   S    
C32   H20   S    
C7    C11   A    
C36   H28   S    
C16   C20   A    
C15   C33   S    
C36   H29   S    
C25   H7    S    
C18   H2    S    
C26   H8    S    
C31   H21   S    
C9    O5    A    
C35   H31   S    
C10   O6    A    
C3    C4    T    
C20   H4    S    
C30   H13   S    
C18   C22   A    
C9    O8    A    
C25   N2    A    
O5    Zn1   S    
C29   H16   S    
C14   C31   S    
C13   C17   A    
C3    C27   S    
O1    Zn1   S    
C15   C28   A    
C34   H25   S    
C32   H18   S    
C1    O4    A    
C36   H30   S    
C17   C21   A    
O6    Zn2   S    
C20   C21   A    
C34   H24   S    
C7    H11   S    
C13   C27   A    
C8    H12   S    
C14   C28   A    
C10   O7    A    
N1    Zn1   S    
C26   N1    A    
N2    Zn2   S    
C30   H15   S    
