data_mof_unit_19677.cif
_audit_creation_date              2012-12-11T14:36:18-0500
_audit_creation_method            fapswitch 2.2
_symmetry_space_group_name_H-M    P1
_symmetry_Int_Tables_number       1
_space_group_crystal_system       triclinic
_cell_length_a                    13.481361
_cell_length_b                    13.487992
_cell_length_c                    27.49901
_cell_angle_alpha                 90.977757
_cell_angle_beta                  90.048552
_cell_angle_gamma                 60.104149
_cell_volume                      4334.14428112

loop_
_atom_site_label
_atom_site_type_symbol
_atom_type_description
_atom_site_fract_x
_atom_site_fract_y
_atom_site_fract_z
_atom_type_partial_charge
C1    C     C_R   0.620205 0.101711 0.570108 0.549301
C2    C     C_1   0.649753 0.703168 0.657601 0.121480
C3    C     C_3   0.085296 0.144551 0.738426 0.227227
C4    C     C_R   0.599672 0.779370 0.568562 0.549881
C5    C     C_3   0.174472 0.063637 0.774875 0.388723
C6    C     C_1   0.098797 0.199650 0.902341 0.059909
C7    C     C_1   0.227892 0.140032 0.617027 0.075401
C8    C     C_3   0.059206 0.248106 0.771416 0.458384
C9    C     C_3   0.149781 0.167275 0.807821 -0.104589
C10   C     C_3   0.152789 0.260073 0.744886 0.197528
C11   C     C_3   0.177314 0.157959 0.711401 -0.046205
C12   C     C_1   0.631275 0.731255 0.615817 0.076563
C13   C     C_3   0.244057 0.180951 0.781514 -0.152441
C14   C     C_3   0.267293 0.077449 0.747995 0.409699
C15   C     C_1   0.127307 0.179852 0.860228 0.074781
C16   C     C_R   0.277090 0.122387 0.569437 0.547342
C17   C     C_1   0.199407 0.150242 0.659068 0.101963
C18   C     C_3   0.630876 0.275564 0.741189 0.350423
C19   C     C_3   0.553503 0.260838 0.778152 0.369163
C20   C     C_1   0.689651 0.206571 0.903751 0.059033
C21   C     C_1   0.635095 0.134306 0.618192 0.077700
C22   C     C_3   0.735806 0.200386 0.772574 0.401379
C23   C     C_3   0.696818 0.556479 0.767087 -0.096196
C24   C     C_3   0.658449 0.185240 0.809388 -0.131770
C25   C     C_3   0.753959 0.092861 0.744554 0.362241
C26   C     C_3   0.649359 0.168050 0.713070 -0.045788
C27   C     C_3   0.677284 0.076179 0.781678 -0.136615
C28   C     C_R   0.622798 0.100019 0.431476 0.563645
C29   C     C_3   0.572061 0.153069 0.749990 0.364996
C30   C     C_1   0.671032 0.195617 0.861769 0.065571
C31   C     C_1   0.643158 0.153304 0.660513 0.124413
C32   C     C_R   0.737448 0.703608 0.360820 -0.140145
C33   C     C_R   0.749154 0.689381 0.310012 -0.054631
C34   C     C_3   0.683286 0.648720 0.805619 -0.085191
C35   C     C_R   0.760116 0.672041 0.207131 -0.047022
C36   C     C_R   0.848383 0.674207 0.233946 0.466700
C37   C     C_R   0.841645 0.687137 0.284506 0.275347
C38   C     C_R   0.766959 0.656175 0.155952 0.194040
C39   C     C_R   0.680738 0.646038 0.131522 -0.024382
C40   C     C_R   0.603508 0.772930 0.431016 0.527378
C41   C     C_R   0.572498 0.676316 0.359427 0.232389
C42   C     C_R   0.575320 0.673979 0.308658 0.036632
C43   C     C_R   0.663510 0.680412 0.283682 -0.046523
C44   C     C_R   0.488944 0.668493 0.282691 -0.119446
C45   C     C_3   0.589583 0.650129 0.741147 0.169071
C46   C     C_R   0.485811 0.673158 0.232003 0.258393
C47   C     C_R   0.574649 0.677605 0.206604 0.091345
C48   C     C_R   0.666189 0.676720 0.232460 -0.135835
C49   C     C_R   0.576512 0.678211 0.155726 0.241262
C50   C     C_R   0.643705 0.707944 0.384789 -0.013648
C51   C     C_R   0.217847 0.050913 0.357169 0.195478
C52   C     C_R   0.277494 0.120352 0.430910 0.577347
C53   C     C_R   0.188848 0.064485 0.307194 0.009095
C54   C     C_R   0.158885 0.084785 0.204976 0.048601
C55   C     C_R   0.171961 0.986340 0.228710 0.252808
C56   C     C_3   0.664383 0.680696 0.709665 -0.001725
C57   C     C_R   0.179907 0.979442 0.279833 0.273440
C58   C     C_R   0.138855 0.100104 0.154315 0.243017
C59   C     C_R   0.113537 0.205504 0.133636 -0.038841
C60   C     C_R   0.181221 0.246934 0.361894 0.375903
C61   C     C_R   0.167578 0.256247 0.311656 -0.045469
C62   C     C_R   0.172168 0.164419 0.283990 -0.161687
C63   C     C_R   0.154540 0.353956 0.288320 0.474114
C64   C     C_3   0.771899 0.589111 0.735611 0.386906
C65   C     C_R   0.146861 0.360602 0.238158 0.416196
C66   C     C_R   0.146728 0.272510 0.210574 -0.055662
C67   C     C_3   0.576475 0.739624 0.779520 0.245265
C68   C     C_R   0.159150 0.173658 0.233178 -0.096743
C69   C     C_R   0.127304 0.285771 0.161028 -0.113192
C70   C     C_R   0.217462 0.141479 0.383972 0.007451
C71   C     C_R   0.565765 0.240396 0.363936 0.378173
C72   C     C_R   0.573323 0.258164 0.314290 0.033361
C73   C     C_R   0.583612 0.286333 0.213593 0.009619
C74   C     C_R   0.499147 0.374620 0.242645 -0.079839
C75   C     C_R   0.493061 0.360171 0.292440 -0.088574
C76   C     C_3   0.758102 0.679320 0.774209 0.222146
C77   C     C_R   0.594728 0.302702 0.164200 0.328809
C78   C     C_3   0.651007 0.771240 0.748390 0.411004
C79   C     C_R   0.678153 0.212111 0.135581 0.019780
C80   C     C_R   0.738310 0.054368 0.356667 -0.177262
C81   C     C_R   0.744389 0.069337 0.307186 -0.037945
C82   C     C_R   0.660365 0.169992 0.285488 -0.000397
C83   C     C_R   0.831645 0.982850 0.279051 -0.109672
C84   C     C_R   0.832945 0.991336 0.228408 0.260317
C85   C     C_R   0.744782 0.089586 0.205891 0.023711
C86   C     C_R   0.662878 0.181896 0.234953 -0.072578
C87   C     C_R   0.740391 0.101872 0.155090 0.211730
C88   C     C_1   0.698634 0.605974 0.900229 0.049356
C89   C     C_1   0.691227 0.629869 0.857967 0.053264
C90   C     C_R   0.645395 0.135683 0.384597 0.008207
C91   C     C_R   0.049892 0.235706 0.949978 0.538864
C92   C     C_R   0.711742 0.562849 0.948310 0.537346
C93   C     C_R   0.721874 0.225047 0.951182 0.542295
C94   C     C_R   0.050250 0.244005 0.087818 0.530270
C95   C     C_R   0.706587 0.577631 0.085940 0.557416
C96   C     C_R   0.717797 0.233851 0.089244 0.591615
Cr1   Cr    Cr6+3 0.417550 0.169090 0.500530 1.171979
Cr2   Cr    Cr6+3 0.669180 0.913420 0.499920 1.074697
Cr3   Cr    Cr6+3 0.413260 0.917540 0.499520 1.121267
Cr4   Cr    Cr6+3 0.909170 0.177380 0.020380 1.123852
Cr5   Cr    Cr6+3 0.912710 0.429210 0.018220 1.115428
Cr6   Cr    Cr6+3 0.657170 0.432570 0.019030 1.129859
F1    F     F_    0.951855 0.337257 0.783813 -0.519742
F2    F     F_    0.138250 0.454351 0.216537 -0.520586
F3    F     F_    0.153083 0.442107 0.313597 -0.476932
F4    F     F_    0.168359 0.338081 0.388952 -0.514642
F5    F     F_    0.528687 0.407710 0.144864 -0.566598
F6    F     F_    0.478217 0.322095 0.391270 -0.578310
F7    F     F_    0.186575 0.961201 0.790309 -0.530082
F8    F     F_    0.374181 0.988922 0.734667 -0.475284
F9    F     F_    0.449175 0.346948 0.795593 -0.553855
F10   F     F_    0.607892 0.377236 0.720324 -0.556080
F11   F     F_    0.486141 0.130134 0.737516 -0.517687
F12   F     F_    0.858286 0.007046 0.726975 -0.532422
F13   F     F_    0.820660 0.224882 0.785026 -0.511401
F14   F     F_    0.873494 0.512784 0.712583 -0.518586
F15   F     F_    0.942723 0.664436 0.211686 -0.521153
F16   F     F_    0.628100 0.880788 0.738733 -0.533273
H1    H     H_    0.309339 0.196134 0.799320 0.224967
H2    H     H_    0.714731 0.468609 0.774808 0.258820
H3    H     H_    0.877067 0.715134 0.763571 0.376049
H4    H     H_    0.123264 0.412403 0.758037 0.378055
H5    H     H_    0.860879 0.717208 0.135699 0.371782
H6    H     H_    0.898612 0.748124 0.334655 0.301153
H7    H     H_    0.482068 0.736695 0.098563 0.321670
H8    H     H_    0.344504 0.666176 0.230156 0.335044
H9    H     H_    0.527015 0.622746 0.415337 0.356793
H10   H     H_    0.169632 0.014733 0.093784 0.327762
H11   H     H_    0.316535 0.888135 0.358423 0.369392
H12   H     H_    0.696055 0.994437 0.798469 0.221004
H13   H     H_    0.243217 0.868074 0.180423 0.396893
H14   H     H_    0.161675 0.843607 0.280954 0.372255
H15   H     H_    0.791568 0.944744 0.137022 0.350612
H16   H     H_    0.445852 0.772127 0.818791 0.342047
H17   H     H_    0.978518 0.848259 0.222778 0.385680
H18   H     H_    0.470541 0.614280 0.751573 0.375386
H19   H     H_    0.044884 0.052873 0.698261 0.362949
H20   H     H_    0.796171 0.718309 0.382228 0.154810
H21   H     H_    0.421445 0.663375 0.301819 0.183707
H22   H     H_    0.111829 0.364710 0.144635 0.236615
H23   H     H_    0.436894 0.454604 0.226855 0.219676
H24   H     H_    0.425641 0.429110 0.313739 0.219681
H25   H     H_    0.898901 0.908203 0.296523 0.144432
H26   H     H_    0.801382 0.974341 0.372432 0.154611
O1    O     O_R   0.301710 0.195650 0.554160 -0.480187
O2    O     O_R   0.635520 0.542770 0.964420 -0.504658
O3    O     O_R   0.665950 0.325030 0.970100 -0.495422
O4    O     O_R   0.522390 0.158990 0.550460 -0.485953
O5    O     O_R   0.816620 0.158530 0.074540 -0.433697
O6    O     O_R   0.004460 0.188870 0.069750 -0.473706
O7    O     O_R   0.025800 0.341780 0.072300 -0.494092
O8    O     O_R   0.807650 0.528950 0.067500 -0.439732
O9    O     O_R   0.633420 0.550490 0.071810 -0.462525
O10   O     O_R   0.664000 0.332180 0.069640 -0.440164
O11   O     O_3   0.826350 0.346390 0.019210 -0.294793
O12   O     O_R   0.658900 0.818120 0.449760 -0.509295
O13   O     O_R   0.694390 0.003530 0.554040 -0.486339
O14   O     O_R   0.657700 0.819660 0.549320 -0.487877
O15   O     O_R   0.501930 0.803280 0.552920 -0.484981
O16   O     O_R   0.318170 0.023580 0.549580 -0.494237
O17   O     O_R   0.303010 0.193990 0.446760 -0.421003
O18   O     O_R   0.523600 0.157450 0.450900 -0.426841
O19   O     O_R   0.695690 0.001860 0.446640 -0.531131
O20   O     O_3   0.846829 0.694406 0.792123 -0.610416
O21   O     O_3   0.139997 0.363300 0.728495 -0.548861
O22   O     O_3   0.858203 0.645996 0.129413 -0.599411
O23   O     O_R   0.503220 0.801620 0.445520 -0.470267
O24   O     O_3   0.930211 0.692261 0.307334 -0.572865
O25   O     O_3   0.478137 0.704776 0.130272 -0.574141
O26   O     O_3   0.400440 0.666475 0.206841 -0.585387
O27   O     O_3   0.495001 0.654806 0.383142 -0.660874
O28   O     O_3   0.136925 0.015451 0.126163 -0.615165
O29   O     O_3   0.255181 0.947569 0.379420 -0.588385
O30   O     O_3   0.176937 0.895622 0.202952 -0.615892
O31   O     O_3   0.177660 0.891142 0.303887 -0.657465
O32   O     O_3   0.798122 0.009148 0.123741 -0.601261
O33   O     O_3   0.474147 0.818505 0.802618 -0.544897
O34   O     O_R   0.319370 0.022040 0.450020 -0.457437
O35   O     O_3   0.923418 0.908656 0.201093 -0.590391
O36   O     O_3   0.499794 0.636770 0.723241 -0.554282
O37   O     O_3   0.002027 0.127125 0.716018 -0.521971
O38   O     O_3   0.499990 0.000010 0.499990 -0.297520
O39   O     O_R   0.818720 0.150820 0.967160 -0.488121
O40   O     O_R   0.006410 0.181720 0.970200 -0.491955
O41   O     O_R   0.027890 0.334070 0.964920 -0.493753
O42   O     O_R   0.809600 0.521790 0.967960 -0.487142

loop_
_geom_bond_atom_site_label_1
_geom_bond_atom_site_label_2
_ccdc_geom_bond_type
C66   C68   A    
C20   C93   S    
C63   C65   A    
C1    C21   S    
C23   C45   S    
Cr3   O15   S    
C4    O15   A    
C27   C29   S    
C41   C42   A    
C35   C36   A    
C18   C26   S    
C24   C27   S    
C9    C15   S    
C2    C12   T    
C79   C87   A    
Cr2   O19   S    
C28   O18   A    
Cr1   O38   S    
C47   C49   A    
C20   C30   T    
C85   C86   A    
C32   H20   S    
C87   O32   S    
C21   C31   T    
H15   O32   S    
C83   C84   A    
C64   F14   S    
C36   C37   A    
C78   F16   S    
C18   F10   S    
C38   C39   A    
C11   C14   S    
C92   O42   A    
C66   C69   A    
C54   C68   A    
Cr5   O11   S    
H9    O27   S    
C6    C91   S    
C56   C78   S    
C61   C63   A    
C18   C19   S    
C73   C74   A    
C51   O29   S    
Cr4   O39   S    
C9    C13   S    
Cr3   O38   S    
C45   O36   S    
C81   C83   A    
C6    C15   T    
H6    O24   S    
H5    O22   S    
C96   O10   A    
Cr2   O14   S    
C45   C56   S    
C8    C9    S    
C7    C17   T    
C22   C25   S    
C45   C67   S    
C56   C64   S    
C59   C94   S    
C13   C14   S    
C4    C12   S    
H7    O25   S    
C43   C48   A    
Cr6   O10   S    
Cr2   O12   S    
C52   O17   A    
C69   H22   S    
C85   C87   A    
C91   O41   A    
C26   C31   S    
H4    O21   S    
C57   O31   S    
Cr3   O16   S    
H11   O29   S    
C67   C78   S    
C42   C44   A    
C72   C75   A    
Cr5   O41   S    
C35   C48   A    
C13   H1    S    
C44   C46   A    
C81   C82   A    
C37   O24   S    
Cr3   O23   S    
C77   C79   A    
C4    O14   A    
C74   C75   A    
C92   O2    A    
C22   F13   S    
C33   C43   A    
C88   C92   S    
C77   F5    S    
C35   C38   A    
C3    C11   S    
C84   C85   A    
Cr3   O34   S    
C3    C8    S    
C67   O33   S    
C23   H2    S    
C53   C57   A    
C80   H26   S    
C94   O7    A    
C82   C86   A    
H3    O20   S    
Cr5   O7    S    
C33   C37   A    
C46   O26   S    
C60   C61   A    
C95   O9    A    
H14   O31   S    
Cr2   O38   S    
C84   O35   S    
C58   O28   S    
C55   O30   S    
C5    C9    S    
H8    O26   S    
C75   H24   S    
Cr6   O3    S    
C41   O27   S    
C53   C62   A    
C47   C48   A    
Cr2   O13   S    
C60   C70   A    
C23   C34   S    
C39   C95   S    
C64   C76   S    
C40   C50   S    
C46   C47   A    
C88   C89   T    
C36   F15   S    
C3    O37   S    
Cr6   O9    S    
C32   C50   A    
C5    C14   S    
C59   C69   A    
Cr4   O11   S    
C7    C16   S    
C51   C70   A    
C74   H23   S    
H10   O28   S    
C44   H21   S    
Cr1   O17   S    
C55   C57   A    
Cr1   O4    S    
C22   C24   S    
C76   O20   S    
C24   C30   S    
C63   F3    S    
C42   C43   A    
Cr5   O42   S    
C19   C29   S    
C49   O25   S    
C41   C50   A    
C60   F4    S    
C54   C58   A    
C38   O22   S    
C29   F11   S    
C54   C55   A    
C23   C64   S    
Cr5   O8    S    
C39   C49   A    
C18   C22   S    
Cr1   O1    S    
C40   O12   A    
C76   C78   S    
C80   C81   A    
C3    C5    S    
C10   C13   S    
C11   C17   S    
C34   C67   S    
C19   F9    S    
Cr4   O5    S    
C25   C27   S    
H18   O36   S    
H13   O30   S    
C62   C68   A    
Cr4   O6    S    
C32   C33   A    
C1    O13   A    
C19   C24   S    
C25   C26   S    
C34   C89   S    
H17   O35   S    
C71   C72   A    
C2    C56   S    
C25   F12   S    
Cr6   O2    S    
C83   H25   S    
C93   O39   A    
C71   C90   A    
C5    F7    S    
C10   O21   S    
C14   F8    S    
C96   O5    A    
C93   O3    A    
C65   C66   A    
H16   O33   S    
C80   C90   A    
C61   C62   A    
Cr4   O40   S    
C8    F1    S    
C58   C59   A    
C73   C86   A    
C52   C70   S    
C10   C11   S    
C40   O23   A    
C94   O6    A    
C79   C96   S    
H19   O37   S    
C16   O16   A    
C26   C29   S    
C8    C10   S    
Cr1   O18   S    
C34   C76   S    
C27   H12   S    
C73   C77   A    
C16   O1    A    
C1    O4    A    
C28   C90   S    
C95   O8    A    
C65   F2    S    
C51   C53   A    
C52   O34   A    
C91   O40   A    
Cr6   O11   S    
C72   C82   A    
C28   O19   A    
C71   F6    S    
