data_mof_unit_22527.cif
_audit_creation_date              2012-12-11T14:52:38-0500
_audit_creation_method            fapswitch 2.2
_symmetry_space_group_name_H-M    P1
_symmetry_Int_Tables_number       1
_space_group_crystal_system       triclinic
_cell_length_a                    18.879737
_cell_length_b                    10.872352
_cell_length_c                    18.680028
_cell_angle_alpha                 90.134152
_cell_angle_beta                  90.99837
_cell_angle_gamma                 90.213347
_cell_volume                      3833.77626509

loop_
_atom_site_label
_atom_site_type_symbol
_atom_type_description
_atom_site_fract_x
_atom_site_fract_y
_atom_site_fract_z
_atom_type_partial_charge
C1    C     C_R   0.289946 0.997694 0.861054 0.547209
C2    C     C_R   0.709431 0.497650 0.044504 -0.152328
C3    C     C_3   0.999714 0.325651 0.072694 0.051484
C4    C     C_3   0.582460 0.688667 0.927199 -0.367040
C5    C     C_3   0.480650 0.576771 0.051774 -0.379568
C6    C     C_3   0.082457 0.188662 0.927199 -0.367044
C7    C     C_3   0.980648 0.076774 0.051776 -0.379571
C8    C     C_3   0.536505 0.599037 0.571534 -0.272578
C9    C     C_3   0.600654 0.622235 0.620812 -0.399946
C10   C     C_3   0.464567 0.597568 0.428520 -0.270712
C11   C     C_3   0.400360 0.618582 0.379182 -0.403840
C12   C     C_3   0.036474 0.098998 0.571520 -0.272547
C13   C     C_R   0.799957 0.020881 0.960026 -0.148129
C14   C     C_3   0.100622 0.122159 0.620810 -0.399926
C15   C     C_3   0.964533 0.097585 0.428506 -0.270699
C16   C     C_3   0.900332 0.118627 0.379160 -0.403809
C17   C     C_R   0.209429 0.997657 0.044503 -0.152321
C18   C     C_R   0.295559 0.508936 0.034100 -0.145265
C19   C     C_R   0.720973 0.467149 0.972961 -0.150830
C20   C     C_R   0.795556 0.008930 0.034099 -0.145264
C21   C     C_R   0.220970 0.967157 0.972959 -0.150826
C22   C     C_R   0.240538 0.567310 0.070687 0.024945
C23   C     C_R   0.777559 0.521588 0.936448 0.024564
C24   C     C_R   0.740536 0.067307 0.070686 0.024946
C25   C     C_R   0.726657 0.039709 0.145116 0.554474
C26   C     C_R   0.277558 0.021591 0.936448 0.024564
C27   C     C_R   0.188323 0.631504 0.032288 -0.151891
C28   C     C_R   0.824435 0.600209 0.972812 -0.139777
C29   C     C_R   0.688321 0.131502 0.032287 -0.151891
C30   C     C_R   0.324435 0.100208 0.972812 -0.139778
C31   C     C_R   0.190137 0.636303 0.959166 -0.147334
C32   C     C_R   0.813569 0.629349 0.042964 -0.145781
C33   C     C_R   0.690135 0.136300 0.959165 -0.147335
C34   C     C_R   0.313569 0.129348 0.042964 -0.145782
C35   C     C_R   0.248021 0.587956 0.922640 0.027380
C36   C     C_R   0.789946 0.497693 0.861054 0.547210
C37   C     C_R   0.755165 0.581189 0.079220 0.025191
C38   C     C_R   0.748019 0.087953 0.922639 0.027379
C39   C     C_R   0.255165 0.081191 0.079219 0.025190
C40   C     C_R   0.508713 0.716782 0.536617 0.033544
C41   C     C_R   0.491828 0.716348 0.463418 0.035765
C42   C     C_R   0.008697 0.216766 0.536611 0.033550
C43   C     C_R   0.991807 0.216351 0.463412 0.035760
C44   C     C_R   0.499654 0.828045 0.425191 0.030814
C45   C     C_R   0.500403 0.828433 0.574874 0.028298
C46   C     C_R   0.999652 0.328050 0.425191 0.030808
C47   C     C_R   0.226657 0.539709 0.145117 0.554476
C48   C     C_R   0.000405 0.328423 0.574874 0.028298
C49   C     C_R   0.500781 0.939577 0.462836 -0.165005
C50   C     C_R   0.498858 0.939739 0.537300 -0.165151
C51   C     C_R   0.000794 0.439579 0.462840 -0.164998
C52   C     C_R   0.998875 0.439736 0.537304 -0.165155
C53   C     C_R   0.439405 0.817556 0.862389 0.548021
C54   C     C_R   0.528396 0.821044 0.145285 0.549062
C55   C     C_R   0.939406 0.317556 0.862389 0.548017
C56   C     C_R   0.028396 0.321044 0.145285 0.549063
C57   C     C_R   0.174159 0.590126 0.547328 -0.133566
C58   C     C_3   0.527018 0.760601 0.967923 0.025055
C59   C     C_R   0.825541 0.590839 0.452708 -0.134034
C60   C     C_R   0.674157 0.090118 0.547329 -0.133566
C61   C     C_R   0.325536 0.090855 0.452711 -0.134039
C62   C     C_R   0.163538 0.563119 0.476136 -0.132633
C63   C     C_R   0.836203 0.563661 0.523795 -0.132836
C64   C     C_R   0.663534 0.063105 0.476139 -0.132632
C65   C     C_R   0.336191 0.063704 0.523800 -0.132843
C66   C     C_R   0.216315 0.503773 0.438128 0.025068
C67   C     C_R   0.783276 0.504170 0.561744 0.023586
C68   C     C_R   0.716312 0.003766 0.438129 0.025056
C69   C     C_3   0.481417 0.710761 0.028140 0.034813
C70   C     C_R   0.283266 0.004202 0.561747 0.023600
C71   C     C_R   0.277035 0.459416 0.474197 -0.143968
C72   C     C_R   0.722228 0.460085 0.525689 -0.144161
C73   C     C_R   0.777034 0.959413 0.474197 -0.143976
C74   C     C_R   0.222221 0.960103 0.525690 -0.144168
C75   C     C_R   0.289689 0.492751 0.545176 -0.136899
C76   C     C_R   0.709613 0.493416 0.454800 -0.136835
C77   C     C_R   0.789689 0.992749 0.545176 -0.136903
C78   C     C_R   0.209614 0.993410 0.454796 -0.136828
C79   C     C_R   0.239802 0.564837 0.580400 0.032967
C80   C     C_3   0.027018 0.260599 0.967923 0.025056
C81   C     C_R   0.759790 0.565371 0.419632 0.033162
C82   C     C_R   0.739802 0.064835 0.580400 0.032965
C83   C     C_R   0.259790 0.065368 0.419629 0.033166
C84   C     C_R   0.260023 0.634390 0.851014 0.534902
C85   C     C_R   0.739959 0.634581 0.148760 0.548854
C86   C     C_R   0.760023 0.134389 0.851013 0.534901
C87   C     C_R   0.239959 0.134581 0.148760 0.548852
C88   C     C_R   0.291863 0.993414 0.638832 0.578677
C89   C     C_R   0.708002 0.993467 0.360985 0.575902
C90   C     C_R   0.791868 0.493401 0.638832 0.578671
C91   C     C_3   0.981417 0.210763 0.028140 0.034815
C92   C     C_R   0.208002 0.493468 0.360985 0.575906
C93   C     C_R   0.471562 0.823329 0.647235 0.544034
C94   C     C_R   0.528433 0.823199 0.352781 0.533699
C95   C     C_R   0.971563 0.323327 0.647235 0.544027
C96   C     C_R   0.028434 0.323200 0.352781 0.533699
C97   C     C_R   0.258389 0.632268 0.645200 0.546866
C98   C     C_R   0.741500 0.632345 0.354834 0.543028
C99   C     C_R   0.758389 0.132269 0.645200 0.546862
C100  C     C_R   0.241501 0.132340 0.354832 0.543029
C101  C     C_3   0.434705 0.893229 0.043035 -0.154367
C102  C     C_R   0.299959 0.520886 0.960027 -0.148131
C103  C     C_3   0.480321 0.943259 0.981002 -0.131826
C104  C     C_3   0.934707 0.393231 0.043034 -0.154369
C105  C     C_3   0.980324 0.443257 0.981001 -0.131829
C106  C     C_3   0.415730 0.777420 0.997689 -0.140027
C107  C     C_3   0.545926 0.875843 0.012224 -0.112851
C108  C     C_3   0.915731 0.277423 0.997689 -0.140024
C109  C     C_3   0.045927 0.375840 0.012224 -0.112853
C110  C     C_3   0.462072 0.826771 0.937185 0.051958
C111  C     C_3   0.499713 0.825651 0.072695 0.051485
C112  C     C_3   0.962073 0.326770 0.937185 0.051960
Cr1   Cr    Cr6+3 0.229630 0.835900 0.747350 0.986019
Cr2   Cr    Cr6+3 0.614200 0.677120 0.250660 0.995751
Cr3   Cr    Cr6+3 0.885800 0.177120 0.749340 0.991500
Cr4   Cr    Cr6+3 0.114200 0.177120 0.250660 0.995754
Cr5   Cr    Cr6+3 0.770370 0.835900 0.252650 0.988792
Cr6   Cr    Cr6+3 0.729630 0.335900 0.747350 0.986017
Cr7   Cr    Cr6+3 0.270370 0.335900 0.252650 0.988797
Cr8   Cr    Cr6+3 0.387410 0.989850 0.750850 0.998791
Cr9   Cr    Cr6+3 0.612590 0.989850 0.249150 1.002149
Cr10  Cr    Cr6+3 0.887410 0.489850 0.750850 0.998790
Cr11  Cr    Cr6+3 0.112590 0.489850 0.249150 1.002147
Cr12  Cr    Cr6+3 0.385800 0.677120 0.749340 0.991501
H1    H     H_    0.361331 0.740640 0.990629 0.122361
H2    H     H_    0.883914 0.596926 0.550145 0.124840
H3    H     H_    0.616040 0.096468 0.449784 0.125416
H4    H     H_    0.383897 0.096985 0.550152 0.124836
H5    H     H_    0.317033 0.407645 0.446400 0.132556
H6    H     H_    0.682044 0.408375 0.553440 0.131440
H7    H     H_    0.817033 0.907648 0.446399 0.132568
H8    H     H_    0.182039 0.908392 0.553440 0.131431
H9    H     H_    0.339888 0.469524 0.570552 0.121607
H10   H     H_    0.659280 0.470175 0.429433 0.120256
H11   H     H_    0.839888 0.969526 0.570552 0.121601
H12   H     H_    0.599869 0.915335 0.019410 0.128342
H13   H     H_    0.159287 0.970147 0.429422 0.120260
H14   H     H_    0.398137 0.944153 0.077889 0.128305
H15   H     H_    0.481027 0.038673 0.960148 0.114357
H16   H     H_    0.898142 0.444157 0.077887 0.128307
H17   H     H_    0.981031 0.538669 0.960146 0.114361
H18   H     H_    0.344890 0.482402 0.932663 0.127196
H19   H     H_    0.663964 0.460009 0.071511 0.116217
H20   H     H_    0.844888 0.982396 0.932662 0.127196
H21   H     H_    0.163962 0.960016 0.071510 0.116218
H22   H     H_    0.334609 0.454076 0.062486 0.123319
H23   H     H_    0.861332 0.240644 0.990629 0.122359
H24   H     H_    0.684541 0.405167 0.945673 0.129566
H25   H     H_    0.834606 0.954068 0.062485 0.123319
H26   H     H_    0.184537 0.905177 0.945671 0.129564
H27   H     H_    0.143832 0.674421 0.058231 0.133991
H28   H     H_    0.869274 0.642185 0.946875 0.130600
H29   H     H_    0.643830 0.174420 0.058230 0.133990
H30   H     H_    0.369275 0.142181 0.946876 0.130599
H31   H     H_    0.147981 0.685965 0.931962 0.132048
H32   H     H_    0.850495 0.693737 0.067732 0.133579
H33   H     H_    0.647979 0.185962 0.931962 0.132047
H34   H     H_    0.099870 0.415331 0.019410 0.128342
H35   H     H_    0.350496 0.193733 0.067733 0.133581
H36   H     H_    0.503218 0.026227 0.434610 0.113738
H37   H     H_    0.496131 0.026476 0.565595 0.114507
H38   H     H_    0.003240 0.526231 0.434616 0.113736
H39   H     H_    0.996163 0.526475 0.565602 0.114499
H40   H     H_    0.559413 0.601267 0.906508 0.150356
H41   H     H_    0.601988 0.744609 0.881960 0.155615
H42   H     H_    0.627547 0.667893 0.963832 0.138697
H43   H     H_    0.535062 0.547369 0.066970 0.147800
H44   H     H_    0.445384 0.565858 0.098238 0.138795
H45   H     H_    0.133413 0.641991 0.574040 0.127243
H46   H     H_    0.461064 0.517950 0.006990 0.108753
H47   H     H_    0.059424 0.101234 0.906545 0.150318
H48   H     H_    0.101954 0.244564 0.881935 0.155633
H49   H     H_    0.127561 0.167953 0.963816 0.138700
H50   H     H_    0.035058 0.047374 0.066978 0.147809
H51   H     H_    0.945379 0.065863 0.098236 0.138792
H52   H     H_    0.961068 0.017952 0.006990 0.108753
H53   H     H_    0.645526 0.659130 0.589637 0.165210
H54   H     H_    0.589159 0.687367 0.664706 0.169908
H55   H     H_    0.615975 0.533864 0.645786 0.164002
H56   H     H_    0.866436 0.642761 0.426065 0.126194
H57   H     H_    0.494036 0.550080 0.600426 0.165743
H58   H     H_    0.554906 0.533690 0.530044 0.115120
H59   H     H_    0.355434 0.655236 0.410240 0.165154
H60   H     H_    0.411663 0.683106 0.335036 0.164656
H61   H     H_    0.385239 0.529397 0.354562 0.161093
H62   H     H_    0.507278 0.549415 0.399709 0.165054
H63   H     H_    0.446387 0.532152 0.470031 0.114866
H64   H     H_    0.145496 0.159077 0.589645 0.165204
H65   H     H_    0.089126 0.187261 0.664724 0.169932
H66   H     H_    0.115945 0.033764 0.645762 0.163958
H67   H     H_    0.633412 0.141982 0.574041 0.127246
H68   H     H_    0.993992 0.050048 0.600401 0.165725
H69   H     H_    0.054877 0.033652 0.530026 0.115108
H70   H     H_    0.855389 0.155207 0.410220 0.165152
H71   H     H_    0.911629 0.183220 0.335047 0.164617
H72   H     H_    0.885237 0.029469 0.354497 0.161113
H73   H     H_    0.007242 0.049420 0.399699 0.165044
H74   H     H_    0.946341 0.032168 0.470013 0.114862
H75   H     H_    0.366432 0.142781 0.426069 0.126193
H76   H     H_    0.116046 0.596489 0.449781 0.125409
O1    O     O_R   0.214270 0.709000 0.827470 -0.534162
O2    O     O_R   0.543270 0.717630 0.330160 -0.525386
O3    O     O_R   0.956730 0.217630 0.669840 -0.519727
O4    O     O_R   0.043270 0.217630 0.330160 -0.525371
O5    O     O_R   0.320620 0.625640 0.672920 -0.502055
O6    O     O_R   0.679380 0.625640 0.327080 -0.505757
O7    O     O_R   0.820620 0.125640 0.672920 -0.502055
O8    O     O_R   0.179380 0.125640 0.327080 -0.505756
O9    O     O_3   0.334280 0.834290 0.749180 -0.297726
O10   O     O_3   0.665720 0.834290 0.250820 -0.260059
O11   O     O_3   0.834280 0.334290 0.749180 -0.297733
O12   O     O_R   0.785730 0.709000 0.172530 -0.529884
O13   O     O_3   0.165720 0.334290 0.250820 -0.260060
O14   O     O_R   0.236160 0.958490 0.823130 -0.495697
O15   O     O_R   0.763840 0.958490 0.176870 -0.502517
O16   O     O_R   0.736160 0.458490 0.823130 -0.495696
O17   O     O_R   0.263840 0.458490 0.176870 -0.502514
O18   O     O_R   0.332080 0.075470 0.831280 -0.518532
O19   O     O_R   0.667920 0.075470 0.168720 -0.522188
O20   O     O_R   0.832080 0.575470 0.831280 -0.518531
O21   O     O_R   0.167920 0.575470 0.168720 -0.522190
O22   O     O_R   0.446300 0.918110 0.826620 -0.515084
O23   O     O_R   0.714270 0.209000 0.827470 -0.534162
O24   O     O_R   0.553700 0.918110 0.173380 -0.503801
O25   O     O_R   0.946300 0.418110 0.826620 -0.515087
O26   O     O_R   0.053700 0.418110 0.173380 -0.503801
O27   O     O_R   0.457110 0.716200 0.831760 -0.517235
O28   O     O_R   0.542890 0.716200 0.168240 -0.524613
O29   O     O_R   0.957110 0.216200 0.831760 -0.517231
O30   O     O_R   0.042890 0.216200 0.168240 -0.524612
O31   O     O_R   0.320980 0.624310 0.823030 -0.517376
O32   O     O_R   0.679020 0.624310 0.176970 -0.501442
O33   O     O_R   0.820980 0.124310 0.823030 -0.517373
O34   O     O_R   0.285730 0.209000 0.172530 -0.529885
O35   O     O_R   0.179020 0.124310 0.176970 -0.501445
O36   O     O_R   0.213890 0.710430 0.665540 -0.538070
O37   O     O_R   0.786110 0.710430 0.334460 -0.541097
O38   O     O_R   0.713890 0.210430 0.665540 -0.538071
O39   O     O_R   0.286110 0.210430 0.334460 -0.541100
O40   O     O_R   0.235810 0.959820 0.673020 -0.513897
O41   O     O_R   0.764190 0.959820 0.326980 -0.522113
O42   O     O_R   0.735810 0.459820 0.673020 -0.513900
O43   O     O_R   0.264190 0.459820 0.326980 -0.522106
O44   O     O_R   0.331700 0.076900 0.669350 -0.514147
O45   O     O_R   0.445950 0.919440 0.676520 -0.518138
O46   O     O_R   0.668300 0.076900 0.330650 -0.521008
O47   O     O_R   0.831700 0.576900 0.669350 -0.514134
O48   O     O_R   0.168300 0.576900 0.330650 -0.521011
O49   O     O_R   0.554050 0.919440 0.323480 -0.523916
O50   O     O_R   0.945950 0.419440 0.676520 -0.518141
O51   O     O_R   0.054050 0.419440 0.323480 -0.523918
O52   O     O_R   0.456730 0.717630 0.669840 -0.519725

loop_
_geom_bond_atom_site_label_1
_geom_bond_atom_site_label_2
_ccdc_geom_bond_type
C44   C49   A    
C3    C104  S    
Cr1   O36   S    
C21   C26   A    
C73   H7    S    
C48   C95   S    
Cr3   O7    S    
Cr12  O5    S    
C58   C110  S    
C82   C99   S    
C57   C79   A    
C19   C23   A    
C104  C108  S    
C72   C76   A    
C35   C102  A    
C70   C88   S    
C59   H56   S    
C36   O20   A    
C100  O8    A    
C57   C62   A    
C98   O37   A    
C6    H48   S    
C21   H26   S    
C89   O46   A    
C101  H14   S    
C105  H17   S    
Cr11  O21   S    
C106  H1    S    
C87   O34   A    
Cr10  O20   S    
C78   H13   S    
C100  O39   A    
C103  C110  S    
C64   C68   A    
C37   C85   S    
Cr5   O10   S    
C86   O23   A    
C58   C107  S    
C74   H8    S    
C17   C39   A    
Cr11  O48   S    
C15   H73   S    
C92   O43   A    
C13   H20   S    
Cr10  O50   S    
Cr12  O9    S    
C95   O3    A    
C15   C16   S    
C88   O40   A    
C7    H50   S    
C29   C33   A    
C101  C106  S    
C87   O35   A    
C20   H25   S    
C51   H38   S    
C3    C91   S    
C67   C72   A    
C18   C102  A    
C5    H44   S    
Cr5   O15   S    
C84   O31   A    
C55   O29   A    
C24   C29   A    
C12   C42   S    
C32   H32   S    
C99   O38   A    
C60   C82   A    
C78   C83   A    
C53   C110  S    
C20   C24   A    
C8    C9    S    
Cr3   O3    S    
C80   C109  S    
C70   C74   A    
C27   H27   S    
C5    H46   S    
C4    H40   S    
C49   H36   S    
C1    O18   A    
C94   O2    A    
Cr1   O1    S    
C15   C43   S    
C42   C43   A    
C49   C50   A    
C9    H55   S    
C93   O52   A    
C108  H23   S    
C108  C112  S    
C34   H35   S    
Cr6   O38   S    
C22   C47   S    
C2    C19   A    
Cr5   O37   S    
C101  C103  S    
C16   H70   S    
C11   H61   S    
C90   O47   A    
C10   C41   S    
C2    H19   S    
Cr9   O19   S    
C61   H75   S    
C85   O32   A    
Cr1   O14   S    
C109  H34   S    
C95   O50   A    
C104  C105  S    
Cr4   O4    S    
C33   H33   S    
C60   C64   A    
C96   O4    A    
C57   H45   S    
C6    H47   S    
Cr1   O40   S    
C92   O48   A    
C40   C45   A    
C12   H68   S    
C63   C67   A    
C86   O33   A    
C30   C34   A    
C27   C31   A    
C34   C39   A    
Cr12  O31   S    
C65   H4    S    
C28   C32   A    
C11   H59   S    
C24   C25   S    
C61   C83   A    
Cr11  O26   S    
C15   H74   S    
C62   C66   A    
C66   C92   S    
C68   C73   A    
Cr9   O10   S    
Cr10  O25   S    
C5    C69   S    
C46   C51   A    
C67   C90   S    
C17   C21   A    
C51   C52   A    
C7    H51   S    
Cr6   O11   S    
C76   C81   A    
C17   H21   S    
C66   C71   A    
Cr11  O51   S    
C107  H12   S    
C16   H72   S    
C103  H15   S    
C71   H5    S    
C65   C70   A    
C14   H64   S    
C3    C56   S    
Cr7   O34   S    
C6    C80   S    
C12   H69   S    
C25   O15   A    
C69   C106  S    
C64   H3    S    
C7    C91   S    
C7    H52   S    
C80   C112  S    
Cr2   O2    S    
C10   H63   S    
C56   O30   A    
C42   C48   A    
C32   C37   A    
C47   O17   A    
C54   O28   A    
C13   C38   A    
Cr4   O8    S    
C93   O45   A    
C76   H10   S    
C40   C41   A    
C105  C112  S    
C38   C86   S    
C45   C93   S    
C28   H28   S    
C30   H30   S    
C83   C100  S    
C90   O42   A    
C74   C78   A    
C1    C26   S    
C41   C44   A    
C31   C35   A    
C25   O19   A    
C23   C28   A    
Cr8   O45   S    
C4    C58   S    
C85   O12   A    
Cr8   O44   S    
Cr3   O33   S    
Cr12  O27   S    
C9    H53   S    
C55   C112  S    
C29   H29   S    
C106  C110  S    
C8    H58   S    
Cr8   O9    S    
C14   H65   S    
C84   O1    A    
C105  C109  S    
C54   O24   A    
Cr9   O46   S    
Cr8   O22   S    
C13   C20   A    
Cr4   O30   S    
Cr6   O23   S    
C18   C22   A    
C107  C111  S    
C91   C108  S    
C79   C97   S    
Cr5   O12   S    
C11   H60   S    
C59   C81   A    
C12   C14   S    
Cr4   O13   S    
C18   H22   S    
C94   O49   A    
C88   O44   A    
C31   H31   S    
C35   C84   S    
C75   H9    S    
C58   C69   S    
C72   H6    S    
C55   O25   A    
C6    H49   S    
C56   O26   A    
C101  C111  S    
C77   H11   S    
C59   C63   A    
C19   H24   S    
C8    H57   S    
Cr3   O11   S    
C22   C27   A    
C103  C107  S    
C97   O5    A    
Cr2   O10   S    
C80   C91   S    
Cr11  O13   S    
C53   O22   A    
Cr1   O9    S    
Cr12  O52   S    
C16   H71   S    
C53   O27   A    
C71   C75   A    
C69   C111  S    
C2    C37   A    
Cr7   O39   S    
C62   H76   S    
Cr7   O43   S    
C77   C82   A    
C3    C109  S    
C60   H67   S    
Cr9   O49   S    
Cr4   O35   S    
C10   H62   S    
Cr9   O24   S    
C4    H42   S    
C54   C111  S    
C97   O36   A    
C89   O41   A    
C5    H43   S    
C61   C65   A    
C47   O21   A    
C43   C46   A    
Cr3   O29   S    
C63   H2    S    
C44   C94   S    
C10   C11   S    
C9    H54   S    
C52   H39   S    
Cr2   O28   S    
C14   H66   S    
Cr7   O13   S    
Cr2   O6    S    
C48   C52   A    
C46   C96   S    
Cr8   O18   S    
C23   C36   S    
C81   C98   S    
C99   O7    A    
C1    O14   A    
Cr7   O17   S    
C73   C77   A    
Cr10  O11   S    
C98   O6    A    
C33   C38   A    
Cr6   O16   S    
C45   C50   A    
C8    C40   S    
C96   O51   A    
C68   C89   S    
C102  H18   S    
C75   C79   A    
Cr2   O32   S    
C36   O16   A    
C39   C87   S    
Cr6   O42   S    
C4    H41   S    
C104  H16   S    
Cr10  O47   S    
C50   H37   S    
C26   C30   A    
Cr5   O41   S    
