data_mof_unit_55113.cif
_audit_creation_date              2012-12-10T17:17:50-0500
_audit_creation_method            fapswitch 2.2
_symmetry_space_group_name_H-M    P1
_symmetry_Int_Tables_number       1
_space_group_crystal_system       triclinic
_cell_length_a                    15.081629
_cell_length_b                    15.491202
_cell_length_c                    9.667275
_cell_angle_alpha                 91.841039
_cell_angle_beta                  89.648285
_cell_angle_gamma                 90.376556
_cell_volume                      2257.33589666

loop_
_atom_site_label
_atom_site_type_symbol
_atom_type_description
_atom_site_fract_x
_atom_site_fract_y
_atom_site_fract_z
_atom_type_partial_charge
C1    C     C_R   0.382671 0.880543 0.498160 0.809757
C2    C     C_R   0.380919 0.119374 0.502935 0.810035
C3    C     C_R   0.882680 0.380535 0.498159 0.809737
C4    C     C_R   0.880923 0.619377 0.502935 0.809989
C5    C     C_R   0.278147 0.213057 0.383120 -0.168521
C6    C     C_R   0.333333 0.730818 0.481917 -0.090896
C7    C     C_R   0.778165 0.713074 0.383118 -0.168540
C8    C     C_R   0.833352 0.230799 0.481999 -0.090908
C9    C     C_R   0.708231 0.769928 0.378631 -0.151907
C10   C     C_R   0.767257 0.168758 0.487310 -0.139900
C11   C     C_R   0.208213 0.269911 0.378634 -0.151896
C12   C     C_R   0.267242 0.668774 0.487226 -0.139930
C13   C     C_R   0.663493 0.795187 0.499796 -0.099449
C14   C     C_R   0.679206 0.192857 0.510132 -0.081826
C15   C     C_R   0.163485 0.295182 0.499803 -0.099440
C16   C     C_R   0.179204 0.692857 0.510142 -0.081898
C17   C     C_R   0.660509 0.047642 0.134418 0.269863
C18   C     C_R   0.160515 0.547629 0.134415 0.269838
C19   C     C_R   0.719283 0.096821 0.055152 0.290603
C20   C     C_R   0.219297 0.596800 0.055146 0.290613
C21   C     C_R   0.723380 0.079339 0.914407 -0.218439
C22   C     C_R   0.223388 0.579320 0.914401 -0.218384
C23   C     C_R   0.658271 0.028349 0.853133 -0.140825
C24   C     C_R   0.158271 0.528340 0.853129 -0.140787
C25   C     C_R   0.578393 0.012817 0.924041 0.121580
C26   C     C_R   0.078393 0.512814 0.924040 0.121606
C27   C     C_R   0.579102 0.016704 0.072896 0.027746
C28   C     C_R   0.079103 0.516701 0.072895 0.027766
C29   C     C_R   0.423864 0.990819 0.074194 0.323109
C30   C     C_R   0.923863 0.490821 0.074193 0.323105
C31   C     C_R   0.613673 0.123342 0.502481 0.835240
C32   C     C_R   0.609578 0.873953 0.498994 0.839028
C33   C     C_R   0.113671 0.623343 0.502483 0.835200
C34   C     C_R   0.109575 0.373951 0.498995 0.839015
C35   C     C_R   0.423816 0.991242 0.926897 0.326405
C36   C     C_R   0.923816 0.491244 0.926896 0.326439
C37   C     C_R   0.294566 0.193267 0.770966 -0.077978
C38   C     C_R   0.199974 0.932711 0.503974 -0.088704
C39   C     C_R   0.794567 0.693274 0.770957 -0.078034
C40   C     C_R   0.699979 0.432717 0.503796 -0.088692
C41   C     C_R   0.242149 0.209449 0.887619 -0.160194
C42   C     C_R   0.113306 0.958689 0.529982 -0.128138
C43   C     C_R   0.742140 0.709439 0.887603 -0.160194
C44   C     C_R   0.613293 0.458711 0.529702 -0.128114
C45   C     C_R   0.655710 0.736160 0.872515 -0.122604
C46   C     C_R   0.550987 0.398775 0.572789 -0.102494
C47   C     C_R   0.155723 0.236182 0.872541 -0.122609
C48   C     C_R   0.051022 0.898739 0.573087 -0.102545
C49   C     C_R   0.624238 0.755008 0.742002 0.264527
C50   C     C_R   0.573738 0.311742 0.582036 0.210704
C51   C     C_R   0.124244 0.255023 0.742029 0.264506
C52   C     C_R   0.073773 0.811708 0.582247 0.210723
C53   C     C_R   0.682346 0.753587 0.625198 0.011441
C54   C     C_R   0.656970 0.281737 0.532065 0.041952
C55   C     C_R   0.182343 0.253588 0.625212 0.011435
C56   C     C_R   0.156981 0.781723 0.532179 0.041970
C57   C     C_R   0.263717 0.209333 0.635426 0.065922
C58   C     C_R   0.223208 0.844590 0.508226 0.083284
C59   C     C_R   0.763722 0.709338 0.635418 0.065906
C60   C     C_R   0.723210 0.344593 0.508125 0.083271
C61   C     C_R   0.309001 0.183641 0.509821 -0.092364
C62   C     C_R   0.311702 0.817977 0.493394 -0.028951
C63   C     C_R   0.809011 0.683650 0.509818 -0.092404
C64   C     C_R   0.811714 0.317967 0.493390 -0.028914
Cu1   Cu    Cu3+1 0.499990 1.000000 0.640660 1.024638
Cu2   Cu    Cu3+1 0.999990 0.500000 0.640660 1.024650
Cu3   Cu    Cu3+1 0.500010 1.000000 0.359340 1.028976
Cu4   Cu    Cu3+1 0.000010 0.500000 0.359340 1.028973
H1    H     H_    0.310067 0.194500 0.286082 0.186608
H2    H     H_    0.401486 0.710803 0.466678 0.169896
H3    H     H_    0.810092 0.694523 0.286083 0.186609
H4    H     H_    0.901511 0.210776 0.466823 0.169882
H5    H     H_    0.778861 0.101991 0.853497 0.206332
H6    H     H_    0.278873 0.601964 0.853490 0.206340
H7    H     H_    0.671127 0.006226 0.749487 0.208856
H8    H     H_    0.171123 0.506219 0.749481 0.208866
H9    H     H_    0.359046 0.169817 0.793902 0.221525
H10   H     H_    0.248450 0.981975 0.480703 0.146607
H11   H     H_    0.859053 0.669836 0.793892 0.221536
H12   H     H_    0.748469 0.481973 0.480539 0.146658
H13   H     H_    0.267010 0.195782 0.989455 0.173132
H14   H     H_    0.096184 0.026377 0.526812 0.168523
H15   H     H_    0.766997 0.695770 0.989439 0.173143
H16   H     H_    0.596172 0.526400 0.526469 0.168515
H17   H     H_    0.612086 0.739112 0.961931 0.183900
H18   H     H_    0.487091 0.421365 0.610134 0.175871
H19   H     H_    0.112106 0.239146 0.961967 0.183893
H20   H     H_    0.987146 0.921315 0.610506 0.175878
H21   H     H_    0.690781 0.795798 0.279843 0.195692
H22   H     H_    0.785092 0.101340 0.474815 0.179430
H23   H     H_    0.190756 0.295774 0.279844 0.195687
H24   H     H_    0.285071 0.601364 0.474662 0.179494
N1    N     N_R   0.501200 1.000000 0.147910 -0.226625
N2    N     N_R   0.001200 0.500000 0.147910 -0.226618
N3    N     N_R   0.501270 0.000000 0.852040 -0.213760
N4    N     N_R   0.001270 0.500000 0.852040 -0.213746
O1    O     O_R   0.409820 0.909830 0.618810 -0.506567
O2    O     O_R   0.409820 0.090170 0.618810 -0.560748
O3    O     O_R   0.909820 0.409830 0.618810 -0.506563
O4    O     O_R   0.909820 0.590170 0.618810 -0.560732
O5    O     O_R   0.409840 0.909830 0.381240 -0.545265
O6    O     O_R   0.409840 0.090170 0.381240 -0.565194
O7    O     O_R   0.909840 0.409830 0.381240 -0.545268
O8    O     O_R   0.909840 0.590170 0.381240 -0.565198
O9    O     O_R   0.590170 0.090170 0.618760 -0.568168
O10   O     O_R   0.590170 0.909830 0.618760 -0.591372
O11   O     O_R   0.090170 0.590170 0.618760 -0.568146
O12   O     O_R   0.090170 0.409830 0.618760 -0.591376
O13   O     O_R   0.590190 0.090180 0.381190 -0.557711
O14   O     O_R   0.590190 0.909820 0.381190 -0.544953
O15   O     O_R   0.090190 0.590180 0.381190 -0.557718
O16   O     O_R   0.090190 0.409820 0.381190 -0.544946
Br1   Br    Br    0.310367 0.983495 0.836090 -0.417267
Br2   Br    Br    0.810366 0.483499 0.836085 -0.417199
Br3   Br    Br    0.498136 0.754520 0.726806 -0.517339
Br4   Br    Br    0.509680 0.252946 0.720242 -0.528622
Br5   Br    Br    0.998139 0.254542 0.726863 -0.517378
Br6   Br    Br    0.009754 0.752875 0.720451 -0.528612
Br7   Br    Br    0.310843 0.986178 0.168153 -0.428394
Br8   Br    Br    0.810843 0.486180 0.168152 -0.428416
Br9   Br    Br    0.732762 0.977638 0.247504 -0.515016
Br10  Br    Br    0.232761 0.477604 0.247476 -0.515038
Br11  Br    Br    0.813268 0.165234 0.135811 -0.420973
Br12  Br    Br    0.313310 0.665186 0.135789 -0.421022

loop_
_geom_bond_atom_site_label_1
_geom_bond_atom_site_label_2
_ccdc_geom_bond_type
C58   C62   A    
Cu2   Cu4   S    
C6    H2    S    
C40   C60   A    
C34   O16   A    
C13   C32   S    
C42   H14   S    
Cu4   O7    S    
Cu2   O11   S    
C36   Br2   S    
C1    C62   S    
C53   C59   A    
C54   C60   A    
C3    C64   S    
C29   Br7   S    
C4    C63   S    
C19   Br11  S    
C50   C54   A    
C32   O14   A    
C19   C21   A    
C24   C26   A    
Cu1   O2    S    
C5    C11   A    
C48   C52   A    
C7    H3    S    
C39   H11   S    
C2    O6    A    
C21   H5    S    
C43   H15   S    
C18   C20   A    
C28   N2    A    
Cu4   O16   S    
Cu2   O4    S    
C9    C13   A    
C5    H1    S    
C17   C19   A    
C38   C58   A    
C11   C15   A    
Cu3   O13   S    
C12   C16   A    
Cu1   Cu3   S    
C33   O11   A    
C40   H12   S    
C33   O15   A    
C14   C31   S    
C15   C34   S    
C51   C55   A    
C2    C61   S    
Cu2   O12   S    
C39   C59   A    
C32   O10   A    
C31   O9    A    
Cu1   O9    S    
C41   C47   A    
C44   C46   A    
C13   C53   A    
C21   C23   A    
C26   N4    A    
C8    H4    S    
Cu1   N3    S    
C17   C27   A    
C18   C28   A    
C10   C14   A    
C9    H21   S    
C29   N1    A    
C24   H8    S    
C39   C43   A    
C38   H10   S    
C37   H9    S    
Cu4   N2    S    
Cu4   O15   S    
C47   H19   S    
Cu2   O3    S    
C45   H17   S    
C16   C56   A    
C3    O3    A    
C16   C33   S    
C36   N4    A    
Cu3   O14   S    
C45   C49   A    
C41   H13   S    
C48   H20   S    
C31   O13   A    
C5    C61   A    
C42   C48   A    
C43   C45   A    
C7    C63   A    
C8    C64   A    
C17   Br9   S    
C14   C54   A    
C20   C22   A    
C25   N3    A    
C55   C57   A    
C22   C24   A    
C27   N1    A    
C22   H6    S    
C1    O1    A    
C1    O5    A    
Cu1   O10   S    
Cu3   O5    S    
Cu2   N4    S    
C3    O7    A    
C7    C9    A    
C46   C50   A    
C49   Br3   S    
C59   C63   A    
C12   H24   S    
Cu4   O8    S    
C23   H7    S    
C44   H16   S    
C47   C51   A    
C57   C61   A    
C35   N3    A    
C25   C27   A    
C18   Br10  S    
C29   C35   A    
C26   C28   A    
C30   C36   A    
C60   C64   A    
C34   O12   A    
C6    C62   A    
C4    O4    A    
Cu1   O1    S    
C30   N2    A    
C6    C12   A    
C30   Br8   S    
C49   C53   A    
C4    O8    A    
C51   Br5   S    
C56   C58   A    
C35   Br1   S    
C50   Br4   S    
C23   C25   A    
C37   C41   A    
C20   Br12  S    
C38   C42   A    
C11   H23   S    
C40   C44   A    
C10   H22   S    
C2    O2    A    
C8    C10   A    
Cu3   N1    S    
C37   C57   A    
C52   C56   A    
Cu3   O6    S    
C15   C55   A    
C46   H18   S    
C52   Br6   S    
