data_mof_unit_44523.cif
_audit_creation_date              2012-12-11T15:52:21-0500
_audit_creation_method            fapswitch 2.2
_symmetry_space_group_name_H-M    P1
_symmetry_Int_Tables_number       1
_space_group_crystal_system       triclinic
_cell_length_a                    11.057026
_cell_length_b                    11.091727
_cell_length_c                    18.833515
_cell_angle_alpha                 90.267118
_cell_angle_beta                  89.826859
_cell_angle_gamma                 120.140901
_cell_volume                      1997.45173037

loop_
_atom_site_label
_atom_site_type_symbol
_atom_type_description
_atom_site_fract_x
_atom_site_fract_y
_atom_site_fract_z
_atom_type_partial_charge
C1    C     C_R   0.523908 0.450760 0.144275 0.542763
C2    C     C_3   0.118379 0.762953 0.443524 -0.283661
C3    C     C_3   0.540036 0.804275 0.441934 -0.280015
C4    C     C_3   0.247624 0.396640 0.447107 -0.267157
C5    C     C_R   0.521329 0.457918 0.354354 0.548365
C6    C     C_R   0.542173 0.064122 0.354487 0.545222
C7    C     C_R   0.937352 0.479202 0.353872 0.561703
C8    C     C_R   0.456844 0.517083 0.647144 0.570751
C9    C     C_R   0.062251 0.543802 0.646415 0.539342
C10   C     C_R   0.481331 0.935774 0.646337 0.573216
C11   C     C_R   0.494460 0.990037 0.924375 0.013337
C12   C     C_R   0.545712 0.066284 0.146225 0.542447
C13   C     C_R   0.994349 0.496017 0.921241 0.014162
C14   C     C_R   0.505684 0.498359 0.920731 0.013346
C15   C     C_R   0.954812 0.484766 0.068775 0.017866
C16   C     C_R   0.524249 0.024893 0.072350 0.023013
C17   C     C_R   0.515842 0.469726 0.068414 0.019999
C18   C     C_R   0.379203 0.921747 0.970124 0.018607
C19   C     C_R   0.021958 0.408946 0.963759 0.008446
C20   C     C_R   0.594429 0.612678 0.963693 0.005445
C21   C     C_R   0.000401 0.401757 0.036342 -0.001252
C22   C     C_R   0.393459 0.937405 0.042835 -0.011561
C23   C     C_R   0.927622 0.476313 0.144540 0.538329
C24   C     C_R   0.600620 0.598171 0.036353 -0.001535
C25   C     C_R   0.642614 0.084226 0.027340 -0.145384
C26   C     C_R   0.906307 0.555066 0.025332 -0.155235
C27   C     C_R   0.445131 0.351275 0.024372 -0.148166
C28   C     C_R   0.924397 0.559292 0.951879 -0.167849
C29   C     C_R   0.627877 0.066992 0.954103 -0.165092
C30   C     C_R   0.440440 0.365159 0.950990 -0.160444
C31   C     C_3   0.242721 0.919055 0.971813 -0.260441
C32   C     C_3   0.153373 0.403080 0.972026 -0.239562
C33   C     C_3   0.602630 0.750512 0.972419 -0.241844
C34   C     C_R   0.458139 0.520289 0.852522 0.538471
C35   C     C_3   0.128643 0.394124 0.051494 -0.280179
C36   C     C_3   0.255740 0.929215 0.052295 -0.281754
C37   C     C_3   0.610490 0.734669 0.051879 -0.279767
C38   C     C_R   0.504069 0.983623 0.574545 0.044005
C39   C     C_R   0.022365 0.519226 0.572743 -0.006243
C40   C     C_R   0.486844 0.488312 0.576578 0.025954
C41   C     C_R   0.994982 0.489406 0.424424 0.016026
C42   C     C_R   0.501851 0.014270 0.426936 -0.018299
C43   C     C_R   0.513493 0.492042 0.428206 0.021735
C44   C     C_R   0.566452 0.932367 0.528281 -0.000132
C45   C     C_R   0.062838 0.542642 0.852715 0.541590
C46   C     C_R   0.096964 0.630980 0.526461 -0.017736
C47   C     C_R   0.373124 0.406776 0.532360 -0.004872
C48   C     C_R   0.088174 0.617167 0.454296 -0.053722
C49   C     C_R   0.565089 0.946563 0.456325 -0.015237
C50   C     C_R   0.386260 0.411915 0.460748 0.004460
C51   C     C_R   0.445416 0.075328 0.474264 0.038543
C52   C     C_R   0.936528 0.369839 0.469480 0.099234
C53   C     C_R   0.634805 0.559122 0.472444 0.064280
C54   C     C_R   0.946491 0.385135 0.543825 0.047743
C55   C     C_R   0.451274 0.063633 0.548005 0.084797
C56   C     C_R   0.479698 0.937818 0.852498 0.538242
C57   C     C_R   0.620806 0.553716 0.547526 0.047987
C58   C     C_3   0.543865 0.789652 0.521649 -0.241839
C59   C     C_3   0.118174 0.774302 0.524050 -0.252277
C60   C     C_3   0.231904 0.391841 0.527190 -0.236360
Cr1   Cr    Cr6+3 0.769160 0.541570 0.250690 1.024522
Cr2   Cr    Cr6+3 0.458430 0.227590 0.250690 0.996601
Cr3   Cr    Cr6+3 0.772410 0.230840 0.250690 1.029266
Cr4   Cr    Cr6+3 0.541570 0.769160 0.749310 1.024264
Cr5   Cr    Cr6+3 0.227590 0.458430 0.749310 1.002926
Cr6   Cr    Cr6+3 0.230840 0.772410 0.749310 1.023876
H1    H     H_    0.746816 0.149007 0.048465 0.150798
H2    H     H_    0.103575 0.291727 0.074092 0.142461
H3    H     H_    0.263030 0.024913 0.074949 0.144577
H4    H     H_    0.713451 0.811368 0.074946 0.144582
H5    H     H_    0.249089 0.012696 0.946839 0.127293
H6    H     H_    0.143693 0.306267 0.948872 0.148750
H7    H     H_    0.700447 0.837252 0.949653 0.151691
H8    H     H_    0.209381 0.486741 0.081003 0.134803
H9    H     H_    0.178925 0.831321 0.079346 0.147693
H10   H     H_    0.517889 0.723595 0.081120 0.134963
H11   H     H_    0.442362 0.710202 0.544692 0.131825
H12   H     H_    0.859103 0.611285 0.048241 0.150388
H13   H     H_    0.218855 0.849151 0.547470 0.178264
H14   H     H_    0.233671 0.484840 0.549555 0.149147
H15   H     H_    0.035112 0.773484 0.417088 0.171153
H16   H     H_    0.629667 0.806470 0.413902 0.160748
H17   H     H_    0.175064 0.296024 0.420669 0.159953
H18   H     H_    0.638606 0.790595 0.540737 0.164671
H19   H     H_    0.027596 0.780349 0.545107 0.131421
H20   H     H_    0.148761 0.289236 0.547246 0.153379
H21   H     H_    0.222967 0.828140 0.419437 0.144560
H22   H     H_    0.435580 0.734843 0.418107 0.127432
H23   H     H_    0.389512 0.248247 0.046786 0.136358
H24   H     H_    0.255342 0.490951 0.422477 0.126357
H25   H     H_    0.477082 0.242629 0.427389 0.273310
H26   H     H_    0.311226 0.101738 0.412796 0.260523
H27   H     H_    0.899671 0.173098 0.458908 0.234605
H28   H     H_    0.758146 0.193660 0.462265 0.258569
H29   H     H_    0.815624 0.739119 0.457727 0.204660
H30   H     H_    0.828455 0.593123 0.462564 0.239914
H31   H     H_    0.944202 0.249871 0.617356 0.249777
H32   H     H_    0.808888 0.281041 0.623164 0.239198
H33   H     H_    0.461447 0.235125 0.590521 0.252809
H34   H     H_    0.896263 0.623031 0.920404 0.136830
H35   H     H_    0.296324 0.098413 0.581177 0.251372
H36   H     H_    0.800816 0.573812 0.585705 0.233828
H37   H     H_    0.798530 0.725722 0.581364 0.220553
H38   H     H_    0.720476 0.112243 0.920895 0.134652
H39   H     H_    0.375432 0.273398 0.919221 0.129225
H40   H     H_    0.155184 0.818157 0.953015 0.164504
H41   H     H_    0.248011 0.501649 0.955815 0.148254
H42   H     H_    0.504487 0.746685 0.955830 0.149482
N1    N     N_3   0.390647 0.157996 0.449659 -0.625470
N2    N     N_3   0.857305 0.233007 0.440751 -0.555820
N3    N     N_3   0.770493 0.635005 0.441755 -0.587273
N4    N     N_3   0.872542 0.264349 0.588071 -0.645754
N5    N     N_3   0.398585 0.127456 0.595797 -0.606980
N6    N     N_3   0.739632 0.619948 0.593800 -0.620686
O1    O     O_R   0.911480 0.572650 0.170990 -0.532221
O2    O     O_R   0.528970 0.640340 0.824320 -0.499500
O3    O     O_R   0.111370 0.471030 0.824320 -0.501812
O4    O     O_R   0.359660 0.888630 0.824320 -0.498099
O5    O     O_R   0.909980 0.572450 0.331530 -0.509502
O6    O     O_R   0.427550 0.337530 0.331530 -0.535691
O7    O     O_R   0.662470 0.090020 0.331530 -0.488109
O8    O     O_R   0.572450 0.909980 0.668470 -0.521558
O9    O     O_R   0.337530 0.427550 0.668470 -0.527583
O10   O     O_R   0.090020 0.662470 0.668470 -0.513076
O11   O     O_R   0.638950 0.528780 0.324500 -0.461320
O12   O     O_R   0.427350 0.338830 0.170990 -0.529145
O13   O     O_R   0.471220 0.110170 0.324500 -0.522471
O14   O     O_R   0.889830 0.361050 0.324500 -0.467654
O15   O     O_R   0.528780 0.638950 0.675500 -0.480279
O16   O     O_R   0.110170 0.471220 0.675500 -0.516285
O17   O     O_R   0.361050 0.889830 0.675500 -0.486946
O18   O     O_3   0.666667 0.333333 0.250560 -0.262865
O19   O     O_3   0.333333 0.666667 0.749440 -0.266776
O20   O     O_R   0.661170 0.088520 0.170990 -0.528500
O21   O     O_R   0.572650 0.911480 0.829010 -0.528554
O22   O     O_R   0.338830 0.427350 0.829010 -0.527428
O23   O     O_R   0.088520 0.661170 0.829010 -0.525526
O24   O     O_R   0.640340 0.528970 0.175680 -0.504025
O25   O     O_R   0.471030 0.111370 0.175680 -0.506687
O26   O     O_R   0.888630 0.359660 0.175680 -0.505007

loop_
_geom_bond_atom_site_label_1
_geom_bond_atom_site_label_2
_ccdc_geom_bond_type
C44   C49   A    
C40   C47   A    
C11   C18   A    
Cr4   O2    S    
C46   C59   S    
Cr1   O5    S    
H35   N5    S    
Cr3   O26   S    
C25   H1    S    
C59   H19   S    
Cr5   O16   S    
C3    C49   S    
C32   H6    S    
C9    O16   A    
C4    H17   S    
C26   H12   S    
C19   C21   A    
C6    O13   A    
C58   H18   S    
Cr5   O9    S    
Cr2   O13   S    
Cr1   O24   S    
C39   C54   A    
C34   O2    A    
C9    C39   S    
C9    O10   A    
C20   C24   A    
C10   O17   A    
Cr1   O18   S    
C47   C60   S    
C43   C53   A    
C38   C55   A    
C12   C16   S    
C44   C58   S    
C7    O5    A    
Cr1   O1    S    
C13   C28   A    
C52   N2    S    
Cr2   O25   S    
C41   C52   A    
Cr2   O6    S    
Cr3   O14   S    
C58   H11   S    
H27   N2    S    
C28   H34   S    
C31   H5    S    
C5    C43   S    
Cr4   O21   S    
C51   N1    S    
C12   O20   A    
C37   H4    S    
C27   C30   A    
C33   H42   S    
C14   C30   A    
C19   C32   S    
C26   C28   A    
Cr3   O7    S    
C52   C54   A    
C47   C50   A    
C4    H24   S    
C25   C29   A    
H30   N3    S    
C46   C48   A    
C17   C24   A    
H32   N4    S    
H33   N5    S    
C13   C19   A    
C5    O6    A    
C17   C27   A    
Cr3   O20   S    
C14   C20   A    
C23   O26   A    
H37   N6    S    
C1    O12   A    
C59   H13   S    
Cr2   O12   S    
H31   N4    S    
C60   H20   S    
C2    C59   S    
C15   C26   A    
C55   N5    S    
C2    C48   S    
H28   N2    S    
C33   C37   S    
C29   H38   S    
C4    C50   S    
C32   C35   S    
C38   C44   A    
H36   N6    S    
C36   H9    S    
Cr2   O18   S    
Cr6   O19   S    
C34   O22   A    
C35   H8    S    
C4    C60   S    
C3    H16   S    
C45   O23   A    
C24   C37   S    
C12   O25   A    
C54   N4    S    
C2    H21   S    
C43   C50   A    
Cr3   O18   S    
C39   C46   A    
C20   C33   S    
C33   H7    S    
C37   H10   S    
C30   H39   S    
Cr6   O4    S    
C7    O14   A    
C31   H40   S    
Cr6   O10   S    
C56   O21   A    
C36   H3    S    
Cr6   O17   S    
C45   O3    A    
C16   C25   A    
Cr4   O19   S    
C60   H14   S    
C16   C22   A    
C40   C57   A    
C3    H22   S    
C18   C22   A    
C56   O4    A    
C10   O8    A    
C53   C57   A    
C14   C34   S    
C8    O9    A    
C57   N6    S    
C21   C35   S    
C22   C36   S    
C42   C51   A    
C1    C17   S    
C10   C38   S    
H25   N1    S    
H29   N3    S    
C13   C45   S    
C32   H41   S    
C53   N3    S    
Cr6   O23   S    
C35   H2    S    
Cr4   O8    S    
C15   C23   S    
C41   C48   A    
C27   H23   S    
C51   C55   A    
C7    C41   S    
H26   N1    S    
Cr5   O22   S    
C1    O24   A    
C42   C49   A    
C23   O1    A    
C3    C58   S    
C15   C21   A    
Cr4   O15   S    
C11   C29   A    
C6    C42   S    
C5    O11   A    
C8    O15   A    
Cr5   O3    S    
C31   C36   S    
C2    H15   S    
Cr1   O11   S    
C18   C31   S    
C8    C40   S    
C6    O7    A    
Cr5   O19   S    
C11   C56   S    
