data_mof_unit_30261.cif
_audit_creation_date              2012-12-11T14:09:47-0500
_audit_creation_method            fapswitch 2.2
_symmetry_space_group_name_H-M    P1
_symmetry_Int_Tables_number       1
_space_group_crystal_system       triclinic
_cell_length_a                    35.470303
_cell_length_b                    35.477504
_cell_length_c                    35.485708
_cell_angle_alpha                 90.000552
_cell_angle_beta                  90.003079
_cell_angle_gamma                 89.995591
_cell_volume                      44655.1372677

loop_
_atom_site_label
_atom_site_type_symbol
_atom_type_description
_atom_site_fract_x
_atom_site_fract_y
_atom_site_fract_z
_atom_type_partial_charge
C1    C     C_R   0.782028 0.831706 0.169021 0.027685
C2    C     C_R   0.217983 0.168785 0.831686 0.027731
C3    C     C_R   0.168654 0.782005 0.168563 0.027692
C4    C     C_R   0.831467 0.218083 0.831175 0.027713
C5    C     C_R   0.217871 0.168596 0.168259 0.027712
C6    C     C_R   0.782067 0.831116 0.831480 0.027658
C7    C     C_R   0.831477 0.218099 0.168862 0.027728
C8    C     C_R   0.168760 0.781910 0.831560 0.027731
C9    C     C_R   0.781969 0.168755 0.831465 0.027684
C10   C     C_R   0.218060 0.831456 0.168993 0.027682
C11   C     C_R   0.168509 0.218110 0.831149 0.027708
C12   C     C_R   0.831008 0.781831 0.168680 0.027687
C13   C     C_R   0.218102 0.831404 0.830898 0.027686
C14   C     C_R   0.781915 0.168855 0.168412 0.027716
C15   C     C_R   0.831719 0.781905 0.830896 0.027700
C16   C     C_R   0.168398 0.217936 0.168702 0.027698
C17   C     C_R   0.168745 0.168337 0.782101 0.027699
C18   C     C_R   0.831706 0.831159 0.218140 0.027767
C19   C     C_R   0.168442 0.831165 0.218177 0.027740
C20   C     C_R   0.831162 0.168612 0.781851 0.027706
C21   C     C_R   0.830900 0.168660 0.218239 0.027668
C22   C     C_R   0.168468 0.830819 0.781702 0.027705
C23   C     C_R   0.831206 0.831583 0.781808 0.027783
C24   C     C_R   0.168800 0.168411 0.217999 0.027730
C25   C     C_R   0.684890 0.875614 0.126030 -0.007588
C26   C     C_R   0.315026 0.125611 0.875537 -0.007628
C27   C     C_R   0.125435 0.684943 0.124817 -0.007806
C28   C     C_R   0.875127 0.315149 0.874468 -0.007876
C29   C     C_R   0.314923 0.125413 0.124462 -0.007573
C30   C     C_R   0.684789 0.873974 0.875287 -0.007619
C31   C     C_R   0.875390 0.315055 0.125600 -0.007826
C32   C     C_R   0.125558 0.685062 0.875692 -0.007724
C33   C     C_R   0.684844 0.125528 0.875083 -0.007858
C34   C     C_R   0.315346 0.874994 0.125937 -0.007917
C35   C     C_R   0.124850 0.315336 0.874135 -0.007746
C36   C     C_R   0.873776 0.684507 0.124935 -0.007745
C37   C     C_R   0.315338 0.875190 0.873836 -0.007849
C38   C     C_R   0.684925 0.125669 0.124511 -0.007769
C39   C     C_R   0.875525 0.684732 0.873860 -0.007688
C40   C     C_R   0.124769 0.315124 0.125587 -0.007676
C41   C     C_R   0.125720 0.124582 0.684930 -0.007731
C42   C     C_R   0.875721 0.874310 0.315061 -0.007727
C43   C     C_R   0.124524 0.874550 0.315018 -0.007731
C44   C     C_R   0.874506 0.124870 0.684865 -0.007784
C45   C     C_R   0.873873 0.124969 0.315453 -0.007857
C46   C     C_R   0.124567 0.873824 0.684641 -0.007787
C47   C     C_R   0.874302 0.875614 0.684872 -0.007734
C48   C     C_R   0.125775 0.124795 0.315234 -0.007813
C49   C     C_R   0.796667 0.797260 0.151261 -0.028363
C50   C     C_R   0.202856 0.203319 0.848965 -0.028259
C51   C     C_R   0.203130 0.797168 0.151177 -0.028353
C52   C     C_R   0.797123 0.203192 0.848916 -0.028295
C53   C     C_R   0.202702 0.203060 0.150867 -0.028256
C54   C     C_R   0.797403 0.796702 0.848809 -0.028363
C55   C     C_R   0.797156 0.203273 0.151021 -0.028271
C56   C     C_R   0.203244 0.797170 0.848852 -0.028332
C57   C     C_R   0.151028 0.796478 0.797077 -0.028227
C58   C     C_R   0.848757 0.202966 0.203400 -0.028333
C59   C     C_R   0.151050 0.202799 0.796777 -0.028315
C60   C     C_R   0.848900 0.796578 0.202995 -0.028267
C61   C     C_R   0.151047 0.202794 0.203195 -0.028324
C62   C     C_R   0.849006 0.797147 0.796437 -0.028224
C63   C     C_R   0.150953 0.796765 0.202962 -0.028242
C64   C     C_R   0.848881 0.202982 0.796704 -0.028298
C65   C     C_R   0.796767 0.151096 0.797058 -0.028297
C66   C     C_R   0.202887 0.848865 0.203419 -0.028291
C67   C     C_R   0.796552 0.151186 0.202897 -0.028287
C68   C     C_R   0.202859 0.848660 0.796417 -0.028334
C69   C     C_R   0.203171 0.150925 0.202720 -0.028278
C70   C     C_R   0.796766 0.848936 0.797116 -0.028297
C71   C     C_R   0.203164 0.150939 0.797362 -0.028299
C72   C     C_R   0.797354 0.849052 0.203413 -0.028258
C73   C     C_R   0.584188 0.921086 0.921434 0.154096
C74   C     C_R   0.415857 0.078852 0.078625 0.153697
C75   C     C_R   0.078826 0.584263 0.921537 0.153818
C76   C     C_R   0.921465 0.415716 0.078745 0.153994
C77   C     C_R   0.415893 0.078906 0.921375 0.153697
C78   C     C_R   0.584160 0.921475 0.078970 0.153901
C79   C     C_R   0.921398 0.415738 0.921282 0.153986
C80   C     C_R   0.078721 0.584288 0.078567 0.154011
C81   C     C_R   0.584227 0.078840 0.078518 0.153812
C82   C     C_R   0.415724 0.921491 0.921165 0.154205
C83   C     C_R   0.078669 0.415871 0.078851 0.153859
C84   C     C_R   0.921431 0.584095 0.920999 0.153839
C85   C     C_R   0.415745 0.921416 0.078779 0.154192
C86   C     C_R   0.584253 0.078740 0.921403 0.154002
C87   C     C_R   0.921020 0.584086 0.078626 0.154040
C88   C     C_R   0.078679 0.415934 0.921076 0.153842
C89   C     C_R   0.921305 0.078560 0.584300 0.153855
C90   C     C_R   0.078523 0.921260 0.415730 0.153646
C91   C     C_R   0.921378 0.921027 0.415957 0.153776
C92   C     C_R   0.078902 0.078595 0.584155 0.154167
C93   C     C_R   0.078906 0.078664 0.415903 0.154131
C94   C     C_R   0.921018 0.921373 0.584030 0.153761
C95   C     C_R   0.078466 0.921108 0.584226 0.153830
C96   C     C_R   0.921180 0.078515 0.415733 0.154038
C97   C     C_1   0.719887 0.861621 0.140024 0.007425
C98   C     C_1   0.280042 0.139604 0.861552 0.007450
C99   C     C_1   0.139373 0.719942 0.138815 0.007459
C100  C     C_1   0.861142 0.280174 0.860471 0.007479
C101  C     C_1   0.279905 0.139334 0.138441 0.007490
C102  C     C_1   0.719804 0.860035 0.861256 0.007448
C103  C     C_1   0.861373 0.280100 0.139603 0.007462
C104  C     C_1   0.139509 0.720029 0.861670 0.007460
C105  C     C_1   0.719853 0.139476 0.861112 0.007492
C106  C     C_1   0.280342 0.861027 0.139930 0.007488
C107  C     C_1   0.138864 0.280358 0.860155 0.007562
C108  C     C_1   0.859814 0.719483 0.139001 0.007541
C109  C     C_1   0.280355 0.861181 0.859831 0.007426
C110  C     C_1   0.719918 0.139623 0.138493 0.007441
C111  C     C_1   0.861563 0.719711 0.859823 0.007509
C112  C     C_1   0.138732 0.280123 0.139577 0.007500
C113  C     C_1   0.139628 0.138539 0.719973 0.007537
C114  C     C_1   0.861765 0.860339 0.280074 0.007547
C115  C     C_1   0.138591 0.860505 0.280127 0.007521
C116  C     C_1   0.860459 0.138951 0.719765 0.007491
C117  C     C_1   0.859834 0.139041 0.280532 0.007566
C118  C     C_1   0.138626 0.859777 0.719548 0.007591
C119  C     C_1   0.860360 0.861598 0.719842 0.007563
C120  C     C_1   0.139718 0.138769 0.280220 0.007562
C121  C     C_1   0.749153 0.848453 0.152740 -0.051543
C122  C     C_1   0.250818 0.152409 0.848390 -0.051504
C123  C     C_1   0.152185 0.749182 0.151923 -0.051508
C124  C     C_1   0.848055 0.250941 0.847623 -0.051491
C125  C     C_1   0.250669 0.152140 0.151570 -0.051517
C126  C     C_1   0.749120 0.847370 0.848135 -0.051561
C127  C     C_1   0.848185 0.250909 0.152442 -0.051502
C128  C     C_1   0.152318 0.749191 0.848405 -0.051508
C129  C     C_1   0.749116 0.152288 0.848049 -0.051505
C130  C     C_1   0.251031 0.847997 0.152687 -0.051517
C131  C     C_1   0.151959 0.251075 0.847423 -0.051506
C132  C     C_1   0.847166 0.748801 0.152117 -0.051532
C133  C     C_1   0.251062 0.848054 0.847128 -0.051524
C134  C     C_1   0.749135 0.152423 0.151663 -0.051506
C135  C     C_1   0.848422 0.748983 0.847107 -0.051526
C136  C     C_1   0.151809 0.250847 0.152352 -0.051514
C137  C     C_1   0.152365 0.151648 0.749250 -0.051546
C138  C     C_1   0.848533 0.847544 0.250892 -0.051511
C139  C     C_1   0.151789 0.847602 0.250983 -0.051464
C140  C     C_1   0.847583 0.152078 0.748961 -0.051478
C141  C     C_1   0.847108 0.152141 0.251253 -0.051503
C142  C     C_1   0.151811 0.847031 0.748773 -0.051505
C143  C     C_1   0.847573 0.848356 0.749021 -0.051498
C144  C     C_1   0.152473 0.151843 0.250935 -0.051518
C145  C     C_R   0.667791 0.858533 0.095287 -0.311064
C146  C     C_R   0.332531 0.142733 0.906017 -0.307704
C147  C     C_R   0.142532 0.667554 0.094260 -0.307992
C148  C     C_R   0.858028 0.332362 0.905141 -0.310111
C149  C     C_R   0.332485 0.142610 0.094043 -0.308293
C150  C     C_R   0.667257 0.856852 0.905773 -0.307771
C151  C     C_R   0.858318 0.332204 0.094879 -0.310365
C152  C     C_R   0.142686 0.667590 0.906186 -0.307497
C153  C     C_R   0.667449 0.142605 0.905647 -0.307937
C154  C     C_R   0.332470 0.857966 0.095175 -0.310101
C155  C     C_R   0.141919 0.332493 0.904856 -0.310500
C156  C     C_R   0.856700 0.667045 0.094386 -0.307658
C157  C     C_R   0.332421 0.858177 0.904630 -0.310642
C158  C     C_R   0.667444 0.142775 0.094010 -0.307607
C159  C     C_R   0.858415 0.667617 0.904588 -0.311320
C160  C     C_R   0.141922 0.332402 0.094966 -0.310682
C161  C     C_R   0.094943 0.667810 0.858527 -0.310820
C162  C     C_R   0.905856 0.332575 0.142749 -0.307726
C163  C     C_R   0.095043 0.141702 0.667726 -0.310370
C164  C     C_R   0.906156 0.857150 0.332619 -0.307282
C165  C     C_R   0.094154 0.332497 0.142607 -0.307612
C166  C     C_R   0.906072 0.667235 0.856839 -0.307007
C167  C     C_R   0.094010 0.857437 0.332491 -0.308156
C168  C     C_R   0.905245 0.141901 0.667702 -0.310038
C169  C     C_R   0.904593 0.667423 0.141913 -0.310511
C170  C     C_R   0.094279 0.332776 0.857081 -0.307774
C171  C     C_R   0.904698 0.141946 0.332519 -0.310442
C172  C     C_R   0.094054 0.856753 0.667114 -0.307486
C173  C     C_R   0.905661 0.332589 0.857372 -0.307862
C174  C     C_R   0.094819 0.667647 0.141946 -0.310046
C175  C     C_R   0.904980 0.858490 0.667693 -0.310677
C176  C     C_R   0.095061 0.141877 0.332409 -0.310142
C177  C     C_R   0.857444 0.094281 0.667481 -0.308221
C178  C     C_R   0.141575 0.905290 0.332139 -0.310284
C179  C     C_R   0.667702 0.095034 0.141656 -0.310606
C180  C     C_R   0.332850 0.905694 0.856753 -0.307275
C181  C     C_R   0.142915 0.094306 0.332744 -0.307884
C182  C     C_R   0.857118 0.906048 0.667320 -0.307667
C183  C     C_R   0.332208 0.094912 0.858442 -0.310744
C184  C     C_R   0.667342 0.906112 0.143104 -0.307358
C185  C     C_R   0.141560 0.904669 0.667654 -0.310830
C186  C     C_R   0.856854 0.094366 0.332859 -0.307634
C187  C     C_R   0.332831 0.905512 0.143027 -0.307711
C188  C     C_R   0.667564 0.094907 0.857952 -0.310034
C189  C     C_R   0.858547 0.904956 0.332262 -0.311030
C190  C     C_R   0.142876 0.094114 0.667397 -0.307713
C191  C     C_R   0.667703 0.904780 0.858299 -0.310498
C192  C     C_R   0.332087 0.094699 0.141527 -0.310208
C193  C     C_R   0.634280 0.872018 0.080894 0.732599
C194  C     C_R   0.366195 0.129027 0.920021 0.733756
C195  C     C_R   0.128817 0.633972 0.080134 0.733648
C196  C     C_R   0.871598 0.365898 0.919424 0.733468
C197  C     C_R   0.366148 0.128937 0.080004 0.733956
C198  C     C_R   0.633700 0.870715 0.919929 0.734329
C199  C     C_R   0.871830 0.365748 0.080595 0.733106
C200  C     C_R   0.128983 0.633931 0.920182 0.734035
C201  C     C_R   0.633883 0.128871 0.919785 0.733539
C202  C     C_R   0.365933 0.871594 0.080785 0.733213
C203  C     C_R   0.128368 0.366012 0.919182 0.733029
C204  C     C_R   0.870589 0.633522 0.080202 0.734190
C205  C     C_R   0.365853 0.871780 0.919078 0.732928
C206  C     C_R   0.633821 0.129040 0.079969 0.733907
C207  C     C_R   0.871906 0.634126 0.919013 0.732761
C208  C     C_R   0.128390 0.365960 0.080672 0.733396
C209  C     C_R   0.080668 0.634247 0.871980 0.732742
C210  C     C_R   0.919952 0.366164 0.128986 0.733834
C211  C     C_R   0.080761 0.128207 0.634166 0.733121
C212  C     C_R   0.920072 0.870829 0.366325 0.734031
C213  C     C_R   0.080092 0.366112 0.128885 0.733442
C214  C     C_R   0.920071 0.633620 0.870672 0.734042
C215  C     C_R   0.079939 0.871156 0.366094 0.733653
C216  C     C_R   0.919542 0.128294 0.634192 0.733181
C217  C     C_R   0.918993 0.633973 0.128311 0.732788
C218  C     C_R   0.080175 0.366358 0.870861 0.733823
C219  C     C_R   0.919161 0.128278 0.365915 0.732859
C220  C     C_R   0.079944 0.870647 0.633578 0.734202
C221  C     C_R   0.919804 0.366144 0.871125 0.733417
C222  C     C_R   0.080545 0.634109 0.128369 0.733226
C223  C     C_R   0.919201 0.871888 0.634093 0.732719
C224  C     C_R   0.080778 0.128351 0.365957 0.733168
C225  C     C_R   0.871202 0.080114 0.633941 0.733421
C226  C     C_R   0.128073 0.919549 0.365694 0.732770
C227  C     C_R   0.634161 0.080727 0.128158 0.732845
C228  C     C_R   0.366366 0.919857 0.870665 0.734008
C229  C     C_R   0.129171 0.080224 0.366349 0.734196
C230  C     C_R   0.870799 0.920015 0.633635 0.734267
C231  C     C_R   0.365803 0.080655 0.871889 0.732887
C232  C     C_R   0.633716 0.920132 0.129282 0.734205
C233  C     C_R   0.128008 0.919108 0.634220 0.732499
C234  C     C_R   0.870768 0.080154 0.366332 0.733905
C235  C     C_R   0.366335 0.919709 0.129165 0.733894
C236  C     C_R   0.634040 0.080605 0.871552 0.733429
C237  C     C_R   0.871919 0.919203 0.365869 0.732973
C238  C     C_R   0.129139 0.080063 0.633766 0.734285
C239  C     C_R   0.634219 0.919155 0.871867 0.732724
C240  C     C_R   0.365707 0.080503 0.128080 0.732809
C241  C     C_R   0.616775 0.903636 0.097301 -0.319259
C242  C     C_R   0.383252 0.097125 0.903507 -0.319294
C243  C     C_R   0.096944 0.616844 0.096594 -0.319452
C244  C     C_R   0.903356 0.383209 0.903031 -0.319473
C245  C     C_R   0.383187 0.097019 0.096491 -0.319335
C246  C     C_R   0.616766 0.902744 0.903512 -0.319271
C247  C     C_R   0.903504 0.383159 0.097024 -0.319512
C248  C     C_R   0.097088 0.616861 0.903657 -0.319483
C249  C     C_R   0.616778 0.096986 0.903341 -0.319458
C250  C     C_R   0.383282 0.903337 0.097147 -0.319432
C251  C     C_R   0.096656 0.383389 0.902780 -0.319262
C252  C     C_R   0.902617 0.616580 0.096617 -0.319225
C253  C     C_R   0.383256 0.903480 0.902730 -0.319370
C254  C     C_R   0.616784 0.097125 0.096458 -0.319449
C255  C     C_R   0.903559 0.616663 0.902635 -0.319233
C256  C     C_R   0.096629 0.383265 0.097062 -0.319288
C257  C     C_R   0.097177 0.096522 0.616756 -0.319365
C258  C     C_R   0.903540 0.902756 0.383341 -0.319352
C259  C     C_R   0.096440 0.903057 0.383132 -0.319463
C260  C     C_R   0.903094 0.096575 0.616858 -0.319462
C261  C     C_R   0.902788 0.096555 0.383275 -0.319376
C262  C     C_R   0.096389 0.902697 0.616720 -0.319419
C263  C     C_R   0.902742 0.903508 0.616627 -0.319349
C264  C     C_R   0.097198 0.096654 0.383351 -0.319350
C265  C     C_R   0.566904 0.910295 0.954867 -0.085125
C266  C     C_R   0.433134 0.089706 0.045209 -0.085025
C267  C     C_R   0.089688 0.566928 0.954898 -0.085711
C268  C     C_R   0.910427 0.432949 0.045276 -0.083348
C269  C     C_R   0.433144 0.089718 0.954810 -0.085140
C270  C     C_R   0.566999 0.910415 0.045435 -0.082829
C271  C     C_R   0.910398 0.432980 0.954741 -0.083751
C272  C     C_R   0.089659 0.566955 0.045192 -0.085436
C273  C     C_R   0.566908 0.089695 0.045137 -0.085503
C274  C     C_R   0.432943 0.910435 0.954663 -0.083054
C275  C     C_R   0.089627 0.433036 0.045324 -0.083017
C276  C     C_R   0.910387 0.566956 0.954547 -0.082792
C277  C     C_R   0.432962 0.910413 0.045286 -0.083541
C278  C     C_R   0.566942 0.089663 0.954798 -0.085295
C279  C     C_R   0.910262 0.566856 0.045155 -0.085052
C280  C     C_R   0.089634 0.433055 0.954636 -0.082831
C281  C     C_R   0.954851 0.566797 0.910229 -0.085536
C282  C     C_R   0.045253 0.433173 0.089733 -0.085351
C283  C     C_R   0.954758 0.089574 0.567043 -0.083409
C284  C     C_R   0.045164 0.910336 0.433077 -0.085234
C285  C     C_R   0.954864 0.433025 0.089624 -0.085289
C286  C     C_R   0.045341 0.567052 0.910468 -0.083162
C287  C     C_R   0.954817 0.910244 0.433205 -0.085709
C288  C     C_R   0.045369 0.089604 0.566977 -0.083226
C289  C     C_R   0.045225 0.567079 0.089540 -0.083245
C290  C     C_R   0.954827 0.433013 0.910387 -0.084885
C291  C     C_R   0.045350 0.089624 0.433049 -0.083186
C292  C     C_R   0.954568 0.910363 0.566901 -0.083125
C293  C     C_R   0.045254 0.433226 0.910231 -0.085517
C294  C     C_R   0.954562 0.566907 0.089649 -0.083101
C295  C     C_R   0.045080 0.910297 0.566898 -0.085430
C296  C     C_R   0.954672 0.089568 0.432961 -0.083076
C297  C     C_R   0.910236 0.954814 0.566790 -0.085549
C298  C     C_R   0.089723 0.045202 0.433147 -0.084986
C299  C     C_R   0.566830 0.954870 0.089757 -0.085599
C300  C     C_R   0.433109 0.045419 0.910340 -0.083534
C301  C     C_R   0.089576 0.954708 0.432971 -0.083527
C302  C     C_R   0.910357 0.045183 0.566965 -0.085112
C303  C     C_R   0.433012 0.954916 0.910361 -0.085448
C304  C     C_R   0.567034 0.045346 0.089555 -0.083425
C305  C     C_R   0.089706 0.045144 0.566895 -0.084946
C306  C     C_R   0.910360 0.954572 0.433089 -0.082956
C307  C     C_R   0.433077 0.045370 0.089643 -0.083575
C308  C     C_R   0.566977 0.954601 0.910389 -0.083036
C309  C     C_R   0.910328 0.045110 0.433044 -0.085158
C310  C     C_R   0.089570 0.954601 0.567025 -0.083026
C311  C     C_R   0.567052 0.045242 0.910440 -0.083333
C312  C     C_R   0.433021 0.954854 0.089630 -0.084854
H1    H     H_    0.679971 0.835053 0.081233 0.160523
H2    H     H_    0.320367 0.166453 0.919965 0.160396
H3    H     H_    0.166227 0.679740 0.080328 0.160392
H4    H     H_    0.834473 0.320209 0.919189 0.160610
H5    H     H_    0.320371 0.166378 0.080150 0.160429
H6    H     H_    0.679341 0.833010 0.919602 0.160509
H7    H     H_    0.834827 0.320020 0.080778 0.160607
H8    H     H_    0.166402 0.679776 0.920128 0.160404
H9    H     H_    0.679622 0.166299 0.919588 0.160402
H10   H     H_    0.320294 0.834433 0.081132 0.160600
H11   H     H_    0.165429 0.320322 0.918941 0.160605
H12   H     H_    0.832897 0.679172 0.080516 0.160492
H13   H     H_    0.320262 0.834675 0.918690 0.160619
H14   H     H_    0.679596 0.166496 0.080071 0.160414
H15   H     H_    0.834915 0.679790 0.918624 0.160538
H16   H     H_    0.165506 0.320283 0.080945 0.160621
H17   H     H_    0.080884 0.679911 0.834992 0.160591
H18   H     H_    0.919741 0.320469 0.166533 0.160447
H19   H     H_    0.080996 0.165246 0.679866 0.160636
H20   H     H_    0.920102 0.833404 0.320469 0.160452
H21   H     H_    0.080148 0.320265 0.166245 0.160402
H22   H     H_    0.920049 0.679388 0.833109 0.160509
H23   H     H_    0.080037 0.833734 0.320332 0.160423
H24   H     H_    0.919348 0.165413 0.679891 0.160602
H25   H     H_    0.918705 0.679595 0.165392 0.160661
H26   H     H_    0.080321 0.320597 0.833374 0.160457
H27   H     H_    0.918782 0.165449 0.320343 0.160630
H28   H     H_    0.080134 0.832957 0.679209 0.160535
H29   H     H_    0.919587 0.320452 0.833649 0.160409
H30   H     H_    0.080798 0.679732 0.165546 0.160626
H31   H     H_    0.919110 0.835028 0.679871 0.160593
H32   H     H_    0.080985 0.165397 0.320232 0.160634
H33   H     H_    0.833758 0.080316 0.679666 0.160405
H34   H     H_    0.165022 0.919434 0.319898 0.160527
H35   H     H_    0.679823 0.081002 0.165198 0.160538
H36   H     H_    0.320772 0.919544 0.832920 0.160500
H37   H     H_    0.166686 0.080395 0.320622 0.160532
H38   H     H_    0.833360 0.919972 0.679467 0.160463
H39   H     H_    0.320009 0.080807 0.834977 0.160549
H40   H     H_    0.679460 0.920034 0.166880 0.160514
H41   H     H_    0.164980 0.918800 0.679894 0.160540
H42   H     H_    0.833093 0.080445 0.320718 0.160492
H43   H     H_    0.320755 0.919384 0.166827 0.160501
H44   H     H_    0.679653 0.080909 0.834343 0.160612
H45   H     H_    0.835060 0.919043 0.320102 0.160583
H46   H     H_    0.166667 0.080227 0.679510 0.160530
H47   H     H_    0.679882 0.918876 0.834825 0.160618
H48   H     H_    0.319862 0.080569 0.164973 0.160531
H49   H     H_    0.568508 0.883880 0.969294 0.196445
H50   H     H_    0.431570 0.116173 0.030882 0.196782
H51   H     H_    0.116072 0.568611 0.969347 0.196724
H52   H     H_    0.884014 0.431076 0.030879 0.196272
H53   H     H_    0.431558 0.116160 0.969181 0.196829
H54   H     H_    0.568782 0.883898 0.031201 0.196322
H55   H     H_    0.883990 0.431147 0.969147 0.196276
H56   H     H_    0.116080 0.568664 0.030812 0.196761
H57   H     H_    0.568582 0.116078 0.030694 0.196790
H58   H     H_    0.431058 0.884013 0.969039 0.196181
H59   H     H_    0.116099 0.431300 0.030993 0.196229
H60   H     H_    0.883857 0.568711 0.968772 0.196311
H61   H     H_    0.431086 0.884017 0.030864 0.196221
H62   H     H_    0.568656 0.116069 0.969195 0.196859
H63   H     H_    0.883850 0.568460 0.030709 0.196466
H64   H     H_    0.116105 0.431289 0.968973 0.196249
H65   H     H_    0.969349 0.568416 0.883865 0.196586
H66   H     H_    0.030870 0.431531 0.116158 0.196631
H67   H     H_    0.969043 0.116071 0.568738 0.195975
H68   H     H_    0.030911 0.883824 0.431573 0.196627
H69   H     H_    0.969230 0.431401 0.116055 0.196857
H70   H     H_    0.031091 0.568815 0.883973 0.196620
H71   H     H_    0.969323 0.883895 0.431515 0.197059
H72   H     H_    0.030938 0.115996 0.568885 0.196415
H73   H     H_    0.030837 0.568876 0.115958 0.196382
H74   H     H_    0.969196 0.431344 0.883961 0.196920
H75   H     H_    0.030881 0.115997 0.431140 0.196357
H76   H     H_    0.968943 0.883941 0.568770 0.196720
H77   H     H_    0.030865 0.431636 0.883803 0.196642
H78   H     H_    0.968904 0.568711 0.116101 0.196198
H79   H     H_    0.030706 0.883848 0.568399 0.196461
H80   H     H_    0.968921 0.116086 0.431246 0.195954
H81   H     H_    0.883879 0.969315 0.568473 0.196916
H82   H     H_    0.116074 0.030686 0.431409 0.196738
H83   H     H_    0.568449 0.969359 0.116125 0.196550
H84   H     H_    0.431363 0.031134 0.883859 0.196273
H85   H     H_    0.116103 0.968938 0.431272 0.196206
H86   H     H_    0.883847 0.030924 0.568528 0.196624
H87   H     H_    0.431344 0.969378 0.883985 0.196778
H88   H     H_    0.568800 0.031085 0.116041 0.196611
H89   H     H_    0.116028 0.030578 0.568667 0.196684
H90   H     H_    0.883933 0.968947 0.431219 0.196557
H91   H     H_    0.431288 0.031034 0.116092 0.196337
H92   H     H_    0.568825 0.968956 0.883950 0.196186
H93   H     H_    0.883878 0.030736 0.431463 0.196450
H94   H     H_    0.116131 0.968773 0.568749 0.196117
H95   H     H_    0.568827 0.030871 0.884011 0.196303
H96   H     H_    0.431364 0.969264 0.116037 0.196708
N1    N     N_R   0.543640 0.937740 0.965010 -0.067088
N2    N     N_R   0.456360 0.062260 0.034990 -0.067073
N3    N     N_R   0.062260 0.543640 0.965010 -0.067045
N4    N     N_R   0.937740 0.456360 0.034990 -0.067282
N5    N     N_R   0.456360 0.062260 0.965010 -0.067047
N6    N     N_R   0.543640 0.937740 0.034990 -0.067278
N7    N     N_R   0.937740 0.456360 0.965010 -0.067275
N8    N     N_R   0.062260 0.543640 0.034990 -0.067099
N9    N     N_R   0.543640 0.062260 0.034990 -0.067046
N10   N     N_R   0.456360 0.937740 0.965010 -0.067302
N11   N     N_R   0.062260 0.456360 0.034990 -0.067280
N12   N     N_R   0.937740 0.543640 0.965010 -0.067292
N13   N     N_R   0.456360 0.937740 0.034990 -0.067289
N14   N     N_R   0.543640 0.062260 0.965010 -0.067101
N15   N     N_R   0.937740 0.543640 0.034990 -0.067091
N16   N     N_R   0.062260 0.456360 0.965010 -0.067289
N17   N     N_R   0.965010 0.543640 0.937740 -0.067024
N18   N     N_R   0.034990 0.456360 0.062260 -0.067039
N19   N     N_R   0.965010 0.062260 0.543640 -0.067297
N20   N     N_R   0.034990 0.937740 0.456360 -0.067109
N21   N     N_R   0.965010 0.456360 0.062260 -0.067100
N22   N     N_R   0.034990 0.543640 0.937740 -0.067284
N23   N     N_R   0.965010 0.937740 0.456360 -0.066995
N24   N     N_R   0.034990 0.062260 0.543640 -0.067261
N25   N     N_R   0.034990 0.543640 0.062260 -0.067278
N26   N     N_R   0.965010 0.456360 0.937740 -0.067113
N27   N     N_R   0.034990 0.062260 0.456360 -0.067245
N28   N     N_R   0.965010 0.937740 0.543640 -0.067214
N29   N     N_R   0.034990 0.456360 0.937740 -0.067043
N30   N     N_R   0.965010 0.543640 0.062260 -0.067276
N31   N     N_R   0.034990 0.937740 0.543640 -0.067115
N32   N     N_R   0.965010 0.062260 0.456360 -0.067348
N33   N     N_R   0.937740 0.965010 0.543640 -0.067000
N34   N     N_R   0.062260 0.034990 0.456360 -0.067073
N35   N     N_R   0.543640 0.965010 0.062260 -0.067018
N36   N     N_R   0.456360 0.034990 0.937740 -0.067206
N37   N     N_R   0.062260 0.965010 0.456360 -0.067276
N38   N     N_R   0.937740 0.034990 0.543640 -0.067130
N39   N     N_R   0.456360 0.965010 0.937740 -0.067103
N40   N     N_R   0.543640 0.034990 0.062260 -0.067268
N41   N     N_R   0.062260 0.034990 0.543640 -0.067068
N42   N     N_R   0.937740 0.965010 0.456360 -0.067228
N43   N     N_R   0.456360 0.034990 0.062260 -0.067207
N44   N     N_R   0.543640 0.965010 0.937740 -0.067271
N45   N     N_R   0.937740 0.034990 0.456360 -0.067151
N46   N     N_R   0.062260 0.965010 0.543640 -0.067334
N47   N     N_R   0.543640 0.034990 0.937740 -0.067294
N48   N     N_R   0.456360 0.965010 0.062260 -0.067150
Ni1   Ni    Ni4+2 0.500000 0.938380 0.000000 0.225612
Ni2   Ni    Ni4+2 0.500000 0.061620 0.000000 0.226065
Ni3   Ni    Ni4+2 0.061620 0.500000 0.000000 0.225775
Ni4   Ni    Ni4+2 0.938380 0.500000 0.000000 0.225638
Ni5   Ni    Ni4+2 0.000000 0.500000 0.938380 0.225894
Ni6   Ni    Ni4+2 1.000000 0.500000 0.061620 0.225740
Ni7   Ni    Ni4+2 0.000000 0.061620 0.500000 0.225414
Ni8   Ni    Ni4+2 1.000000 0.938380 0.500000 0.225916
Ni9   Ni    Ni4+2 0.938380 1.000000 0.500000 0.225884
Ni10  Ni    Ni4+2 0.061620 1.000000 0.500000 0.225693
Ni11  Ni    Ni4+2 0.500000 1.000000 0.061620 0.225807
Ni12  Ni    Ni4+2 0.500000 1.000000 0.938380 0.225667
C313  C     C_R   0.774521 0.775859 0.116393 0.133666
C314  C     C_R   0.786256 0.741776 0.098144 -0.136104
C315  C     C_R   0.766412 0.721949 0.069569 -0.108574
C316  C     C_R   0.733080 0.735275 0.055138 -0.064584
C317  C     C_R   0.720282 0.768667 0.069764 -0.107958
C318  C     C_R   0.740437 0.788170 0.098362 -0.136603
H97   H     H_    0.811876 0.731141 0.100579 0.128590
H98   H     H_    0.777983 0.696728 0.056969 0.134393
H99   H     H_    0.718872 0.721517 0.031969 0.108209
H100  H     H_    0.695200 0.780526 0.057165 0.136954
H101  H     H_    0.730368 0.813973 0.100945 0.128398
C319  C     C_R   0.224518 0.225526 0.883686 0.133025
C320  C     C_R   0.212527 0.259848 0.901557 -0.135940
C321  C     C_R   0.232377 0.280086 0.929932 -0.107023
C322  C     C_R   0.265669 0.267008 0.944651 -0.065613
C323  C     C_R   0.278554 0.233425 0.930444 -0.107951
C324  C     C_R   0.258498 0.213560 0.902017 -0.136029
H102  H     H_    0.186600 0.269839 0.899224 0.127975
H103  H     H_    0.220748 0.305357 0.942391 0.136552
H104  H     H_    0.279607 0.281074 0.967819 0.108354
H105  H     H_    0.303575 0.221607 0.943228 0.134770
H106  H     H_    0.268607 0.187651 0.899965 0.128216
C325  C     C_R   0.225077 0.775663 0.116246 0.133654
C326  C     C_R   0.259308 0.787669 0.098263 -0.136238
C327  C     C_R   0.279330 0.767992 0.069656 -0.107719
C328  C     C_R   0.266126 0.734790 0.054893 -0.064724
C329  C     C_R   0.232634 0.721865 0.069232 -0.108525
C330  C     C_R   0.213008 0.741769 0.097892 -0.136636
H107  H     H_    0.269661 0.813359 0.100912 0.128356
H108  H     H_    0.304608 0.779585 0.057192 0.136341
H109  H     H_    0.280126 0.720827 0.031741 0.108000
H110  H     H_    0.220808 0.696842 0.056493 0.135029
H111  H     H_    0.187319 0.731372 0.100353 0.128639
C331  C     C_R   0.775539 0.225158 0.883810 0.133380
C332  C     C_R   0.787557 0.259356 0.901869 -0.136098
C333  C     C_R   0.767774 0.279400 0.930410 -0.107364
C334  C     C_R   0.734479 0.266265 0.945063 -0.065206
C335  C     C_R   0.721560 0.232794 0.930662 -0.108079
C336  C     C_R   0.741568 0.213125 0.902075 -0.136574
H112  H     H_    0.813363 0.269557 0.899418 0.128177
H113  H     H_    0.779401 0.304627 0.942949 0.136216
H114  H     H_    0.720485 0.280251 0.968213 0.108089
H115  H     H_    0.696492 0.220988 0.943344 0.135127
H116  H     H_    0.731273 0.187379 0.899658 0.128530
C337  C     C_R   0.224274 0.225106 0.115995 0.133189
C338  C     C_R   0.212271 0.259371 0.098031 -0.136250
C339  C     C_R   0.232074 0.279523 0.069554 -0.106965
C340  C     C_R   0.265377 0.266429 0.054836 -0.065297
C341  C     C_R   0.278249 0.232865 0.069126 -0.107810
C342  C     C_R   0.258229 0.213096 0.097656 -0.136542
H117  H     H_    0.186432 0.269513 0.100514 0.128186
H118  H     H_    0.220448 0.304791 0.057085 0.136327
H119  H     H_    0.279355 0.280475 0.031698 0.108258
H120  H     H_    0.303286 0.221039 0.056386 0.134852
H121  H     H_    0.268462 0.187285 0.099941 0.128471
C343  C     C_R   0.776030 0.774659 0.883753 0.133764
C344  C     C_R   0.788245 0.740501 0.901679 -0.137054
C345  C     C_R   0.768754 0.720380 0.930309 -0.107755
C346  C     C_R   0.735484 0.733320 0.945121 -0.064359
C347  C     C_R   0.722284 0.766756 0.930821 -0.108752
C348  C     C_R   0.742067 0.786522 0.902159 -0.136070
H122  H     H_    0.813929 0.730242 0.898886 0.128628
H123  H     H_    0.780510 0.695179 0.942754 0.136939
H124  H     H_    0.721727 0.719116 0.968282 0.108153
H125  H     H_    0.697177 0.778433 0.943557 0.134340
H126  H     H_    0.731466 0.812152 0.899728 0.128613
C349  C     C_R   0.775673 0.225288 0.116089 0.133354
C350  C     C_R   0.787783 0.259471 0.098085 -0.136464
C351  C     C_R   0.768076 0.279567 0.069525 -0.107116
C352  C     C_R   0.734779 0.266517 0.054807 -0.065137
C353  C     C_R   0.721771 0.233056 0.069147 -0.108315
C354  C     C_R   0.741713 0.213322 0.097735 -0.136192
H127  H     H_    0.813609 0.269588 0.100600 0.128221
H128  H     H_    0.779766 0.304773 0.057011 0.136532
H129  H     H_    0.720866 0.280558 0.031638 0.108071
H130  H     H_    0.696706 0.221289 0.056411 0.134853
H131  H     H_    0.731401 0.187561 0.100024 0.128466
C355  C     C_R   0.225274 0.775813 0.883828 0.133656
C356  C     C_R   0.259532 0.787902 0.901713 -0.136474
C357  C     C_R   0.279628 0.768336 0.930343 -0.107707
C358  C     C_R   0.266483 0.735180 0.945231 -0.064604
C359  C     C_R   0.232962 0.722182 0.931000 -0.108566
C360  C     C_R   0.213256 0.741980 0.902321 -0.136438
H132  H     H_    0.269819 0.813591 0.898963 0.128443
H133  H     H_    0.304915 0.779971 0.942747 0.136783
H134  H     H_    0.280563 0.721334 0.968406 0.107977
H135  H     H_    0.221152 0.697196 0.943827 0.134625
H136  H     H_    0.187545 0.731567 0.900000 0.128573
C361  C     C_R   0.116213 0.774235 0.775566 0.132920
C362  C     C_R   0.098002 0.785921 0.741404 -0.135872
C363  C     C_R   0.069580 0.765887 0.721416 -0.107328
C364  C     C_R   0.055103 0.732538 0.734702 -0.065970
C365  C     C_R   0.069634 0.719883 0.768219 -0.106732
C366  C     C_R   0.098132 0.740146 0.787880 -0.136509
H137  H     H_    0.100147 0.811768 0.731117 0.128172
H138  H     H_    0.056998 0.777443 0.696168 0.134363
H139  H     H_    0.031898 0.718344 0.720938 0.108424
H140  H     H_    0.056950 0.694865 0.780136 0.136851
H141  H     H_    0.100449 0.730385 0.813885 0.128056
C367  C     C_R   0.883573 0.224544 0.225518 0.133344
C368  C     C_R   0.901432 0.212566 0.259844 -0.136057
C369  C     C_R   0.929924 0.232330 0.279997 -0.107255
C370  C     C_R   0.944794 0.265494 0.266796 -0.065244
C371  C     C_R   0.930588 0.278359 0.233213 -0.108130
C372  C     C_R   0.901990 0.258432 0.213474 -0.136452
H142  H     H_    0.898942 0.186728 0.269963 0.128081
H143  H     H_    0.942330 0.220743 0.305308 0.136527
H144  H     H_    0.968022 0.279381 0.280813 0.108263
H145  H     H_    0.943429 0.303315 0.221344 0.134750
H146  H     H_    0.899758 0.268681 0.187666 0.128445
C373  C     C_R   0.116239 0.224357 0.774620 0.133209
C374  C     C_R   0.098068 0.258471 0.786433 -0.136287
C375  C     C_R   0.069617 0.278512 0.766563 -0.107773
C376  C     C_R   0.055131 0.265401 0.733185 -0.065652
C377  C     C_R   0.069631 0.231924 0.720333 -0.107059
C378  C     C_R   0.098146 0.212182 0.740491 -0.136180
H147  H     H_    0.100374 0.268813 0.812198 0.128387
H148  H     H_    0.057062 0.303729 0.778203 0.134758
H149  H     H_    0.031995 0.279355 0.719094 0.108315
H150  H     H_    0.056973 0.220143 0.695240 0.136521
H151  H     H_    0.100538 0.186271 0.730498 0.128056
C379  C     C_R   0.883617 0.774292 0.224603 0.132938
C380  C     C_R   0.901383 0.739902 0.212614 -0.135911
C381  C     C_R   0.929727 0.719571 0.232454 -0.106741
C382  C     C_R   0.944575 0.732650 0.265681 -0.066067
C383  C     C_R   0.930502 0.766321 0.278517 -0.107660
C384  C     C_R   0.902065 0.786255 0.258514 -0.136023
H152  H     H_    0.899013 0.729974 0.186666 0.127887
H153  H     H_    0.942095 0.694241 0.220850 0.136725
H154  H     H_    0.967735 0.718520 0.279582 0.108425
H155  H     H_    0.943381 0.778153 0.303476 0.134578
H156  H     H_    0.900101 0.812196 0.268601 0.128140
C385  C     C_R   0.116293 0.224457 0.225337 0.133160
C386  C     C_R   0.098316 0.212430 0.259577 -0.136099
C387  C     C_R   0.069865 0.232251 0.279736 -0.107040
C388  C     C_R   0.055251 0.265612 0.266718 -0.065667
C389  C     C_R   0.069595 0.278560 0.233231 -0.107944
C390  C     C_R   0.098042 0.258487 0.213398 -0.136051
H157  H     H_    0.100709 0.186554 0.269661 0.128056
H158  H     H_    0.057325 0.220591 0.304944 0.136405
H159  H     H_    0.032098 0.279593 0.280765 0.108359
H160  H     H_    0.056904 0.303652 0.221471 0.134936
H161  H     H_    0.100212 0.268655 0.187539 0.128213
C391  C     C_R   0.883707 0.775513 0.774130 0.132735
C392  C     C_R   0.901639 0.787717 0.739932 -0.136511
C393  C     C_R   0.929999 0.767943 0.719587 -0.106387
C394  C     C_R   0.944601 0.734474 0.732306 -0.066386
C395  C     C_R   0.930318 0.721322 0.765777 -0.107531
C396  C     C_R   0.901988 0.741386 0.785864 -0.135222
H162  H     H_    0.899368 0.813744 0.730182 0.127968
H163  H     H_    0.942559 0.779767 0.694466 0.136936
H164  H     H_    0.967763 0.720669 0.718071 0.108544
H165  H     H_    0.943024 0.696159 0.777398 0.134389
H166  H     H_    0.900087 0.731287 0.811833 0.127870
C397  C     C_R   0.116115 0.774657 0.224558 0.133027
C398  C     C_R   0.097910 0.786590 0.258605 -0.136636
C399  C     C_R   0.069450 0.766738 0.278671 -0.107358
C400  C     C_R   0.054979 0.733298 0.265681 -0.065658
C401  C     C_R   0.069520 0.720325 0.232274 -0.107056
C402  C     C_R   0.098016 0.740474 0.212476 -0.135807
H167  H     H_    0.100134 0.812455 0.268759 0.128338
H168  H     H_    0.056840 0.778484 0.303805 0.134904
H169  H     H_    0.031779 0.719296 0.279633 0.108287
H170  H     H_    0.056867 0.695194 0.220546 0.136299
H171  H     H_    0.100293 0.730513 0.186531 0.127963
C403  C     C_R   0.883679 0.224667 0.774651 0.133204
C404  C     C_R   0.901682 0.212694 0.740401 -0.135795
C405  C     C_R   0.930129 0.232571 0.720293 -0.107226
C406  C     C_R   0.944820 0.265836 0.733467 -0.065382
C407  C     C_R   0.930485 0.278692 0.766985 -0.107982
C408  C     C_R   0.901943 0.258645 0.786690 -0.136460
H172  H     H_    0.899417 0.186774 0.730360 0.127922
H173  H     H_    0.942652 0.220959 0.695051 0.136150
H174  H     H_    0.968039 0.279805 0.719518 0.108241
H175  H     H_    0.943227 0.303709 0.778835 0.135127
H176  H     H_    0.899666 0.268823 0.812515 0.128418
C409  C     C_R   0.774717 0.116245 0.775467 0.133318
C410  C     C_R   0.786678 0.098089 0.741424 -0.136801
C411  C     C_R   0.766927 0.069571 0.721384 -0.107712
C412  C     C_R   0.733532 0.055038 0.734395 -0.065192
C413  C     C_R   0.720498 0.069555 0.767777 -0.107622
C414  C     C_R   0.740559 0.098106 0.787538 -0.135760
H177  H     H_    0.812456 0.100476 0.731152 0.128504
H178  H     H_    0.778675 0.057003 0.696237 0.135043
H179  H     H_    0.719564 0.031842 0.720424 0.108184
H180  H     H_    0.695370 0.056882 0.779485 0.136220
H181  H     H_    0.730464 0.100441 0.813406 0.128067
C415  C     C_R   0.224574 0.883631 0.225529 0.133110
C416  C     C_R   0.212459 0.901644 0.259702 -0.136301
C417  C     C_R   0.232260 0.930079 0.279883 -0.106909
C418  C     C_R   0.265619 0.944727 0.266934 -0.065619
C419  C     C_R   0.278680 0.930366 0.233483 -0.108027
C420  C     C_R   0.258662 0.901861 0.213651 -0.135892
H182  H     H_    0.186497 0.899378 0.269615 0.127987
H183  H     H_    0.220517 0.942634 0.305044 0.136476
H184  H     H_    0.279469 0.967939 0.281019 0.108339
H185  H     H_    0.303793 0.943067 0.221770 0.134837
H186  H     H_    0.268923 0.899617 0.187833 0.128287
C421  C     C_R   0.774385 0.116370 0.224422 0.133243
C422  C     C_R   0.786119 0.098216 0.258572 -0.136093
C423  C     C_R   0.766187 0.069746 0.278535 -0.107739
C424  C     C_R   0.732870 0.055222 0.265243 -0.065395
C425  C     C_R   0.720133 0.069717 0.231765 -0.107542
C426  C     C_R   0.740311 0.098254 0.212147 -0.136335
H187  H     H_    0.811877 0.100533 0.268974 0.128339
H188  H     H_    0.777751 0.057209 0.303793 0.134549
H189  H     H_    0.718697 0.032041 0.279035 0.108272
H190  H     H_    0.695101 0.057023 0.219888 0.136724
H191  H     H_    0.730376 0.100626 0.186243 0.128197
C427  C     C_R   0.224406 0.883440 0.774233 0.133346
C428  C     C_R   0.212249 0.901308 0.740010 -0.136595
C429  C     C_R   0.231905 0.929790 0.719794 -0.107277
C430  C     C_R   0.265173 0.944597 0.732751 -0.065278
C431  C     C_R   0.278295 0.930366 0.766232 -0.108440
C432  C     C_R   0.258411 0.901814 0.786085 -0.135727
H192  H     H_    0.186386 0.898798 0.730008 0.128208
H193  H     H_    0.220170 0.942238 0.694581 0.136914
H194  H     H_    0.278934 0.967804 0.718587 0.108290
H195  H     H_    0.303369 0.943151 0.777935 0.134438
H196  H     H_    0.268797 0.899614 0.811853 0.128340
C433  C     C_R   0.225318 0.116127 0.224323 0.133048
C434  C     C_R   0.213493 0.097933 0.258424 -0.136347
C435  C     C_R   0.233401 0.069471 0.278448 -0.107474
C436  C     C_R   0.266865 0.055077 0.265373 -0.065845
C437  C     C_R   0.279716 0.069635 0.231946 -0.107000
C438  C     C_R   0.259478 0.098060 0.212169 -0.135977
H197  H     H_    0.187709 0.100258 0.268765 0.128390
H198  H     H_    0.221746 0.056859 0.303624 0.134743
H199  H     H_    0.281032 0.031945 0.279264 0.108389
H200  H     H_    0.304845 0.057021 0.220172 0.136562
H201  H     H_    0.269342 0.100302 0.186192 0.127909
C439  C     C_R   0.774572 0.883769 0.775644 0.133246
C440  C     C_R   0.786471 0.902131 0.741685 -0.136473
C441  C     C_R   0.766604 0.930641 0.721757 -0.107883
C442  C     C_R   0.733066 0.944890 0.734747 -0.065448
C443  C     C_R   0.720071 0.930158 0.768045 -0.107241
C444  C     C_R   0.740315 0.901690 0.787759 -0.135934
H202  H     H_    0.812250 0.899906 0.731344 0.128467
H203  H     H_    0.778344 0.943376 0.696688 0.134601
H204  H     H_    0.718940 0.968036 0.720853 0.108264
H205  H     H_    0.694849 0.942654 0.779744 0.136729
H206  H     H_    0.730345 0.899260 0.813663 0.128001
C445  C     C_R   0.225213 0.116022 0.775885 0.133350
C446  C     C_R   0.259414 0.098056 0.788023 -0.136533
C447  C     C_R   0.279602 0.069541 0.768360 -0.107256
C448  C     C_R   0.266642 0.054777 0.735073 -0.065220
C449  C     C_R   0.233119 0.069052 0.722022 -0.107878
C450  C     C_R   0.213302 0.097650 0.741917 -0.136278
H207  H     H_    0.269493 0.100571 0.813847 0.128269
H208  H     H_    0.304827 0.057075 0.780077 0.136686
H209  H     H_    0.280831 0.031632 0.721248 0.108248
H210  H     H_    0.221395 0.056303 0.696948 0.134610
H211  H     H_    0.187558 0.100006 0.731516 0.128468
C451  C     C_R   0.775908 0.883953 0.225533 0.133225
C452  C     C_R   0.788158 0.901934 0.259666 -0.136977
C453  C     C_R   0.768541 0.930469 0.279876 -0.106884
C454  C     C_R   0.735131 0.945145 0.267091 -0.065396
C455  C     C_R   0.721930 0.930814 0.233664 -0.108026
C456  C     C_R   0.741861 0.902308 0.213738 -0.135658
H212  H     H_    0.814012 0.899378 0.269665 0.128358
H213  H     H_    0.780359 0.943004 0.305005 0.136959
H214  H     H_    0.721340 0.968293 0.281314 0.108272
H215  H     H_    0.696773 0.943513 0.222030 0.134343
H216  H     H_    0.731526 0.900145 0.187932 0.128241
F1    F     F_    0.620404 0.854102 0.050319 -0.686013
F2    F     F_    0.380654 0.147035 0.950259 -0.685077
F3    F     F_    0.146773 0.619678 0.049782 -0.684950
F4    F     F_    0.853638 0.379968 0.949880 -0.685968
F5    F     F_    0.380603 0.146966 0.049786 -0.685130
F6    F     F_    0.619235 0.852755 0.950182 -0.685482
F7    F     F_    0.853887 0.379736 0.050085 -0.686044
F8    F     F_    0.146974 0.619501 0.950448 -0.684872
F9    F     F_    0.619587 0.146824 0.950136 -0.685132
F10   F     F_    0.379896 0.853701 0.050239 -0.686179
F11   F     F_    0.146316 0.380017 0.949678 -0.686298
F12   F     F_    0.852654 0.619102 0.049906 -0.685581
F13   F     F_    0.379729 0.853907 0.949678 -0.686289
F14   F     F_    0.619404 0.147018 0.049692 -0.685082
F15   F     F_    0.853982 0.620250 0.949578 -0.686122
F16   F     F_    0.146381 0.380059 0.050256 -0.686276
F17   F     F_    0.050201 0.620227 0.853985 -0.685898
F18   F     F_    0.950219 0.380591 0.146980 -0.685045
F19   F     F_    0.050294 0.146205 0.620132 -0.685936
F20   F     F_    0.950237 0.852751 0.380879 -0.684824
F21   F     F_    0.049721 0.380437 0.146806 -0.685039
F22   F     F_    0.950321 0.619101 0.852713 -0.685317
F23   F     F_    0.049623 0.853204 0.380469 -0.685146
F24   F     F_    0.950077 0.146174 0.620171 -0.686071
F25   F     F_    0.949573 0.620048 0.146202 -0.686299
F26   F     F_    0.049849 0.380744 0.852923 -0.685145
F27   F     F_    0.949799 0.146098 0.379793 -0.686301
F28   F     F_    0.049671 0.852717 0.619093 -0.685515
F29   F     F_    0.950143 0.380470 0.853167 -0.685249
F30   F     F_    0.050119 0.619990 0.146345 -0.686260
F31   F     F_    0.949666 0.853865 0.620085 -0.685851
F32   F     F_    0.050299 0.146326 0.379991 -0.686074
F33   F     F_    0.853289 0.049728 0.619665 -0.685228
F34   F     F_    0.145970 0.950101 0.379657 -0.685874
F35   F     F_    0.620152 0.050249 0.146132 -0.685841
F36   F     F_    0.380831 0.950116 0.852699 -0.685426
F37   F     F_    0.147210 0.049997 0.380804 -0.685295
F38   F     F_    0.852730 0.950190 0.619110 -0.684929
F39   F     F_    0.379800 0.050147 0.853946 -0.685916
F40   F     F_    0.619184 0.950359 0.147251 -0.685324
F41   F     F_    0.145839 0.949784 0.620440 -0.686053
F42   F     F_    0.852874 0.049798 0.380687 -0.685594
F43   F     F_    0.380724 0.950010 0.147124 -0.685474
F44   F     F_    0.619933 0.050168 0.853588 -0.686132
F45   F     F_    0.853890 0.949661 0.379866 -0.685935
F46   F     F_    0.147180 0.049851 0.619285 -0.685373
F47   F     F_    0.620306 0.949742 0.853986 -0.686208
F48   F     F_    0.379723 0.049996 0.146019 -0.685838

loop_
_geom_bond_atom_site_label_1
_geom_bond_atom_site_label_2
_ccdc_geom_bond_type
C185  C233  A    
C286  H70   S    
C407  C408  A    
C298  H82   S    
C119  C143  T    
C240  F48   S    
C91   C287  A    
C329  C330  A    
C292  N28   A    
C7    C55   A    
C189  C237  A    
C319  C320  A    
C8    C56   A    
C12   C49   A    
C386  H157  S    
C48   C120  S    
C287  N23   A    
C437  C438  A    
C288  N24   A    
C27   C99   S    
C423  C424  A    
C344  H122  S    
C210  C247  A    
N24   Ni7   S    
C82   C274  A    
N9    N40   A    
C377  H150  S    
C83   C275  A    
C28   C173  A    
C92   C305  A    
C444  H206  S    
N26   Ni5   S    
C334  C335  A    
C351  H128  S    
C367  C368  A    
C152  C200  A    
C270  H54   S    
N47   Ni12  S    
C44   C168  A    
N13   Ni1   S    
C442  H204  S    
C323  C324  A    
C59   C373  S    
C440  H202  S    
C234  C261  A    
C72   C451  S    
C230  F38   S    
C19   C63   A    
C374  C375  A    
C120  C144  T    
C343  C348  A    
C235  F43   S    
C430  H194  S    
C32   C104  S    
C397  C402  A    
C217  C252  A    
C146  C194  A    
C188  C236  A    
N23   N42   A    
C37   C109  S    
C382  H154  S    
C70   C439  S    
C96   C309  A    
C306  H90   S    
C39   C111  S    
C322  H104  S    
C409  C414  A    
C300  H84   S    
C301  H85   S    
C23   C143  S    
C357  H133  S    
C429  H193  S    
C9    C52   A    
C302  N38   A    
C63   C397  S    
C10   C51   A    
C395  C396  A    
C156  H12   S    
C3    C123  S    
C400  C401  A    
C153  C201  A    
C431  H195  S    
C346  H124  S    
C304  N40   A    
C220  C262  A    
C62   C391  S    
N31   N46   A    
N10   Ni1   S    
C109  C133  T    
C442  C443  A    
C78   C241  S    
C15   C54   A    
C271  H55   S    
C238  F46   S    
C157  C205  A    
C310  H94   S    
C339  H118  S    
C285  N21   A    
C342  H121  S    
C276  H60   S    
C74   C245  S    
C415  C416  A    
C75   C267  A    
C162  C210  A    
C335  C336  A    
C361  C362  A    
C289  N25   A    
C146  H2    S    
C79   C271  A    
C355  C360  A    
C80   C272  A    
C420  H186  S    
N40   Ni11  S    
N43   Ni11  S    
C381  H153  S    
C151  C199  A    
C8    C57   A    
C452  C453  A    
C104  C128  T    
N11   Ni3   S    
C30   C102  S    
C330  H111  S    
C297  N33   A    
C375  H148  S    
C350  C351  A    
C399  H168  S    
C230  C263  A    
C222  F30   S    
C313  C318  A    
C281  N17   A    
C364  C365  A    
C115  C139  T    
C354  H131  S    
C211  C257  A    
C95   C310  A    
C84   C276  A    
C406  C407  A    
C293  H77   S    
C290  N26   A    
C419  H185  S    
C2    C71   A    
C218  F26   S    
C291  H75   S    
C387  C388  A    
C333  C334  A    
C272  H56   S    
C417  C418  A    
C229  C264  A    
C289  H73   S    
C317  H100  S    
C106  C130  T    
C37   C180  A    
C362  C363  A    
C38   C179  A    
C12   C132  S    
C147  H3    S    
C353  H130  S    
C455  C456  A    
C13   C133  S    
C320  H102  S    
C41   C113  S    
C340  C341  A    
C189  H45   S    
C159  C207  A    
C363  H138  S    
N20   N37   A    
C170  C218  A    
C84   C281  A    
C310  N46   A    
N16   Ni3   S    
C83   C256  S    
C206  F14   S    
C185  H41   S    
C205  F13   S    
C356  H132  S    
C317  C318  A    
C169  H25   S    
C359  H135  S    
C91   C258  S    
N42   Ni9   S    
C274  N10   A    
C90   C301  A    
C288  H72   S    
C398  H167  S    
C305  N41   A    
C164  C212  A    
C75   C286  A    
C197  C245  A    
C46   C172  A    
C375  C376  A    
C9    C65   A    
C35   C107  S    
C186  H42   S    
C224  F32   S    
C29   C149  A    
C435  C436  A    
C226  F34   S    
C453  C454  A    
C44   C116  S    
C19   C139  S    
C383  C384  A    
C421  C422  A    
C35   C170  A    
C175  C223  A    
C17   C137  S    
C282  H66   S    
C385  C386  A    
C456  H216  S    
C423  H188  S    
C65   C409  S    
C75   C248  S    
C321  H103  S    
C31   C103  S    
C191  C239  A    
C413  H180  S    
C43   C178  A    
C204  F12   S    
C389  C390  A    
C36   C108  S    
C306  N42   A    
C167  C215  A    
C274  H58   S    
C96   C296  A    
C434  C435  A    
N41   Ni10  S    
C368  H142  S    
C40   C112  S    
N25   Ni6   S    
C370  H144  S    
C378  H151  S    
C327  H108  S    
C270  N6    A    
C239  C246  A    
C210  F18   S    
C422  C423  A    
C280  N16   A    
N38   Ni9   S    
C198  C246  A    
C314  H97   S    
N17   Ni5   S    
C359  C360  A    
C42   C164  A    
C192  C240  A    
C66   C415  S    
C279  N15   A    
C451  C456  A    
C303  H87   S    
C385  C390  A    
C4    C124  S    
C19   C66   A    
C237  F45   S    
C88   C293  A    
C161  H17   S    
C403  C408  A    
C26   C146  A    
C58   C367  S    
C408  H176  S    
C97   C121  T    
C2    C50   A    
C316  H99   S    
C406  H174  S    
C8    C128  S    
C23   C62   A    
C311  N47   A    
C337  C338  A    
C190  H46   S    
C52   C331  S    
N22   Ni5   S    
C101  C125  T    
C14   C67   A    
C82   C253  S    
C299  H83   S    
C329  H110  S    
C307  H91   S    
C171  H27   S    
C81   C273  A    
C172  C220  A    
C441  H203  S    
N39   Ni12  S    
C194  F2    S    
C13   C56   A    
C298  N34   A    
C86   C249  S    
C193  F1    S    
C14   C55   A    
C344  C345  A    
N31   Ni8   S    
C23   C70   A    
N12   N17   A    
C112  C136  T    
C155  C203  A    
C27   C174  A    
C398  C399  A    
C388  H159  S    
C85   C312  A    
N1    Ni1   S    
C313  C314  A    
C10   C66   A    
C218  C251  A    
C86   C311  A    
N27   Ni7   S    
C1    C72   A    
C239  F47   S    
N20   Ni8   S    
C316  C317  A    
C268  H52   S    
C283  H67   S    
C314  C315  A    
C347  C348  A    
C374  H147  S    
C30   C191  A    
C439  C440  A    
C450  H211  S    
N29   Ni5   S    
C160  C208  A    
C31   C151  A    
C149  H5    S    
C322  C323  A    
C32   C152  A    
C275  H59   S    
C447  H208  S    
C293  N29   A    
C22   C142  S    
C159  H15   S    
C320  C321  A    
N15   Ni4   S    
C209  C248  A    
C50   C319  S    
C40   C165  A    
C196  F4    S    
C300  N36   A    
C24   C61   A    
C203  C251  A    
C424  H189  S    
C12   C60   A    
C165  C213  A    
C158  H14   S    
C166  C214  A    
C236  F44   S    
C51   C325  S    
C201  C249  A    
C76   C268  A    
C267  H51   S    
C77   C269  A    
C110  C134  T    
C16   C61   A    
C339  C340  A    
C16   C136  S    
C183  C231  A    
C237  C258  A    
C205  C253  A    
C191  H47   S    
C301  N37   A    
C335  H115  S    
C278  H62   S    
C441  C442  A    
C195  C243  A    
C176  C224  A    
C165  H21   S    
N35   Ni11  S    
C381  C382  A    
C102  C126  T    
C175  H31   S    
C439  C444  A    
C44   C177  A    
C222  C243  A    
C71   C445  S    
C43   C167  A    
C99   C123  T    
C449  H210  S    
C215  F23   S    
C366  H141  S    
C80   C243  S    
C214  F22   S    
C190  C238  A    
C168  C216  A    
C213  F21   S    
C338  C339  A    
C21   C58   A    
C83   C282  A    
C404  H172  S    
N1    N44   A    
C401  H170  S    
C212  C258  A    
C384  H156  S    
C33   C188  A    
N33   Ni9   S    
C86   C278  A    
C179  C227  A    
C34   C187  A    
C54   C343  S    
C108  C132  T    
C53   C337  S    
N28   N33   A    
C79   C290  A    
C177  C225  A    
C228  C253  A    
N44   Ni12  S    
C334  H114  S    
C290  H74   S    
C225  F33   S    
C365  C366  A    
C5    C125  S    
C353  C354  A    
C192  H48   S    
C216  C260  A    
N5    Ni2   S    
C235  C250  A    
C7    C127  S    
C340  H119  S    
N28   Ni8   S    
C199  F7    S    
C389  H160  S    
C286  N22   A    
C47   C175  A    
C198  F6    S    
C187  H43   S    
C48   C176  A    
C13   C68   A    
N4    Ni4   S    
C364  H139  S    
C169  C217  A    
C396  H166  S    
C446  H207  S    
C285  H69   S    
C325  C330  A    
C356  C357  A    
C308  N44   A    
N5    N36   A    
C287  H71   S    
C173  C221  A    
N6    N35   A    
C266  N2    A    
N8    Ni3   S    
C223  C263  A    
C416  C417  A    
C207  F15   S    
C318  H101  S    
C224  C264  A    
N27   N34   A    
C332  H112  S    
C60   C379  S    
C352  C353  A    
C96   C261  S    
N32   Ni7   S    
N14   N47   A    
C233  F41   S    
C174  C222  A    
C209  F17   S    
C435  H198  S    
C414  H181  S    
C279  H63   S    
C48   C181  A    
C30   C150  A    
C37   C157  A    
C453  H213  S    
C45   C117  S    
C433  C438  A    
C392  H162  S    
C326  C327  A    
C46   C118  S    
C238  C257  A    
C98   C122  T    
C355  C356  A    
N14   Ni2   S    
C358  H134  S    
C18   C138  S    
C350  H127  S    
C5    C69   A    
N12   Ni4   S    
C387  H158  S    
C376  C377  A    
C379  C384  A    
C418  C419  A    
C409  C410  A    
C2    C122  S    
C451  C452  A    
C25   C97   S    
N24   N41   A    
C38   C110  S    
C166  H22   S    
C145  C193  A    
C434  H197  S    
C25   C184  A    
C341  C342  A    
C202  F10   S    
C93   C264  S    
C26   C183  A    
C201  F9    S    
C94   C263  S    
C214  C255  A    
C31   C162  A    
C445  C446  A    
C160  H16   S    
C327  C328  A    
C163  H19   S    
C89   C260  S    
C193  C241  A    
C268  N4    A    
C11   C59   A    
C90   C259  S    
C45   C171  A    
C269  N5    A    
C154  C202  A    
C61   C385  S    
C92   C257  S    
C227  C254  A    
C331  C336  A    
C34   C154  A    
C18   C72   A    
C411  H178  S    
N4    N21   A    
C28   C148  A    
C87   C294  A    
C280  H64   S    
C402  H171  S    
C373  C374  A    
C158  C206  A    
C20   C65   A    
C231  C242  A    
C33   C105  S    
C38   C158  A    
C448  C449  A    
C315  H98   S    
C428  C429  A    
C3    C51   A    
C227  F35   S    
C73   C246  S    
C164  H20   S    
C179  H35   S    
C369  C370  A    
C161  C209  A    
C328  H109  S    
C180  C228  A    
C337  C342  A    
N19   N38   A    
C371  C372  A    
C95   C295  A    
C326  H107  S    
C226  C259  A    
C117  C141  T    
C315  C316  A    
C10   C130  S    
C358  C359  A    
C56   C355  S    
N9    Ni2   S    
C299  N35   A    
C454  H214  S    
C84   C255  S    
C151  H7    S    
C391  C396  A    
C29   C101  S    
C152  H8    S    
C87   C279  A    
C443  H205  S    
C24   C144  S    
C311  H95   S    
C88   C280  A    
C6    C126  S    
C323  H105  S    
C360  H136  S    
C73   C265  A    
C88   C251  S    
N2    N43   A    
C114  C138  T    
C429  C430  A    
C196  C244  A    
C9    C129  S    
C41   C163  A    
C445  C450  A    
C211  F19   S    
C93   C298  A    
C76   C247  S    
N7    N26   A    
C181  H37   S    
C49   C313  S    
C436  C437  A    
C36   C156  A    
C183  H39   S    
C399  C400  A    
C432  H196  S    
C6    C70   A    
C331  C332  A    
C188  H44   S    
C39   C159  A    
C345  H123  S    
C40   C160  A    
C454  C455  A    
C225  C260  A    
C35   C155  A    
C167  H23   S    
C173  H29   S    
C428  H192  S    
C3    C63   A    
C4    C64   A    
C283  N19   A    
C348  H126  S    
C294  N30   A    
N37   Ni10  S    
C309  N45   A    
C20   C140  S    
C39   C166  A    
C21   C141  S    
C232  C241  A    
C11   C50   A    
C307  N43   A    
C319  C324  A    
C195  F3    S    
N36   Ni12  S    
C42   C189  A    
C111  C135  T    
N7    Ni4   S    
C380  H152  S    
C361  C366  A    
C162  H18   S    
C64   C403  S    
C388  C389  A    
C15   C62   A    
C178  H34   S    
C405  H173  S    
C418  H184  S    
C447  C448  A    
C33   C153  A    
C78   C270  A    
C46   C185  A    
C440  C441  A    
C45   C186  A    
C186  C234  A    
C234  F42   S    
C155  H11   S    
C282  N18   A    
C321  C322  A    
C394  C395  A    
C184  H40   S    
C367  C372  A    
C213  C256  A    
C100  C124  T    
C281  H65   S    
C150  C198  A    
C401  C402  A    
C233  C262  A    
C216  F24   S    
C449  C450  A    
C347  H125  S    
C172  H28   S    
C272  N8    A    
C430  C431  A    
C154  H10   S    
C386  C387  A    
C397  C398  A    
C219  C261  A    
C236  C249  A    
C92   C288  A    
C85   C277  A    
C22   C57   A    
C176  H32   S    
C382  C383  A    
C336  H116  S    
C273  H57   S    
C404  C405  A    
C302  H86   S    
C295  H79   S    
C153  H9    S    
C55   C349  S    
C296  H80   S    
C304  H88   S    
C36   C169  A    
C412  H179  S    
C41   C190  A    
C4    C52   A    
C390  H161  S    
C5    C53   A    
C357  C358  A    
C217  F25   S    
N18   Ni6   S    
C455  H215  S    
C292  H76   S    
C395  H165  S    
C80   C289  A    
C182  H38   S    
N15   N30   A    
C15   C135  S    
C431  C432  A    
C215  C259  A    
C365  H140  S    
C276  N12   A    
C324  H106  S    
C277  N13   A    
C67   C421  S    
C6    C54   A    
C200  F8    S    
C148  H4    S    
N11   N18   A    
C207  C255  A    
C16   C53   A    
C85   C250  S    
C43   C115  S    
C265  H49   S    
C269  H53   S    
C433  C434  A    
C148  C196  A    
C95   C262  S    
C425  C426  A    
C181  C229  A    
C446  C447  A    
C174  H30   S    
C17   C71   A    
C197  F5    S    
C277  H61   S    
C349  C350  A    
C147  C195  A    
C394  H164  S    
C81   C254  S    
C312  H96   S    
C182  C230  A    
C208  F16   S    
C7    C58   A    
C297  H81   S    
C400  H169  S    
C170  H26   S    
C267  N3    A    
C69   C433  S    
C28   C100  S    
C294  H78   S    
C452  H212  S    
C220  F28   S    
C265  N1    A    
C352  H129  S    
C308  H92   S    
C228  F36   S    
C21   C67   A    
C309  H93   S    
C284  N20   A    
N23   Ni8   S    
C26   C98   S    
C47   C182  A    
N3    Ni3   S    
C372  H146  S    
N10   N39   A    
N2    Ni2   S    
C42   C114  S    
C24   C69   A    
C1    C121  S    
C291  N27   A    
C87   C252  S    
C89   C283  A    
N48   Ni11  S    
C180  H36   S    
C93   C291  A    
C90   C284  A    
C77   C242  S    
C94   C292  A    
C312  N48   A    
C426  H191  S    
N45   Ni9   S    
C419  C420  A    
C184  C232  A    
C107  C131  T    
C34   C106  S    
N13   N48   A    
C145  H1    S    
C410  H177  S    
C163  C211  A    
C379  C380  A    
N21   Ni6   S    
C105  C129  T    
C14   C134  S    
C351  C352  A    
C79   C244  S    
C231  F39   S    
C362  H137  S    
C341  H120  S    
C417  H183  S    
N30   Ni6   S    
C278  N14   A    
C20   C64   A    
C168  H24   S    
C271  N7    A    
C415  C420  A    
C363  C364  A    
C325  C326  A    
C22   C68   A    
C32   C161  A    
C29   C192  A    
C305  H89   S    
C393  H163  S    
C275  N11   A    
C349  C354  A    
C200  C248  A    
C212  F20   S    
C273  N9    A    
C89   C302  A    
C17   C59   A    
C77   C300  A    
N3    N22   A    
C18   C60   A    
C78   C299  A    
C202  C250  A    
C221  F29   S    
C422  H187  S    
N16   N29   A    
C157  H13   S    
C448  H209  S    
N34   Ni10  S    
C427  C428  A    
C219  F27   S    
C76   C285  A    
C266  H50   S    
C333  H113  S    
C206  C254  A    
C81   C304  A    
C103  C127  T    
C82   C303  A    
C411  C412  A    
C424  C425  A    
C223  F31   S    
C369  H143  S    
C328  C329  A    
C194  C242  A    
C421  C426  A    
C425  H190  S    
C416  H182  S    
C412  C413  A    
C118  C142  T    
C11   C131  S    
C383  H155  S    
C371  H145  S    
C437  H200  S    
C284  H68   S    
C410  C411  A    
C199  C247  A    
C150  H6    S    
C413  C414  A    
C392  C393  A    
C373  C378  A    
C332  C333  A    
C187  C235  A    
C443  C444  A    
C346  C347  A    
C377  C378  A    
C370  C371  A    
C203  F11   S    
C74   C266  A    
C177  H33   S    
C368  C369  A    
C240  C245  A    
C1    C49   A    
C407  H175  S    
C47   C119  S    
C391  C392  A    
C113  C137  T    
C438  H201  S    
C94   C297  A    
C303  N39   A    
C393  C394  A    
N46   Ni10  S    
C171  C219  A    
N8    N25   A    
C178  C226  A    
C436  H199  S    
C380  C381  A    
C204  C252  A    
C91   C306  A    
C427  C432  A    
C343  C344  A    
C27   C147  A    
N32   N45   A    
C232  F40   S    
C149  C197  A    
C376  H149  S    
C57   C361  S    
N6    Ni1   S    
C345  C346  A    
C338  H117  S    
C25   C145  A    
C208  C256  A    
C296  N32   A    
C403  C404  A    
C73   C308  A    
N19   Ni7   S    
C156  C204  A    
C295  N31   A    
C74   C307  A    
C229  F37   S    
C405  C406  A    
C116  C140  T    
C221  C244  A    
C68   C427  S    
