data_mof_unit_27834.cif
_audit_creation_date              2013-03-05T16:34:53-0500
_audit_creation_method            fapswitch 2.2
_symmetry_space_group_name_H-M    P1
_symmetry_Int_Tables_number       1
_space_group_crystal_system       triclinic
_cell_length_a                    15.069832
_cell_length_b                    9.077885
_cell_length_c                    7.791427
_cell_angle_alpha                 89.867135
_cell_angle_beta                  90.193216
_cell_angle_gamma                 89.754429
_cell_volume                      1065.86561679

loop_
_atom_site_label
_atom_site_type_symbol
_atom_site_description
_atom_site_fract_x
_atom_site_fract_y
_atom_site_fract_z
_atom_type_partial_charge
O1    O     O_R   0.500000 0.288390 0.642760 -0.586142
O2    O     O_R   0.500000 0.711610 0.357240 -0.586109
O3    O     O_R   0.500000 0.711610 0.642760 -0.569932
O4    O     O_R   0.500000 0.288390 0.357240 -0.570025
H1    H     H_    0.921512 0.141383 0.377178 0.153916
H2    H     H_    0.078489 0.858675 0.622626 0.153929
H3    H     H_    0.920201 0.858588 0.622775 0.173252
H4    H     H_    0.079796 0.141499 0.376925 0.173421
C1    C     C_R   0.499867 0.220067 0.500114 0.848087
C2    C     C_R   0.500135 0.779933 0.499886 0.848095
O5    O     O_R   0.370260 0.500000 0.642800 -0.573753
O6    O     O_R   0.629740 0.500000 0.357200 -0.573756
O7    O     O_R   0.629740 0.500000 0.642800 -0.593071
O8    O     O_R   0.370260 0.500000 0.357200 -0.593143
C3    C     C_R   0.328739 0.499324 0.499637 0.862583
C4    C     C_R   0.671261 0.500655 0.500361 0.862576
Cu1   Cu    Cu3+1 0.500000 0.500000 0.669080 0.995182
Cu2   Cu    Cu3+1 0.500000 0.500000 0.330920 0.995119
N1    N     N_1   0.500000 0.500000 0.076820 -0.054568
N2    N     N_1   0.500000 0.500000 0.923180 -0.054508
C5    C     C_R   0.813173 0.628300 0.553719 0.134973
C6    C     C_R   0.186821 0.371728 0.446205 0.135007
C7    C     C_R   0.812892 0.372943 0.450857 0.156082
C8    C     C_R   0.187108 0.627069 0.549102 0.156087
C9    C     C_R   0.767493 0.501015 0.501461 -0.154429
C10   C     C_R   0.232507 0.498986 0.498519 -0.154265
C11   C     C_R   0.906357 0.371239 0.452503 0.053515
C12   C     C_R   0.093641 0.628797 0.547396 0.053479
C13   C     C_R   0.906369 0.628805 0.549447 0.088771
C14   C     C_R   0.093626 0.371245 0.450427 0.088589
C15   C     C_R   0.953088 0.499969 0.500559 0.000921
C16   C     C_R   0.046909 0.500075 0.499327 0.000945
C17   C     C_R   0.954203 0.243407 0.409635 -0.226707
C18   C     C_R   0.045795 0.756646 0.590200 -0.226696
C19   C     C_R   0.953803 0.756740 0.590496 -0.185086
C20   C     C_R   0.046194 0.243326 0.409300 -0.185104
C21   C     C_1   0.499908 0.065407 0.500159 -0.192316
C22   C     C_1   0.500096 0.934593 0.499840 -0.192378
N3    N     N_2   0.765678 0.757756 0.603801 -0.447489
H5    H     H_    0.707668 0.777270 0.536842 0.238444
C23   C     C_3   0.755340 0.775556 0.787246 -0.668440
H6    H     H_    0.712979 0.686834 0.840413 0.251068
H7    H     H_    0.723360 0.883498 0.813890 0.223389
H8    H     H_    0.820842 0.772918 0.852965 0.229475
N4    N     N_2   0.234288 0.242235 0.396164 -0.447538
H9    H     H_    0.292252 0.222603 0.463229 0.238423
C24   C     C_3   0.244698 0.224426 0.212740 -0.668440
H10   H     H_    0.287882 0.312273 0.159955 0.251142
H11   H     H_    0.179276 0.228637 0.146664 0.229604
H12   H     H_    0.275834 0.115765 0.186090 0.223342
N5    N     N_2   0.763061 0.247616 0.397670 -0.427436
H13   H     H_    0.785377 0.197201 0.287446 0.252530
C25   C     C_3   0.741499 0.145601 0.534046 -0.677522
H14   H     H_    0.802843 0.095565 0.588536 0.229765
H15   H     H_    0.699012 0.056497 0.482305 0.227698
H16   H     H_    0.704438 0.202733 0.637553 0.237288
N6    N     N_2   0.236940 0.752382 0.602327 -0.427377
H17   H     H_    0.214600 0.802807 0.712526 0.252539
C26   C     C_3   0.258537 0.854388 0.465966 -0.677750
H18   H     H_    0.197210 0.904437 0.411443 0.229719
H19   H     H_    0.295607 0.797252 0.362484 0.237328
H20   H     H_    0.301022 0.943477 0.517725 0.227700

loop_
_geom_bond_atom_site_label_1
_geom_bond_atom_site_label_2
_geom_bond_distance
_ccdc_geom_bond_type
N4    H9    1.031010 S    
C21   C22   1.187522 T    
O7    Cu1   1.966539 S    
O2    Cu2   1.932359 S    
C8    C12   1.408571 A    
C23   H6    1.110157 S    
C13   C19   1.403328 A    
O1    Cu1   1.932360 S    
N1    N2    1.197076 T    
C5    N3    1.429133 S    
C14   C20   1.403338 A    
C2    C22   1.403978 S    
O4    Cu2   1.931414 S    
C17   C20   1.386285 A    
O5    C3    1.277158 A    
C7    C9    1.404405 A    
Cu1   Cu2   2.634750 S    
C12   C18   1.405115 A    
C26   H18   1.110783 S    
C24   H11   1.111162 S    
O3    C2    1.273072 A    
C25   H14   1.110867 S    
C11   C17   1.405105 A    
C25   H16   1.110769 S    
C14   C16   1.416115 A    
C23   H7    1.110445 S    
N6    H17   1.030793 S    
H3    C19   1.082786 S    
C1    C21   1.403978 S    
C8    C10   1.404438 A    
O8    Cu2   1.966541 S    
O3    Cu1   1.931413 S    
C24   H12   1.110821 S    
C7    C11   1.408537 A    
C25   H15   1.109481 S    
H4    C20   1.082802 S    
C18   C19   1.386319 A    
C23   H8    1.110629 S    
N6    C26   1.446561 S    
C26   H19   1.110707 S    
C7    N5    1.427390 S    
N3    H5    1.031003 S    
C11   C15   1.417410 A    
N5    H13   1.030797 S    
O2    C2    1.274017 A    
C24   H10   1.110550 S    
O6    C4    1.277141 A    
C12   C16   1.417390 A    
C6    N4    1.429102 S    
N4    C24   1.447597 S    
N3    C23   1.447625 S    
Cu2   N1    1.979801 S    
C6    C10   1.407770 A    
O7    C4    1.275891 A    
O6    Cu2   1.965166 S    
C4    C9    1.450214 S    
C5    C9    1.407802 A    
O8    C3    1.275879 A    
O5    Cu1   1.965167 S    
C3    C10   1.450204 S    
C6    C14   1.404960 A    
N5    C25   1.446581 S    
O4    C1    1.273072 A    
C13   C15   1.416141 A    
C5    C13   1.404983 A    
Cu1   N2    1.979801 S    
C15   C16   1.413933 A    
O1    C1    1.274017 A    
H2    C18   1.081011 S    
C8    N6    1.427381 S    
C26   H20   1.109419 S    
H1    C17   1.081012 S    
