data_mof_unit_67580.cif
_audit_creation_date              2013-03-05T15:41:33-0500
_audit_creation_method            fapswitch 2.2
_symmetry_space_group_name_H-M    P1
_symmetry_Int_Tables_number       1
_space_group_crystal_system       triclinic
_cell_length_a                    15.890091
_cell_length_b                    8.759681
_cell_length_c                    7.632431
_cell_angle_alpha                 103.713976
_cell_angle_beta                  94.761444
_cell_angle_gamma                 96.108629
_cell_volume                      1019.76482739

loop_
_atom_site_label
_atom_site_type_symbol
_atom_site_description
_atom_site_fract_x
_atom_site_fract_y
_atom_site_fract_z
_atom_type_partial_charge
O1    O     O_R   0.506070 0.286130 0.619780 -0.569815
O2    O     O_R   0.493930 0.713870 0.380220 -0.568815
O3    O     O_R   0.490300 0.256770 0.308360 -0.572893
O4    O     O_R   0.509700 0.743230 0.691640 -0.577209
C1    C     C_R   0.495574 0.199941 0.453302 0.803533
C2    C     C_R   0.504479 0.800032 0.546683 0.806092
O5    O     O_R   0.386960 0.514660 0.655680 -0.610768
O6    O     O_R   0.613040 0.485340 0.344320 -0.609232
O7    O     O_R   0.371190 0.485310 0.344260 -0.566987
O8    O     O_R   0.628810 0.514690 0.655740 -0.565884
C3    C     C_R   0.340517 0.499598 0.500580 0.804803
C4    C     C_R   0.659624 0.501435 0.500160 0.800962
Cu1   Cu    Cu3+1 0.509330 0.517380 0.684380 1.001641
Cu2   Cu    Cu3+1 0.490670 0.482620 0.315620 1.002001
C5    C     C_2   0.481876 0.030661 0.434287 0.043077
C6    C     C_2   0.518050 0.969260 0.565693 0.044501
C7    C     C_3   0.966367 0.361087 0.530574 -0.139958
C8    C     C_3   0.035585 0.647929 0.495796 -0.118464
C9    C     C_3   0.013935 0.390954 0.370372 0.256898
C10   C     C_3   0.987804 0.617567 0.654936 0.254550
C11   C     C_1   0.251309 0.501813 0.501796 -0.093746
C12   C     C_1   0.749338 0.502605 0.503919 -0.105310
C13   C     C_3   0.037430 0.478172 0.662181 0.244491
C14   C     C_3   0.964847 0.532774 0.362783 0.263209
C15   C     C_3   0.084740 0.505540 0.502951 -0.133230
C16   C     C_3   0.916941 0.503815 0.522577 -0.127477
N1    N     N_2   0.476600 0.456420 0.038510 -0.083096
N2    N     N_2   0.523400 0.543580 0.961490 -0.083712
C17   C     C_1   0.176097 0.503808 0.501633 0.117786
C18   C     C_1   0.825074 0.503690 0.514104 0.124682
N3    N     N_R   0.027284 0.270203 0.210854 0.168742
O9    O     O_R   0.962843 0.175260 0.113762 -0.300429
O10   O     O_R   0.102861 0.262764 0.158564 -0.312023
N4    N     N_R   0.973971 0.741119 0.811424 0.170569
O11   O     O_R   0.037387 0.844598 0.898869 -0.326755
O12   O     O_R   0.897363 0.757052 0.854508 -0.308401
C19   C     C_3   0.937275 0.209235 0.587335 -0.274680
C20   C     C_3   0.859623 0.105513 0.470902 -0.373271
C21   C     C_3   0.831006 0.969592 0.556058 -0.655745
H1    H     H_    0.882345 0.894217 0.562553 0.265251
H2    H     H_    0.814462 0.016865 0.695519 0.291152
H3    H     H_    0.774249 0.893584 0.475190 0.227414
H4    H     H_    0.806308 0.176412 0.461789 0.248733
H5    H     H_    0.875922 0.055569 0.332128 0.281902
H6    H     H_    0.991549 0.139765 0.585224 0.214645
H7    H     H_    0.922335 0.244402 0.729905 0.275065
C22   C     C_3   0.076111 0.814845 0.498996 -0.364623
C23   C     C_3   0.115640 0.823807 0.326031 -0.266653
C24   C     C_3   0.160938 0.989997 0.342984 -0.661339
H8    H     H_    0.116275 0.078745 0.378076 0.263173
H9    H     H_    0.215405 0.018541 0.451135 0.240823
H10   H     H_    0.185208 0.997197 0.212478 0.286890
H11   H     H_    0.162209 0.737481 0.298351 0.266274
H12   H     H_    0.064260 0.795638 0.211767 0.314409
H13   H     H_    0.026251 0.894105 0.517780 0.217539
H14   H     H_    0.125893 0.855331 0.617205 0.239418
N5    N     N_R   0.922841 0.566342 0.201529 0.164893
O13   O     O_R   0.913877 0.462613 0.045950 -0.285182
O14   O     O_R   0.887536 0.695320 0.216525 -0.370904
N6    N     N_R   0.081243 0.446431 0.822569 0.174520
O15   O     O_R   0.122280 0.324020 0.805356 -0.368124
O16   O     O_R   0.087651 0.548226 0.978897 -0.312674
N7    N     N_R   0.416278 0.938563 0.297243 0.108658
O17   O     O_R   0.426448 0.917687 0.126465 -0.365821
O18   O     O_R   0.348446 0.868031 0.343490 -0.400494
N8    N     N_R   0.583958 0.061142 0.702006 0.109414
O19   O     O_R   0.573204 0.086155 0.872861 -0.362857
O20   O     O_R   0.653118 0.126192 0.654678 -0.393558
C25   C     C_3   0.397060 0.367426 0.939005 -0.073072
C26   C     C_3   0.373572 0.211259 0.991429 -0.335281
C27   C     C_3   0.302157 0.103088 0.858717 -0.827157
H15   H     H_    0.244623 0.163649 0.852675 0.304533
H16   H     H_    0.322983 0.068845 0.720987 0.243295
H17   H     H_    0.285511 0.993527 0.904497 0.292573
H18   H     H_    0.430217 0.147747 0.987843 0.299872
H19   H     H_    0.351853 0.232468 0.128025 0.256263
H20   H     H_    0.344623 0.441906 0.961030 0.197947
H21   H     H_    0.402618 0.327748 0.795844 0.205736
C28   C     C_3   0.602682 0.633935 0.060529 -0.076449
C29   C     C_3   0.624968 0.788790 0.004342 -0.331387
C30   C     C_3   0.696044 0.899806 0.133341 -0.835641
H22   H     H_    0.673559 0.942236 0.268163 0.248870
H23   H     H_    0.752810 0.838053 0.146031 0.301350
H24   H     H_    0.714271 0.004552 0.079820 0.300673
H25   H     H_    0.646612 0.765885 0.867780 0.259432
H26   H     H_    0.567978 0.851359 0.007200 0.300599
H27   H     H_    0.597629 0.674221 0.204079 0.203311
H28   H     H_    0.655435 0.560201 0.038682 0.196954

loop_
_geom_bond_atom_site_label_1
_geom_bond_atom_site_label_2
_geom_bond_distance
_ccdc_geom_bond_type
N8    O20   1.301191 A    
N7    O18   1.301121 A    
C25   H20   1.111359 S    
C9    N3    1.458140 S    
C8    C22   1.527470 S    
C28   H27   1.081066 S    
C30   H22   1.110237 S    
C21   H2    1.110949 S    
C23   H12   1.106756 S    
C29   H25   1.104528 S    
O1    C1    1.302105 A    
C7    C16   1.555910 S    
C14   C16   1.546289 S    
C20   C21   1.532169 S    
N5    O14   1.299435 A    
C5    C6    1.360688 D    
C4    C12   1.422366 S    
N6    O16   1.298137 A    
N4    O11   1.299860 A    
O4    Cu1   1.965340 S    
N2    C28   1.459780 S    
C29   H26   1.106427 S    
N3    O9    1.299971 A    
C14   N5    1.457305 S    
C24   H9    1.109257 S    
N3    O10   1.299854 A    
Cu1   N2    2.063105 S    
C26   C27   1.528675 S    
Cu2   N1    2.063104 S    
C8    C10   1.544607 S    
N1    C25   1.460193 S    
C10   N4    1.458592 S    
N8    O19   1.298931 A    
Cu1   Cu2   2.745568 S    
C25   H21   1.079348 S    
O2    C2    1.301924 A    
C8    C15   1.549625 S    
O2    Cu2   1.961890 S    
C28   H28   1.111309 S    
C30   H23   1.108981 S    
C21   H3    1.105694 S    
C15   C17   1.454203 S    
C13   N6    1.456583 S    
O4    C2    1.316465 A    
C21   H1    1.107862 S    
C27   H16   1.110813 S    
C7    C19   1.531786 S    
C11   C17   1.197008 T    
C3    C11   1.420494 S    
C28   C29   1.532364 S    
N6    O15   1.299425 A    
O5    C3    1.312850 A    
O7    Cu2   1.931008 S    
C20   H5    1.109188 S    
C19   C20   1.527829 S    
C22   C23   1.523080 S    
C10   C13   1.531520 S    
O5    Cu1   1.935581 S    
O6    C4    1.317071 A    
C24   H10   1.110523 S    
C7    C13   1.553291 S    
O7    C3    1.309740 A    
O3    Cu2   1.965339 S    
O8    C4    1.306336 A    
C23   C24   1.525229 S    
C16   C18   1.455707 S    
C26   H19   1.105491 S    
C8    C14   1.547686 S    
O1    Cu1   1.961890 S    
C19   H6    1.106212 S    
N1    N2    1.282989 D    
C30   H24   1.110604 S    
C22   H13   1.104094 S    
O6    Cu2   1.935581 S    
C12   C18   1.198382 T    
C29   C30   1.522589 S    
O3    C1    1.316531 A    
O8    Cu1   1.931008 S    
C27   H17   1.110600 S    
C23   H11   1.110554 S    
C9    C14   1.545293 S    
C20   H4    1.109477 S    
N5    O13   1.299507 A    
C10   C16   1.541567 S    
C7    C9    1.548505 S    
N4    O12   1.300119 A    
C13   C15   1.533330 S    
C25   C26   1.531800 S    
C9    C15   1.544779 S    
C1    C5    1.446123 S    
C2    C6    1.445615 S    
N7    O17   1.298760 A    
C27   H15   1.107773 S    
C6    N8    1.438653 S    
C24   H8    1.109066 S    
C26   H18   1.106283 S    
C5    N7    1.439222 S    
C19   H7    1.111236 S    
C22   H14   1.111587 S    
