data_mof_unit_53867.cif
_audit_creation_date              2012-12-10T18:00:20-0500
_audit_creation_method            fapswitch 2.2
_symmetry_space_group_name_H-M    P1
_symmetry_Int_Tables_number       1
_space_group_crystal_system       triclinic
_cell_length_a                    10.788885
_cell_length_b                    9.535231
_cell_length_c                    10.648012
_cell_angle_alpha                 90.225651
_cell_angle_beta                  90.16371
_cell_angle_gamma                 90.002526
_cell_volume                      1095.39605616

loop_
_atom_site_label
_atom_site_type_symbol
_atom_type_description
_atom_site_fract_x
_atom_site_fract_y
_atom_site_fract_z
_atom_type_partial_charge
C1    C     C_R   0.871336 0.499922 0.500117 -0.121431
C2    C     C_R   0.128664 0.500078 0.499883 -0.121431
C3    C     C_R   0.262661 0.500013 0.499869 0.804914
C4    C     C_R   0.737338 0.499987 0.500130 0.804914
C5    C     C_R   0.499988 0.499619 0.259581 0.814783
C6    C     C_R   0.500012 0.500381 0.740419 0.814782
C7    C     C_3   0.601375 0.564818 0.042041 -0.035845
C8    C     C_3   0.398625 0.435182 0.957959 -0.035845
C9    C     C_3   0.600384 0.433321 0.958455 -0.031811
C10   C     C_3   0.399616 0.566678 0.041545 -0.031811
C11   C     C_3   0.500972 0.634978 0.959553 -0.203170
C12   C     C_3   0.499029 0.365022 0.040447 -0.203169
C13   C     C_3   0.499966 0.501291 0.876768 -0.090280
C14   C     C_3   0.500034 0.498709 0.123231 -0.090280
C15   C     C_R   0.425424 0.073998 0.419513 -0.004461
C16   C     C_R   0.574576 0.926002 0.580487 -0.004461
C17   C     C_R   0.574600 0.074718 0.580475 -0.000676
C18   C     C_R   0.425400 0.925282 0.419525 -0.000676
C19   C     C_R   0.064418 0.430863 0.402421 -0.059243
C20   C     C_R   0.935582 0.569136 0.597579 -0.059243
C21   C     C_R   0.934944 0.430664 0.402606 -0.064323
C22   C     C_R   0.065056 0.569336 0.597395 -0.064323
Cu1   Cu    Cu3+1 0.500000 0.640660 0.500000 0.978510
Cu2   Cu    Cu3+1 0.500000 0.359340 0.500000 0.978510
H1    H     H_    0.365656 0.129627 0.354986 0.142252
H2    H     H_    0.634343 0.870373 0.645014 0.142252
H3    H     H_    0.634439 0.130934 0.644979 0.138082
H4    H     H_    0.365560 0.869066 0.355021 0.138082
H5    H     H_    0.501786 0.744711 0.925004 0.166964
H6    H     H_    0.498214 0.255288 0.074996 0.166964
N1    N     N_R   0.500000 0.852070 0.500000 -0.167677
N2    N     N_R   0.500000 0.147930 0.500000 -0.167677
O1    O     O_R   0.319640 0.618740 0.499990 -0.578356
O2    O     O_R   0.680360 0.381260 0.500010 -0.578356
O3    O     O_R   0.680360 0.618740 0.500010 -0.576536
O4    O     O_R   0.319640 0.381260 0.499990 -0.576535
O5    O     O_R   0.499970 0.618770 0.316850 -0.589537
O6    O     O_R   0.500030 0.381230 0.683150 -0.589536
O7    O     O_R   0.500030 0.618770 0.683150 -0.577438
O8    O     O_R   0.499970 0.381230 0.316850 -0.577439
C23   C     C_1   0.712819 0.634960 0.090770 0.281810
N3    N     N_1   0.800659 0.690074 0.129312 -0.239851
C24   C     C_1   0.287181 0.365040 0.909230 0.281809
N4    N     N_1   0.199341 0.309926 0.870688 -0.239850
C25   C     C_1   0.710671 0.361095 0.910086 0.269462
N5    N     N_1   0.797570 0.304332 0.871786 -0.252487
C26   C     C_1   0.289330 0.638905 0.089914 0.269461
N6    N     N_1   0.202430 0.695670 0.128215 -0.252487
C27   C     C_1   0.131337 0.364004 0.300172 0.264256
N7    N     N_1   0.184656 0.310855 0.218716 -0.285164
C28   C     C_1   0.868663 0.635995 0.699828 0.264256
N8    N     N_1   0.815344 0.689145 0.781284 -0.285165
C29   C     C_1   0.867315 0.362876 0.300932 0.280200
N9    N     N_1   0.813364 0.308877 0.220037 -0.262948
C30   C     C_1   0.132685 0.637126 0.699066 0.280201
N10   N     N_1   0.186636 0.691127 0.779961 -0.262947

loop_
_geom_bond_atom_site_label_1
_geom_bond_atom_site_label_2
_ccdc_geom_bond_type
C2    C22   A    
C15   C18   A    
Cu2   O6    S    
C24   N4    T    
C6    O6    A    
C1    C21   A    
C8    C13   S    
C18   N1    A    
C5    O5    A    
C21   C29   S    
C23   N3    T    
C19   C27   S    
C26   N6    T    
C8    C24   S    
C8    C12   S    
C1    C4    S    
C12   H6    S    
C30   N10   T    
Cu2   N2    S    
C2    C3    S    
C4    O3    A    
C15   N2    A    
C25   N5    T    
C16   N1    A    
C7    C11   S    
C11   C13   S    
C5    C14   S    
Cu2   O4    S    
C3    O4    A    
Cu1   O7    S    
C9    C25   S    
C19   C21   A    
C12   C14   S    
C20   C28   S    
Cu1   O3    S    
C7    C23   S    
C16   H2    S    
C9    C12   S    
C4    O2    A    
C15   H1    S    
C10   C11   S    
C3    O1    A    
Cu1   Cu2   S    
C28   N8    T    
C17   H3    S    
C18   H4    S    
C11   H5    S    
C8    C10   S    
C27   N7    T    
C10   C14   S    
C5    O8    A    
C10   C26   S    
C7    C9    S    
C17   N2    A    
C9    C13   S    
C6    O7    A    
C1    C20   A    
C22   C30   S    
Cu2   O8    S    
C2    C19   A    
Cu1   O5    S    
C7    C14   S    
Cu2   O2    S    
Cu1   O1    S    
C29   N9    T    
C20   C22   A    
C16   C17   A    
C6    C13   S    
Cu1   N1    S    
