data_mof_unit_58087.cif
_audit_creation_date              2012-10-26T21:08:08-0400
_audit_creation_method            fapswitch 2.2
_symmetry_space_group_name_H-M    P1
_symmetry_Int_Tables_number       1
_space_group_crystal_system       triclinic
_cell_length_a                    15.859743
_cell_length_b                    10.767439
_cell_length_c                    9.619804
_cell_angle_alpha                 89.776828
_cell_angle_beta                  89.634084
_cell_angle_gamma                 92.336466
_cell_volume                      1641.34915439

loop_
_atom_site_label
_atom_site_type_symbol
_atom_type_description
_atom_site_fract_x
_atom_site_fract_y
_atom_site_fract_z
_atom_type_partial_charge
C1    C     C_R   0.500253 0.262849 0.500316 0.587296
C2    C     C_R   0.270512 0.053239 0.585098 -0.099750
C3    C     C_R   0.269886 0.923955 0.586298 -0.065715
C4    C     C_R   0.340036 0.499760 0.500448 0.517526
C5    C     C_R   0.343798 0.862511 0.558633 -0.051806
C6    C     C_R   0.420099 0.930211 0.529645 0.018908
C7    C     C_R   0.421090 0.061415 0.529247 -0.022061
C8    C     C_R   0.497942 0.128573 0.501187 -0.007032
C9    C     C_R   0.572768 0.066620 0.473800 0.227950
C10   C     C_R   0.569874 0.937982 0.468809 -0.144348
C11   C     C_R   0.495344 0.870408 0.498916 -0.043587
C12   C     C_3   0.083364 0.505596 0.503576 -0.057594
C13   C     C_R   0.614474 0.660640 0.141717 -0.116955
C14   C     C_R   0.673864 0.735390 0.069867 0.255334
C15   C     C_R   0.672238 0.740255 0.925590 0.253993
C16   C     C_R   0.498795 0.736989 0.499682 0.515972
C17   C     C_R   0.613602 0.662757 0.855014 -0.122320
C18   C     C_R   0.555781 0.580043 0.924643 0.116842
C19   C     C_R   0.555915 0.579635 0.073692 0.105282
C20   C     C_R   0.446875 0.424066 0.074696 0.044194
C21   C     C_R   0.446948 0.424015 0.926938 0.040123
C22   C     C_R   0.659966 0.502031 0.499605 0.596248
C23   C     C_3   0.974661 0.618936 0.530953 0.231553
C24   C     C_3   0.969234 0.424791 0.596562 0.238563
C25   C     C_3   0.025799 0.390019 0.472280 -0.174982
C26   C     C_1   0.250443 0.501785 0.501910 0.032426
C27   C     C_1   0.749615 0.503411 0.498758 0.119517
C28   C     C_3   0.027141 0.538965 0.628531 0.193253
C29   C     C_3   0.699771 0.881256 0.745773 -0.038542
C30   C     C_3   0.998541 0.831571 0.558473 -0.048087
C31   C     C_3   0.916762 0.504432 0.500061 -0.018446
C32   C     C_3   0.030732 0.585612 0.406043 0.236829
C33   C     C_3   0.972320 0.470683 0.374341 -0.139425
C34   C     C_1   0.174991 0.503759 0.503283 0.060083
C35   C     C_1   0.825121 0.504061 0.498769 0.103373
C36   C     C_R   0.345214 0.121827 0.556839 -0.098167
Cu1   Cu    Cu3+1 0.499990 0.499990 0.640660 0.987616
Cu2   Cu    Cu3+1 0.500010 0.500010 0.359340 1.014396
H1    H     H_    0.047705 0.295588 0.449410 0.163562
H2    H     H_    0.342844 0.222089 0.556756 0.114172
H3    H     H_    0.212901 0.100599 0.606132 0.138669
H4    H     H_    0.809871 0.813627 0.362887 0.404141
H5    H     H_    0.741260 0.965028 0.726366 0.233224
H6    H     H_    0.635393 0.913966 0.768847 0.111035
H7    H     H_    0.699977 0.824691 0.649583 0.125675
H8    H     H_    0.977433 0.184302 0.864787 0.378198
H9    H     H_    0.027980 0.813781 0.123972 0.390062
H10   H     H_    0.998855 0.872761 0.452646 0.197502
H11   H     H_    0.063171 0.805142 0.586885 0.152156
H12   H     H_    0.211915 0.871014 0.608357 0.160286
H13   H     H_    0.979818 0.904695 0.632101 0.164040
H14   H     H_    0.962919 0.697996 0.856139 0.370784
H15   H     H_    0.800266 0.097984 0.412530 0.397503
H16   H     H_    0.340560 0.762049 0.559586 0.140199
H17   H     H_    0.626544 0.889299 0.445344 0.193060
H18   H     H_    0.403314 0.361672 0.130373 0.126921
H19   H     H_    0.616878 0.669655 0.251016 0.211479
H20   H     H_    0.616733 0.669327 0.745783 0.179177
H21   H     H_    0.403458 0.361577 0.872610 0.125821
H22   H     H_    0.948492 0.443101 0.270204 0.204541
N1    N     N_R   0.500800 0.501210 0.147910 -0.232058
N2    N     N_R   0.500830 0.501290 0.852040 -0.230997
O1    O     O_R   0.499990 0.319640 0.618810 -0.488493
O2    O     O_2   0.721514 0.959125 0.164015 -0.205546
O3    O     O_3   0.756559 0.774958 0.327376 -0.571976
O4    O     O_3   0.733652 0.813784 0.856794 -0.498426
O5    O     O_2   0.874556 0.380296 0.825474 -0.194746
O6    O     O_2   0.871843 0.219391 0.645245 -0.262839
O7    O     O_3   0.005611 0.243783 0.798929 -0.485694
O8    O     O_2   0.141118 0.772083 0.334143 -0.330742
O9    O     O_2   0.116241 0.604941 0.165108 -0.181318
O10   O     O_3   0.999203 0.764602 0.198885 -0.459246
O11   O     O_3   0.938194 0.732233 0.566256 -0.561365
O12   O     O_R   0.500000 0.319660 0.381240 -0.474853
O13   O     O_2   0.106053 0.471899 0.861865 -0.165891
O14   O     O_2   0.128312 0.687922 0.787288 -0.317276
O15   O     O_3   0.983334 0.620891 0.898455 -0.398176
O16   O     O_2   0.671571 0.226333 0.326314 -0.238716
O17   O     O_2   0.686395 0.228575 0.580012 -0.257329
O18   O     O_3   0.750311 0.047155 0.444310 -0.506243
O19   O     O_R   0.379070 0.499980 0.618770 -0.503300
O20   O     O_R   0.379080 0.500000 0.381190 -0.493029
O21   O     O_R   0.500000 0.680340 0.618760 -0.533882
O22   O     O_R   0.500010 0.680360 0.381190 -0.513937
O23   O     O_R   0.620920 0.500000 0.618810 -0.497296
O24   O     O_R   0.620930 0.500020 0.381230 -0.488971
O25   O     O_2   0.833547 0.822733 0.092522 -0.181503
S1    S     S_3+6 0.748899 0.827226 0.163058 0.076017
S2    S     S_3+6 0.926493 0.314638 0.719595 0.080390
S3    S     S_3+6 0.075611 0.683978 0.272900 0.045338
S4    S     S_3+6 0.064694 0.580971 0.797458 0.099289
S5    S     S_3+6 0.671845 0.147156 0.455320 0.042148

loop_
_geom_bond_atom_site_label_1
_geom_bond_atom_site_label_2
_ccdc_geom_bond_type
C30   H13   S    
C1    C8    S    
C7    C36   A    
C16   O22   A    
C20   H18   S    
C24   S2    S    
Cu1   N2    S    
C7    C8    A    
Cu2   O24   S    
C1    O12   A    
C30   H10   S    
C21   H21   S    
C5    C6    A    
C13   H19   S    
C2    H3    S    
C2    C36   A    
O5    S2    D    
C18   C19   A    
C22   O23   A    
C20   N1    A    
H8    O7    S    
C26   C34   T    
C32   S3    S    
C4    O19   A    
C8    C9    A    
H4    O3    S    
C31   C33   S    
C9    C10   A    
O13   S4    D    
C17   H20   S    
Cu2   N1    S    
C13   C14   A    
C12   C32   S    
Cu1   O19   S    
O8    S3    D    
C23   O11   S    
O7    S2    S    
C1    O1    A    
C9    S5    S    
Cu1   O1    S    
C3    H12   S    
C17   C18   A    
C13   C19   A    
C5    H16   S    
C36   H2    S    
H15   O18   S    
C24   C25   S    
C6    C11   A    
C30   O11   S    
C18   N2    A    
O16   S5    D    
C15   O4    S    
C16   O21   A    
C29   H7    S    
C23   C31   S    
O18   S5    S    
Cu1   Cu2   S    
O10   S3    S    
C11   C16   S    
C25   H1    S    
O6    S2    D    
O17   S5    D    
C23   C28   S    
C10   H17   S    
C21   N2    A    
C29   H5    S    
C30   H11   S    
C12   C28   S    
C33   H22   S    
C22   C27   S    
C29   H6    S    
C31   C35   S    
C12   C34   S    
H14   O15   S    
O3    S1    S    
Cu2   O12   S    
Cu1   O23   S    
C15   C17   A    
O15   S4    S    
Cu2   O22   S    
C24   C28   S    
C3    C5    A    
C4    C26   S    
C6    C7    A    
C12   C25   S    
C27   C35   T    
C23   C32   S    
C2    C3    A    
C24   C31   S    
C14   S1    S    
C32   C33   S    
O9    S3    D    
C19   N1    A    
C28   S4    S    
C22   O24   A    
H9    O10   S    
C10   C11   A    
O14   S4    D    
C29   O4    S    
C4    O20   A    
C20   C21   A    
O25   S1    D    
C14   C15   A    
Cu1   O21   S    
O2    S1    D    
Cu2   O20   S    
C25   C33   S    
