data_mof_unit_5186.cif
_audit_creation_date              2012-10-26T20:33:17-0400
_audit_creation_method            fapswitch 2.2
_symmetry_space_group_name_H-M    P1
_symmetry_Int_Tables_number       1
_space_group_crystal_system       triclinic
_cell_length_a                    17.619704
_cell_length_b                    10.879265
_cell_length_c                    9.57536
_cell_angle_alpha                 90.641821
_cell_angle_beta                  90.34813
_cell_angle_gamma                 91.90745
_cell_volume                      1834.32494997

loop_
_atom_site_label
_atom_site_type_symbol
_atom_type_description
_atom_site_fract_x
_atom_site_fract_y
_atom_site_fract_z
_atom_type_partial_charge
C1    C     C_R   0.500790 0.261965 0.498563 0.564372
C2    C     C_R   0.118161 0.567249 0.502401 0.001201
C3    C     C_R   0.487266 0.064922 0.621068 0.005988
C4    C     C_R   0.357449 0.520988 0.499725 0.594372
C5    C     C_R   0.495516 0.127423 0.494611 -0.022347
C6    C     C_R   0.489428 0.057522 0.367509 -0.001701
C7    C     C_R   0.477806 0.929938 0.374487 -0.056463
C8    C     C_R   0.485539 0.868933 0.501185 0.013039
C9    C     C_R   0.484318 0.938095 0.624227 0.050910
C10   C     C_3   0.532817 0.933406 0.751708 -0.252841
C11   C     C_3   0.535970 0.072619 0.749760 -0.242961
C12   C     C_R   0.886722 0.539802 0.502534 0.045328
C13   C     C_R   0.563597 0.534553 0.072902 0.099887
C14   C     C_R   0.443677 0.438097 0.073033 0.114163
C15   C     C_R   0.443819 0.437547 0.922307 0.248109
C16   C     C_R   0.496400 0.737116 0.500776 0.576332
C17   C     C_R   0.563929 0.532005 0.927439 0.109670
C18   C     C_3   0.615455 0.641775 0.916366 -0.274449
C19   C     C_3   0.615340 0.647106 0.076194 -0.113430
C20   C     C_R   0.644461 0.499497 0.500367 0.590392
C21   C     C_R   0.851583 0.453496 0.590180 -0.150273
C22   C     C_R   0.772630 0.434761 0.589704 0.003244
C23   C     C_1   0.968172 0.548832 0.504145 0.087603
C24   C     C_R   0.727934 0.506868 0.500894 0.018908
C25   C     C_R   0.763493 0.593832 0.413848 -0.184746
C26   C     C_R   0.842509 0.611807 0.413245 0.018267
C27   C     C_2   0.387751 0.358864 0.146842 0.284130
C28   C     C_3   0.315110 0.363683 0.847175 -0.227081
C29   C     C_2   0.740763 0.335355 0.678664 0.225330
C30   C     C_2   0.580360 0.761524 0.129617 0.264278
C31   C     C_2   0.875009 0.707214 0.318675 0.242651
C32   C     C_2   0.119586 0.605674 0.763449 0.233903
C33   C     C_2   0.283229 0.652924 0.742511 0.246235
C34   C     C_1   0.036355 0.556315 0.504513 0.072940
C35   C     C_2   0.274801 0.617865 0.243140 0.319930
C36   C     C_2   0.111259 0.544971 0.241396 0.214752
C37   C     C_2   0.505018 0.108516 0.226891 0.226323
C38   C     C_R   0.159485 0.588772 0.627989 -0.021383
C39   C     C_R   0.239769 0.593296 0.624212 -0.068868
C40   C     C_R   0.276990 0.561403 0.498545 0.014435
C41   C     C_R   0.236194 0.571011 0.371247 0.039766
C42   C     C_R   0.156113 0.560904 0.373186 -0.020857
Cu1   Cu    Cu3+1 0.500000 0.499980 0.640670 1.039702
Cu2   Cu    Cu3+1 0.500000 0.500020 0.359330 1.008270
H1    H     H_    0.886358 0.397997 0.657022 0.117729
H2    H     H_    0.728940 0.650680 0.348457 0.128449
H3    H     H_    0.405760 0.281489 0.205828 0.149273
H4    H     H_    0.413110 0.261627 0.854242 0.239819
H5    H     H_    0.287725 0.286011 0.904424 0.183103
H6    H     H_    0.292752 0.359407 0.738726 0.145380
H7    H     H_    0.299147 0.451488 0.896693 0.163756
H8    H     H_    0.773846 0.302293 0.765709 0.109536
H9    H     H_    0.524665 0.786158 0.092392 0.133167
H10   H     H_    0.837967 0.753004 0.246227 0.123796
H11   H     H_    0.143753 0.571066 0.859096 0.124670
H12   H     H_    0.470835 0.877356 0.278898 0.202106
H13   H     H_    0.261509 0.651528 0.847997 0.088672
H14   H     H_    0.251972 0.597904 0.139895 0.163210
H15   H     H_    0.056335 0.586178 0.231103 0.168909
H16   H     H_    0.546084 0.183658 0.213055 0.140282
H17   H     H_    0.501344 0.895171 0.842546 0.180086
H18   H     H_    0.588844 0.893317 0.730363 0.132038
H19   H     H_    0.506681 0.114321 0.840004 0.174630
H20   H     H_    0.593870 0.111187 0.730036 0.201728
H21   H     H_    0.671468 0.618263 0.872460 0.134156
H22   H     H_    0.587472 0.718345 0.863826 0.132381
H23   H     H_    0.671876 0.628987 0.122250 0.133305
N1    N     N_R   0.500470 0.500930 0.147930 -0.274446
N2    N     N_R   0.500480 0.500890 0.852020 -0.214330
N3    N     N_2   0.396707 0.351206 0.845584 -0.465317
O1    O     O_R   0.500000 0.319640 0.618810 -0.460239
O2    O     O_2   0.679305 0.285306 0.652648 -0.520222
O3    O     O_2   0.615370 0.829042 0.211726 -0.518925
O4    O     O_2   0.942319 0.737467 0.320824 -0.497918
O5    O     O_2   0.060048 0.659672 0.770095 -0.464686
O6    O     O_2   0.342174 0.711903 0.721841 -0.468825
O7    O     O_2   0.330784 0.686861 0.252105 -0.498692
O8    O     O_2   0.133516 0.480558 0.145833 -0.509770
O9    O     O_2   0.473829 0.063652 0.123111 -0.548001
O10   O     O_R   0.500010 0.319680 0.381230 -0.563130
O11   O     O_R   0.391250 0.499990 0.618840 -0.459523
O12   O     O_R   0.391260 0.500020 0.381250 -0.460677
O13   O     O_R   0.499990 0.680320 0.618770 -0.488727
O14   O     O_R   0.500000 0.680360 0.381190 -0.481842
O15   O     O_R   0.608740 0.499980 0.618750 -0.474039
O16   O     O_R   0.608750 0.500010 0.381160 -0.509036
O17   O     O_2   0.320272 0.379685 0.143785 -0.528867

loop_
_geom_bond_atom_site_label_1
_geom_bond_atom_site_label_2
_ccdc_geom_bond_type
C17   N2    A    
C22   C29   S    
Cu1   O13   S    
C41   C42   A    
C36   C42   S    
C36   H15   S    
C32   O5    D    
C7    C8    A    
C18   H21   S    
C37   O9    D    
C12   C23   S    
C1    O1    A    
C35   H14   S    
C1    C5    S    
Cu2   O12   S    
C5    C6    A    
C28   H7    S    
C16   O14   A    
C18   C19   S    
C28   H6    S    
C4    O11   A    
C20   C24   S    
C8    C9    A    
C20   O16   A    
Cu1   O1    S    
C19   H23   S    
C32   C38   S    
C14   C27   S    
C9    C10   S    
C32   H11   S    
C29   O2    D    
C2    C34   S    
C26   C31   S    
C8    C16   S    
C21   C22   A    
C10   H18   S    
C7    H12   S    
Cu2   O16   S    
C21   H1    S    
C15   N2    A    
C30   H9    S    
C13   C19   S    
Cu1   O15   S    
C4    C40   S    
Cu2   O10   S    
C24   C25   A    
C11   H20   S    
C39   C40   A    
C30   O3    D    
C31   O4    D    
C3    C5    A    
C25   C26   A    
C12   C21   A    
C35   O7    D    
C16   O13   A    
C12   C26   A    
Cu1   Cu2   S    
C3    C9    A    
C28   H5    S    
C2    C38   A    
C33   O6    D    
C23   C34   T    
C20   O15   A    
C17   C18   S    
C6    C37   S    
C33   C39   S    
C27   O17   D    
C40   C41   A    
Cu1   O11   S    
C22   C24   A    
Cu2   N1    S    
C10   H17   S    
C27   H3    S    
C15   N3    S    
C33   H13   S    
C28   N3    S    
H4    N3    S    
Cu2   O14   S    
C6    C7    A    
C18   H22   S    
C11   H19   S    
C13   C17   A    
C36   O8    D    
C38   C39   A    
C2    C42   A    
C31   H10   S    
C35   C41   S    
C37   H16   S    
C3    C11   S    
C10   C11   S    
C4    O12   A    
Cu1   N2    S    
C1    O10   A    
C14   N1    A    
C14   C15   A    
C19   C30   S    
C25   H2    S    
C29   H8    S    
C13   N1    A    
