data_mof_unit_19819.cif
_audit_creation_date              2013-03-05T16:45:22-0500
_audit_creation_method            fapswitch 2.2
_symmetry_space_group_name_H-M    P1
_symmetry_Int_Tables_number       1
_space_group_crystal_system       triclinic
_cell_length_a                    8.894035
_cell_length_b                    10.686703
_cell_length_c                    9.883928
_cell_angle_alpha                 89.764422
_cell_angle_beta                  90.00661
_cell_angle_gamma                 90.055676
_cell_volume                      939.438313907

loop_
_atom_site_label
_atom_site_type_symbol
_atom_site_description
_atom_site_fract_x
_atom_site_fract_y
_atom_site_fract_z
_atom_type_partial_charge
O1    O     O_R   0.500020 0.316790 0.614690 -0.612976
O2    O     O_R   0.500000 0.316760 0.385350 -0.616429
C1    C     C_R   0.496220 0.260030 0.500428 0.869724
O3    O     O_R   0.285350 0.500020 0.614650 -0.594745
O4    O     O_R   0.285340 0.499980 0.385310 -0.601652
C2    C     C_R   0.218780 0.499988 0.499986 0.922567
Zn1   Zn    Zn3+2 0.500010 0.500020 0.653130 1.055334
Zn2   Zn    Zn3+2 0.499990 0.499980 0.346870 1.017133
O5    O     O_R   0.500000 0.683240 0.614650 -0.590161
O6    O     O_R   0.499980 0.683210 0.385310 -0.626926
O7    O     O_R   0.714660 0.500020 0.614690 -0.597856
O8    O     O_R   0.714650 0.499980 0.385350 -0.608050
C3    C     C_R   0.496280 0.739880 0.499927 0.913958
C4    C     C_R   0.781220 0.500152 0.500035 0.952288
C5    C     C_1   0.065441 0.500101 0.500026 -0.045600
C6    C     C_1   0.934561 0.500174 0.500064 -0.046806
C7    C     C_R   0.485541 0.063240 0.624178 0.036876
C8    C     C_R   0.474839 0.128516 0.502272 -0.104621
C9    C     C_R   0.437328 0.065141 0.382858 -0.124735
H1    H     H_    0.417131 0.114639 0.288703 0.194185
C10   C     C_R   0.437456 0.935711 0.382502 -0.140635
H2    H     H_    0.417075 0.887100 0.288271 0.186919
C11   C     C_R   0.475664 0.871293 0.501407 -0.061280
C12   C     C_R   0.487878 0.935412 0.623445 0.018046
C13   C     C_3   0.603699 0.927698 0.734830 0.031840
C14   C     C_3   0.599278 0.071698 0.736305 0.037194
H3    H     H_    0.705768 0.118280 0.704779 0.175722
C15   C     C_R   0.367850 0.499874 0.071149 0.125554
N1    N     N_R   0.499010 0.499140 0.142800 -0.145543
C16   C     C_R   0.630302 0.511737 0.071729 -0.040965
H4    H     H_    0.735880 0.519449 0.125154 0.217131
C17   C     C_R   0.630282 0.511811 0.928095 0.013940
H5    H     H_    0.735753 0.519695 0.874562 0.222362
N2    N     N_R   0.499010 0.499180 0.857150 -0.136233
C18   C     C_R   0.367765 0.501041 0.928636 0.175812
C19   C     C_3   0.245137 0.405326 0.921621 0.013126
C20   C     C_3   0.247009 0.402128 0.076511 0.032018
H6    H     H_    0.282045 0.317529 0.872228 0.168990
H7    H     H_    0.286736 0.312064 0.120618 0.133421
N3    N     N_R   0.107405 0.447006 0.138448 0.251381
O9    O     O_R   0.004921 0.366579 0.174319 -0.358040
O10   O     O_R   0.081342 0.566074 0.153277 -0.340286
C21   C     C_2   0.548393 0.863242 0.862950 1.029863
O11   O     O_2   0.427984 0.807763 0.864453 -0.580542
O12   O     O_R   0.636274 0.868408 0.980078 -0.724747
H8    H     H_    0.588632 0.822185 0.058996 0.337815
N4    N     N_R   0.748698 0.878284 0.686548 0.196925
O13   O     O_R   0.811638 0.782903 0.746143 -0.319397
O14   O     O_R   0.812790 0.925615 0.579438 -0.376923
N5    N     N_R   0.535195 0.126252 0.859412 0.216139
O15   O     O_R   0.615216 0.203568 0.930857 -0.352459
O16   O     O_R   0.398440 0.100276 0.897512 -0.393422
N6    N     N_R   0.104783 0.454316 0.864418 0.248653
O17   O     O_R   0.994728 0.377585 0.839455 -0.357703
O18   O     O_R   0.087177 0.573242 0.839892 -0.296190

loop_
_geom_bond_atom_site_label_1
_geom_bond_atom_site_label_2
_geom_bond_distance
_ccdc_geom_bond_type
O4    Zn2   1.946586 S    
N5    O16   1.302634 A    
C21   O11   1.223647 D    
N1    C16   1.369024 A    
N4    O14   1.302587 A    
C19   C20   1.531249 S    
C13   N4    1.474197 S    
Zn1   O7    1.946587 S    
C18   C19   1.496335 S    
Zn2   O8    1.946665 S    
C11   C12   1.393882 A    
C17   H5    1.080097 S    
C13   C21   1.520632 S    
C14   N5    1.466943 S    
C19   H6    1.109431 S    
C7    C8    1.393084 A    
C2    C5    1.363803 S    
C20   H7    1.112861 S    
O1    Zn1   1.996177 S    
N6    O17   1.300553 A    
C16   C17   1.419663 A    
C21   O12   1.398009 S    
C14   H3    1.113475 S    
C16   H4    1.080494 S    
C15   C20   1.498821 S    
O3    Zn1   1.946665 S    
C7    C14   1.503362 S    
Zn2   O6    1.996177 S    
N3    O9    1.300512 A    
C9    C10   1.383193 A    
O8    C4    1.278803 A    
N5    O15   1.300549 A    
C20   N3    1.466354 S    
O2    C1    1.287132 A    
N6    O18   1.302451 A    
C10   C11   1.401540 A    
O4    C2    1.278790 A    
N2    C18   1.364758 A    
Zn1   N2    2.016523 S    
C4    C6    1.363824 S    
C7    C12   1.366290 A    
Zn2   N1    2.017088 S    
C5    C6    1.164052 T    
N4    O13   1.302076 A    
O12   H8    1.014139 S    
C12   C13   1.509683 S    
C3    C11   1.416606 S    
C1    C8    1.418116 S    
O3    C2    1.278609 A    
C8    C9    1.403241 A    
O7    C4    1.278601 A    
Zn1   O5    1.993078 S    
O5    C3    1.283596 A    
C15   N1    1.364626 A    
C19   N6    1.466530 S    
C13   C14   1.539560 S    
C10   H2    1.083488 S    
O2    Zn2   1.993080 S    
C9    H1    1.083627 S    
C15   C18   1.408589 A    
N3    O10   1.302478 A    
O1    C1    1.284570 A    
O6    C3    1.287215 A    
C17   N2    1.368709 A    
