data_mof_unit_65326.cif
_audit_creation_date              2012-12-10T21:21:38-0500
_audit_creation_method            fapswitch 2.2
_symmetry_space_group_name_H-M    P1
_symmetry_Int_Tables_number       1
_space_group_crystal_system       triclinic
_cell_length_a                    17.575384
_cell_length_b                    16.82828
_cell_length_c                    23.48216
_cell_angle_alpha                 89.826959
_cell_angle_beta                  91.292274
_cell_angle_gamma                 90.170383
_cell_volume                      6943.33800278

loop_
_atom_site_label
_atom_site_type_symbol
_atom_type_description
_atom_site_fract_x
_atom_site_fract_y
_atom_site_fract_z
_atom_type_partial_charge
C1    C     C_R   0.353911 0.500001 0.499795 1.024538
C2    C     C_R   0.646076 0.500085 0.500249 1.024258
C3    C     C_R   0.522826 0.564815 0.236138 -0.120427
C4    C     C_R   0.467036 0.435720 0.762537 -0.118423
C5    C     C_R   0.525758 0.567619 0.295290 0.301012
C6    C     C_R   0.466345 0.433673 0.703393 0.295705
C7    C     C_R   0.501234 0.500764 0.326866 -0.099174
C8    C     C_R   0.496283 0.498964 0.672904 -0.094755
C9    C     C_R   0.475735 0.432337 0.297997 -0.184230
C10   C     C_R   0.524634 0.565398 0.702667 -0.183212
C11   C     C_R   0.473066 0.430466 0.239001 -0.070547
C12   C     C_R   0.524857 0.566645 0.761696 -0.072191
C13   C     C_R   0.496343 0.496767 0.208172 0.235842
C14   C     C_R   0.496422 0.501659 0.791487 0.238543
C15   C     C_R   0.847495 0.501734 0.552875 0.164750
C16   C     C_R   0.152226 0.488257 0.448504 0.165571
C17   C     C_R   0.155691 0.514076 0.551393 0.176671
C18   C     C_R   0.844545 0.498871 0.448319 0.176843
C19   C     C_R   0.768125 0.501067 0.552589 0.238782
C20   C     C_R   0.231539 0.490641 0.448330 0.238379
C21   C     C_R   0.234998 0.512296 0.551255 0.199103
C22   C     C_R   0.765249 0.499132 0.448429 0.197147
C23   C     C_R   0.727751 0.500222 0.500437 -0.254674
C24   C     C_R   0.272222 0.500347 0.499846 -0.254061
C25   C     C_R   0.885370 0.500394 0.500625 -0.093798
C26   C     C_R   0.114583 0.500643 0.500092 -0.093161
C27   C     C_R   0.501083 0.500333 0.389147 0.978398
C28   C     C_R   0.498503 0.499659 0.610779 0.978916
C29   C     C_1   0.966143 0.500405 0.500586 -0.021385
C30   C     C_1   0.033822 0.500427 0.500350 -0.022994
C31   C     C_R   0.450101 0.833064 0.464420 -0.260604
C32   C     C_R   0.549790 0.166981 0.535919 -0.261817
C33   C     C_R   0.550018 0.833155 0.535288 -0.260621
C34   C     C_R   0.450518 0.166597 0.464619 -0.261066
C35   C     C_R   0.450719 0.749140 0.464795 0.392788
C36   C     C_R   0.548983 0.250914 0.535497 0.390408
C37   C     C_R   0.549576 0.749298 0.534865 0.370617
C38   C     C_R   0.450777 0.250455 0.465008 0.369468
C39   C     C_R   0.499975 0.876107 0.499937 0.047139
C40   C     C_R   0.500347 0.123784 0.500190 0.047341
C41   C     C_1   0.500111 0.963548 0.500023 0.029624
C42   C     C_1   0.500314 0.036342 0.500162 0.029405
C43   C     C_R   0.546817 0.454307 0.880690 0.543884
C44   C     C_R   0.443277 0.541749 0.119024 0.544823
C45   C     C_R   0.446086 0.548931 0.879143 0.570153
C46   C     C_R   0.544933 0.448261 0.120264 0.569864
C47   C     C_R   0.445964 0.551842 0.939117 -0.104819
C48   C     C_R   0.543438 0.443925 0.060372 -0.103738
C49   C     C_R   0.494743 0.498701 0.969752 -0.093897
C50   C     C_R   0.494394 0.496792 0.029778 -0.093817
C51   C     C_R   0.544101 0.447504 0.940256 -0.076524
C52   C     C_R   0.445060 0.547892 0.059349 -0.076339
C53   C     C_R   0.399414 0.605517 0.969200 0.247648
C54   C     C_R   0.588865 0.389212 0.030363 0.247681
C55   C     C_R   0.399405 0.603667 0.029050 0.148043
C56   C     C_R   0.588885 0.390957 0.970543 0.148859
H1    H     H_    0.541826 0.615384 0.211530 0.166416
H2    H     H_    0.444142 0.386231 0.786353 0.165508
H3    H     H_    0.457088 0.380290 0.320947 0.217259
H4    H     H_    0.547455 0.616147 0.680380 0.215858
H5    H     H_    0.452811 0.377650 0.217139 0.165109
H6    H     H_    0.547425 0.617781 0.784380 0.163034
H7    H     H_    0.410710 0.864424 0.436285 0.187497
H8    H     H_    0.588956 0.135732 0.564297 0.187650
H9    H     H_    0.589666 0.864577 0.563195 0.188085
H10   H     H_    0.411114 0.135055 0.436588 0.188126
N1    N     N_R   0.496986 0.502357 0.852113 -0.363289
N2    N     N_R   0.494270 0.494880 0.147518 -0.362315
N3    N     N_R   0.500000 0.707230 0.500000 -0.143094
N4    N     N_R   0.500000 0.292770 0.500000 -0.143450
O1    O     O_R   0.389110 0.566570 0.500000 -0.588321
O2    O     O_R   0.610890 0.433430 0.500000 -0.590617
O3    O     O_R   0.610890 0.566570 0.500000 -0.571069
O4    O     O_R   0.389110 0.433430 0.500000 -0.571945
O5    O     O_R   0.499970 0.566560 0.416150 -0.560396
O6    O     O_R   0.500030 0.433440 0.583850 -0.561427
O7    O     O_R   0.500030 0.566560 0.583850 -0.605184
O8    O     O_R   0.499970 0.433440 0.416150 -0.608127
O9    O     O_2   0.599016 0.414116 0.850946 -0.496775
O10   O     O_2   0.390987 0.581528 0.148947 -0.497241
O11   O     O_2   0.395346 0.590486 0.847300 -0.464585
O12   O     O_2   0.597361 0.408411 0.151724 -0.467748
Zn1   Zn    Zn3+2 0.500000 0.588860 0.500000 1.081467
Zn2   Zn    Zn3+2 0.500000 0.411140 0.500000 1.078806
Br1   Br    Br    0.339295 0.688016 0.931716 -0.400384
Br2   Br    Br    0.646403 0.304940 0.068037 -0.402976
Br3   Br    Br    0.380470 0.697237 0.413776 -0.384174
Br4   Br    Br    0.618409 0.302776 0.587059 -0.380483
Br5   Br    Br    0.621667 0.697916 0.584499 -0.461749
Br6   Br    Br    0.378706 0.301304 0.415276 -0.461077
N5    N     N_2   0.355327 0.660199 0.059091 -0.244444
H11   H     H_    0.301084 0.669714 0.042968 0.269472
C57   C     C_3   0.395603 0.732519 0.074305 -0.594705
H12   H     H_    0.410411 0.766511 0.035466 0.239599
H13   H     H_    0.448538 0.718611 0.099079 0.239372
H14   H     H_    0.358930 0.770033 0.101084 0.246860
N6    N     N_2   0.632158 0.333701 0.940537 -0.244267
H15   H     H_    0.686015 0.322870 0.956964 0.269553
C58   C     C_3   0.590606 0.262375 0.924804 -0.595100
H16   H     H_    0.574676 0.228479 0.963422 0.239464
H17   H     H_    0.626827 0.224229 0.898130 0.246796
H18   H     H_    0.538243 0.277590 0.899746 0.239522
Br7   Br    Br    0.567638 0.662966 0.328607 -0.384638
Br8   Br    Br    0.419687 0.341992 0.668258 -0.393358
N7    N     N_2   0.888525 0.502712 0.605873 -0.261171
H19   H     H_    0.936415 0.467527 0.607127 0.230350
C59   C     C_3   0.902186 0.581472 0.628437 -0.662958
H20   H     H_    0.937230 0.616721 0.598733 0.218789
H21   H     H_    0.932827 0.576951 0.670181 0.240935
H22   H     H_    0.847530 0.612767 0.634908 0.281498
N8    N     N_2   0.111114 0.474164 0.396516 -0.263180
H23   H     H_    0.061079 0.505424 0.391843 0.231587
C60   C     C_3   0.102622 0.390959 0.382358 -0.660558
H24   H     H_    0.069319 0.359804 0.415368 0.218347
H25   H     H_    0.159176 0.362224 0.379239 0.283359
H26   H     H_    0.072382 0.385120 0.340553 0.238642
N9    N     N_2   0.118025 0.529093 0.603346 -0.259165
H27   H     H_    0.069228 0.496231 0.608987 0.230903
C61   C     C_3   0.107942 0.612569 0.615520 -0.660941
H28   H     H_    0.071342 0.640788 0.582033 0.216915
H29   H     H_    0.163773 0.643628 0.617514 0.276367
H30   H     H_    0.080540 0.619263 0.657367 0.241355
N10   N     N_2   0.882538 0.498207 0.395391 -0.258055
H31   H     H_    0.929763 0.534527 0.394044 0.229647
C62   C     C_3   0.896133 0.419533 0.373265 -0.665384
H32   H     H_    0.933582 0.385484 0.403137 0.217627
H33   H     H_    0.924130 0.424316 0.331476 0.243445
H34   H     H_    0.841603 0.386872 0.367003 0.276849
Br9   Br    Br    0.715368 0.498966 0.623806 -0.402702
Br10  Br    Br    0.283487 0.486176 0.376856 -0.402634
Br11  Br    Br    0.291971 0.525046 0.621856 -0.444239
Br12  Br    Br    0.708643 0.499377 0.377097 -0.444068

loop_
_geom_bond_atom_site_label_1
_geom_bond_atom_site_label_2
_ccdc_geom_bond_type
C19   Br9   S    
C38   N4    A    
C57   H12   S    
C37   N3    A    
C41   C42   T    
C19   C23   A    
N8    H23   S    
C27   O8    A    
C43   C51   A    
O6    Zn2   S    
C5    Br7   S    
N6    H15   S    
C33   H9    S    
N10   H31   S    
C39   C41   S    
C36   Br4   S    
C15   C19   A    
N7    C59   S    
C1    O1    A    
C34   C40   A    
C1    O4    A    
C32   C36   A    
C16   C20   A    
C48   C50   A    
N9    C61   S    
C27   O5    A    
N10   C62   S    
O7    Zn1   S    
C43   O9    S    
C7    C27   S    
C51   C56   A    
C45   C47   A    
C21   Br11  S    
C55   N5    S    
C46   O12   S    
C35   Br3   S    
C20   C24   A    
C49   C51   A    
C45   N1    A    
C62   H34   S    
C50   C52   A    
C14   N1    S    
C6    Br8   S    
N4    Zn2   S    
C3    C13   A    
C52   C55   A    
C17   N9    S    
C18   N10   S    
C47   C53   A    
C60   H26   S    
C44   C52   A    
C61   H29   S    
C57   H13   S    
C34   C38   A    
C25   C29   S    
C59   H21   S    
C34   H10   S    
C18   C25   A    
C56   N6    S    
C2    O2    A    
N6    C58   S    
C36   N4    A    
O1    Zn1   S    
C53   C55   A    
C16   C26   A    
C46   C48   A    
C31   H7    S    
C44   O10   S    
C32   H8    S    
C4    C6    A    
C20   Br10  S    
N5    H11   S    
C54   Br2   S    
C6    C8    A    
C3    C5    A    
C33   C37   A    
C9    H3    S    
C48   C54   A    
C10   H4    S    
C46   N2    A    
C29   C30   T    
N3    Zn1   S    
N5    C57   S    
C12   H6    S    
C58   H16   S    
C59   H20   S    
N8    C60   S    
C33   C39   A    
C28   O7    A    
C9    C11   A    
O2    Zn2   S    
C2    O3    A    
C10   C12   A    
C3    H1    S    
C8    C10   A    
C58   H17   S    
C12   C14   A    
C26   C30   S    
C57   H14   S    
C62   H32   S    
C8    C28   S    
C59   H22   S    
C31   C35   A    
C44   N2    A    
C17   C26   A    
C28   O6    A    
C5    C7    A    
C60   H24   S    
C61   H30   S    
C7    C9    A    
C22   Br12  S    
C18   C22   A    
C45   O11   S    
O4    Zn2   S    
C11   H5    S    
C61   H28   S    
C54   C56   A    
C47   C49   A    
N7    H19   S    
C38   Br6   S    
C37   Br5   S    
C15   N7    S    
N9    H27   S    
C11   C13   A    
O5    Zn1   S    
C40   C42   S    
C31   C39   A    
C32   C40   A    
C4    C14   A    
C17   C21   A    
C15   C25   A    
O8    Zn2   S    
C58   H18   S    
C35   N3    A    
C1    C24   S    
C43   N1    A    
C49   C50   A    
C21   C24   A    
C4    H2    S    
C2    C23   S    
C62   H33   S    
C22   C23   A    
C53   Br1   S    
O3    Zn1   S    
C16   N8    S    
C60   H25   S    
C13   N2    S    
