data_mof_unit_52114.cif
_audit_creation_date              2012-12-10T16:47:50-0500
_audit_creation_method            fapswitch 2.2
_symmetry_space_group_name_H-M    P1
_symmetry_Int_Tables_number       1
_space_group_crystal_system       triclinic
_cell_length_a                    7.842808
_cell_length_b                    8.596272
_cell_length_c                    10.667003
_cell_angle_alpha                 92.440199
_cell_angle_beta                  84.144031
_cell_angle_gamma                 93.775525
_cell_volume                      713.386218377

loop_
_atom_site_label
_atom_site_type_symbol
_atom_type_description
_atom_site_fract_x
_atom_site_fract_y
_atom_site_fract_z
_atom_type_partial_charge
Br1   Br    Br    0.787826 0.033227 0.581563 -0.407440
Br2   Br    Br    0.960459 0.689502 0.652146 -0.395135
C1    C     C_R   0.545678 0.794516 0.502466 0.890995
C2    C     C_2   0.569934 0.957441 0.521953 0.102466
C3    C     C_3   0.883413 0.745305 0.039924 -0.275972
C4    C     C_3   0.952368 0.312629 0.288455 -0.088669
C5    C     C_2   0.434976 0.042289 0.508739 -0.436716
C6    C     C_R   0.500759 0.508239 0.737432 0.965025
C7    C     C_R   0.455235 0.205898 0.507671 0.947666
C8    C     C_R   0.501538 0.502659 0.262572 0.938240
C9    C     C_2   0.644865 0.567318 0.059425 0.546193
C10   C     C_2   0.507121 0.504134 0.129276 -0.425272
C11   C     C_2   0.648456 0.542553 0.923205 -0.259974
C12   C     C_2   0.503131 0.542944 0.868771 -0.381792
H1    H     H_    0.397977 0.444954 0.088631 0.116294
H2    H     H_    0.030820 0.231761 0.226699 0.120457
H3    H     H_    0.769429 0.518140 0.869512 0.211055
H4    H     H_    0.383609 0.575737 0.920838 0.156821
H5    H     H_    0.310808 0.990592 0.486438 0.199240
H6    H     H_    0.802556 0.825052 0.995696 0.183446
H7    H     H_    0.968116 0.683066 0.967316 0.182878
H8    H     H_    0.967786 0.818652 0.099124 0.189473
H9    H     H_    0.945983 0.419742 0.234776 0.179951
H10   H     H_    0.824582 0.251920 0.309845 0.181428
N1    N     N_2   0.950320 0.457950 0.466680 0.171763
N2    N     N_2   0.049680 0.542050 0.533320 0.115476
O1    O     O_R   0.389250 0.738570 0.508180 -0.628919
O2    O     O_3   0.033973 0.346067 0.398080 -0.498519
O3    O     O_R   0.678390 0.711630 0.486820 -0.564371
O4    O     O_R   0.355470 0.513470 0.691600 -0.616083
O5    O     O_R   0.644610 0.486520 0.670240 -0.587796
O6    O     O_R   0.321610 0.288370 0.513180 -0.560698
O7    O     O_R   0.610750 0.261430 0.491820 -0.596833
O8    O     O_R   0.355390 0.513480 0.329760 -0.597755
O9    O     O_R   0.644530 0.486530 0.308400 -0.613511
O10   O     O_3   0.783293 0.638235 0.117839 -0.605103
Zn1   Zn    Zn3+2 0.306940 0.517990 0.514260 1.075201
Zn2   Zn    Zn3+2 0.693060 0.482010 0.485740 1.066491

loop_
_geom_bond_atom_site_label_1
_geom_bond_atom_site_label_2
_ccdc_geom_bond_type
O3    Zn2   S    
C9    C10   D    
C10   H1    S    
N2    Zn1   S    
C8    O9    A    
N1    Zn2   S    
O8    Zn1   S    
C12   H4    S    
O7    Zn2   S    
O5    Zn2   S    
C11   H3    S    
Br1   C2    S    
C4    H10   S    
C1    O1    A    
C6    O4    A    
C8    O8    A    
C3    H6    S    
C11   C12   D    
N1    O2    S    
C7    O7    A    
C9    C11   S    
C8    C10   S    
O1    Zn1   S    
C2    C5    D    
C4    H9    S    
C9    O10   S    
C5    H5    S    
C4    H2    S    
C1    C2    S    
C3    O10   S    
C5    C7    S    
O9    Zn2   S    
C3    H7    S    
Br2   N2    S    
C1    O3    A    
C6    C12   S    
C7    O6    A    
N1    N2    D    
O6    Zn1   S    
C6    O5    A    
C4    O2    S    
C3    H8    S    
O4    Zn1   S    
