data_mof_unit_63578.cif
_audit_creation_date              2012-12-11T14:15:34-0500
_audit_creation_method            fapswitch 2.2
_symmetry_space_group_name_H-M    P1
_symmetry_Int_Tables_number       1
_space_group_crystal_system       triclinic
_cell_length_a                    8.288303
_cell_length_b                    15.04976
_cell_length_c                    16.377923
_cell_angle_alpha                 95.911233
_cell_angle_beta                  91.933419
_cell_angle_gamma                 99.366564
_cell_volume                      2002.32054475

loop_
_atom_site_label
_atom_site_type_symbol
_atom_type_description
_atom_site_fract_x
_atom_site_fract_y
_atom_site_fract_z
_atom_type_partial_charge
Ba1   Ba    Ba6+2 0.854080 0.543710 0.461380 1.662604
Ba2   Ba    Ba6+2 0.335760 0.456360 0.538630 1.637571
Br1   Br    Br    0.750663 0.845453 0.337807 -0.561200
Br2   Br    Br    0.630869 0.980796 0.196587 -0.614825
C1    C     C_3   0.701092 0.863809 0.170608 0.102335
C2    C     C_R   0.160273 0.487862 0.239071 0.038418
C3    C     C_R   0.107500 0.480925 0.155138 -0.132025
C4    C     C_3   0.084474 0.729454 0.242314 0.387537
C5    C     C_R   0.215209 0.517548 0.096413 0.242369
C6    C     C_R   0.375965 0.557451 0.124094 -0.169686
C7    C     C_R   0.425956 0.564024 0.207678 0.004203
C8    C     C_R   0.079770 0.518537 0.845064 -0.144680
C9    C     C_R   0.026661 0.511528 0.761384 0.030800
C10   C     C_R   0.974989 0.480069 0.903995 0.250609
C11   C     C_R   0.870570 0.464901 0.736433 -0.307058
C12   C     C_3   0.652177 0.793972 0.232093 0.553098
C13   C     C_R   0.760926 0.431044 0.793269 -0.004977
C14   C     C_R   0.812818 0.437885 0.877668 -0.045839
C15   C     C_R   0.764127 0.233409 0.527025 -0.279936
C16   C     C_3   0.086352 0.751350 0.153285 -0.377228
C17   C     C_R   0.853036 0.173091 0.559356 0.005888
C18   C     C_R   0.786886 0.080448 0.553059 -0.136855
C19   C     C_R   0.631552 0.046544 0.511788 0.017893
C20   C     C_R   0.548032 0.110175 0.477663 -0.099999
C21   C     C_R   0.614108 0.201857 0.484853 0.031323
C22   C     C_R   0.409057 0.913482 0.455489 -0.084345
C23   C     C_3   0.453941 0.330078 0.288565 0.309265
C24   C     C_R   0.347465 0.820924 0.441769 -0.003315
C25   C     C_R   0.582658 0.788122 0.515492 0.105267
C26   C     C_R   0.643822 0.881049 0.531684 -0.072445
C27   C     C_R   0.561218 0.946325 0.499631 0.044958
C28   C     C_3   0.246136 0.731004 0.640456 0.312153
C29   C     C_R   0.437054 0.758394 0.468885 -0.246905
C30   C     C_3   0.276064 0.833046 0.663971 -0.387190
C31   C     C_3   0.975482 0.258063 0.348650 0.282513
C32   C     C_3   0.020522 0.166459 0.315918 -0.235746
C33   C     C_3   0.735129 0.653868 0.708212 0.307993
C34   C     C_3   0.430663 0.307024 0.195864 -0.352084
C35   C     C_3   0.754049 0.677830 0.800984 -0.381393
C36   C     C_3   0.965609 0.091380 0.369211 -0.413513
C37   C     C_3   0.467761 0.777946 0.237742 -0.311836
C38   C     C_3   0.699442 0.401797 0.941447 -0.349180
C39   C     C_3   0.054305 0.263109 0.760935 0.348473
C40   C     C_3   0.059490 0.235979 0.847740 -0.359259
C41   C     C_3   0.527309 0.211364 0.716456 0.352831
C42   C     C_3   0.486822 0.116273 0.741941 -0.360456
C43   C     C_R   0.317386 0.531140 0.264361 -0.285314
H1    H     H_    0.374060 0.851898 0.713595 0.124934
H2    H     H_    0.836259 0.878888 0.169045 0.109897
H3    H     H_    0.855260 0.735864 0.816732 0.127767
H4    H     H_    0.782156 0.619462 0.831483 0.058343
H5    H     H_    0.638544 0.696433 0.824552 0.128729
H6    H     H_    0.336802 0.345578 0.312466 -0.004429
H7    H     H_    0.550989 0.390702 0.301689 0.062313
H8    H     H_    0.332328 0.247370 0.180810 0.132022
H9    H     H_    0.395691 0.365196 0.167166 0.050520
H10   H     H_    0.546478 0.291439 0.170162 0.141251
H11   H     H_    0.651048 0.835298 0.107850 0.056830
H12   H     H_    0.313978 0.868894 0.610355 0.050504
H13   H     H_    0.179250 0.811886 0.146771 0.140733
H14   H     H_    0.146668 0.325071 0.758760 0.096171
H15   H     H_    0.930267 0.278089 0.746794 -0.059334
H16   H     H_    0.182745 0.221057 0.863996 0.150293
H17   H     H_    0.033007 0.292021 0.892045 0.083409
H18   H     H_    0.966355 0.174871 0.852206 0.116545
H19   H     H_    0.660996 0.226250 0.708119 -0.060756
H20   H     H_    0.459653 0.212657 0.657023 0.090284
H21   H     H_    0.522879 0.066668 0.693870 0.065340
H22   H     H_    0.353264 0.098683 0.749810 0.150810
H23   H     H_    0.161917 0.855148 0.685773 0.131109
H24   H     H_    0.969355 0.685750 0.252892 0.136627
H25   H     H_    0.554462 0.112232 0.800781 0.118630
H26   H     H_    0.201031 0.554959 0.863951 0.115791
H27   H     H_    0.461892 0.583993 0.080656 0.089122
H28   H     H_    0.985364 0.445887 0.136084 0.117658
H29   H     H_    0.358454 0.535437 0.328298 0.071243
H30   H     H_    0.830242 0.459792 0.672342 0.074635
H31   H     H_    0.331899 0.957329 0.432816 0.074315
H32   H     H_    0.861442 0.036798 0.578525 0.079782
H33   H     H_    0.755133 0.899996 0.569679 0.063634
H34   H     H_    0.845334 0.248824 0.364347 0.014510
H35   H     H_    0.179818 0.687796 0.251817 -0.061861
H36   H     H_    0.433233 0.091220 0.442833 0.079299
H37   H     H_    0.387720 0.686793 0.458612 0.057671
H38   H     H_    0.815591 0.304660 0.530914 0.068893
H39   H     H_    0.115490 0.692970 0.112748 0.088299
H40   H     H_    0.966004 0.764204 0.131411 0.135055
H41   H     H_    0.362145 0.709278 0.622573 -0.004592
H42   H     H_    0.154002 0.714575 0.588034 0.062684
H43   H     H_    0.997805 0.026912 0.340488 0.202468
H44   H     H_    0.029022 0.107136 0.430561 0.140907
H45   H     H_    0.054111 0.287116 0.404134 0.064731
H46   H     H_    0.831047 0.082205 0.374637 0.176253
H47   H     H_    0.410579 0.743247 0.178394 0.056550
H48   H     H_    0.434972 0.736827 0.288811 0.047479
H49   H     H_    0.420398 0.842148 0.252367 0.161691
H50   H     H_    0.575155 0.371275 0.916321 0.145159
H51   H     H_    0.751817 0.348980 0.971069 0.118545
H52   H     H_    0.686343 0.457835 0.989181 0.125819
H53   H     H_    0.961905 0.145066 0.253337 0.181934
H54   H     H_    0.155282 0.174083 0.310645 0.127837
H55   H     H_    0.852007 0.637453 0.685496 0.010370
H56   H     H_    0.636413 0.594257 0.694196 0.066256
N1    N     N_2   0.170493 0.514682 0.010177 -0.231848
N2    N     N_2   0.023382 0.484025 0.990039 -0.233201
O1    O     O_2   0.870790 0.455700 0.303190 -0.447411
O2    O     O_2   0.193300 0.177447 0.557379 -0.494331
O3    O     O_3   0.090501 0.192019 0.705827 -0.596797
O4    O     O_3   0.120480 0.453880 0.403310 -0.499048
O5    O     O_3   0.582150 0.607760 0.542240 -0.494718
O6    O     O_2   0.333990 0.280210 0.458400 -0.470606
O7    O     O_3   0.499323 0.255714 0.323237 -0.620568
O8    O     O_2   0.425531 0.440218 0.790467 -0.487491
O9    O     O_3   0.479641 0.273589 0.777197 -0.600614
O10   O     O_3   0.662860 0.618850 0.354340 -0.449375
O11   O     O_2   0.744343 0.546521 0.209603 -0.492452
O12   O     O_3   0.695882 0.728828 0.672892 -0.641281
O13   O     O_3   0.994324 0.312068 0.283942 -0.636638
O14   O     O_3   0.715464 0.714367 0.204391 -0.637015
O15   O     O_2   0.855710 0.719820 0.541650 -0.454925
O16   O     O_3   0.086210 0.664250 0.395340 -0.500882
O17   O     O_2   0.018343 0.824794 0.451129 -0.429766
O18   O     O_3   0.106961 0.809634 0.297305 -0.574370
O19   O     O_2   0.318910 0.544330 0.696860 -0.457738
O20   O     O_3   0.069240 0.546190 0.596700 -0.497771
O21   O     O_3   0.526850 0.381230 0.645670 -0.481750
O22   O     O_3   0.190306 0.689163 0.708842 -0.631939
O23   O     O_3   0.607560 0.392310 0.457770 -0.479553
O24   O     O_3   0.103510 0.335820 0.604670 -0.486568
P1    P     P_3+3 0.037890 0.428670 0.315390 0.986774
P2    P     P_3+3 0.680030 0.705880 0.565670 0.997362
P3    P     P_3+3 0.139924 0.781014 0.397125 0.991083
P4    P     P_3+3 0.151830 0.571400 0.684620 0.988234
P5    P     P_3+3 0.060132 0.218239 0.605366 0.945597
P6    P     P_3+3 0.635096 0.613045 0.246012 0.957035
P7    P     P_3+3 0.514142 0.279966 0.430300 0.959565
P8    P     P_3+3 0.549327 0.383310 0.752446 0.941520

loop_
_geom_bond_atom_site_label_1
_geom_bond_atom_site_label_2
_ccdc_geom_bond_type
C35   H4    S    
O21   P8    S    
O18   P3    S    
O15   P2    D    
C10   C14   A    
C7    C43   A    
C31   C32   S    
Ba1   O23   S    
C36   H46   S    
C2    P1    S    
C31   H34   S    
C23   H7    S    
Ba2   O4    S    
O11   P6    D    
C37   H48   S    
C41   C42   S    
C40   H17   S    
C42   H21   S    
C4    C16   S    
O19   P4    D    
C4    H35   S    
C28   O22   S    
C15   C17   A    
C20   H36   S    
Ba1   O20   S    
C43   H29   S    
O2    P5    D    
C14   C38   S    
C26   C27   A    
O6    P7    D    
C37   H49   S    
C23   C34   S    
C28   H41   S    
C16   H40   S    
C25   C29   A    
Ba2   O24   S    
C3    C5    A    
Ba1   Ba2   S    
C25   P2    S    
O9    P8    S    
C21   P7    S    
C42   H22   S    
Ba1   O4    S    
C41   O9    S    
C10   N2    S    
C34   H8    S    
C28   H42   S    
C1    C12   S    
C16   H39   S    
C41   H20   S    
C19   C20   A    
C16   H13   S    
C5    C6    A    
C30   H23   S    
C42   H25   S    
Ba1   O1    S    
C26   H33   S    
C31   H45   S    
C35   H5    S    
C22   C27   A    
C8    H26   S    
C1    H2    S    
C40   H18   S    
O7    P7    S    
O12   P2    S    
O17   P3    D    
N1    N2    D    
C40   H16   S    
Ba2   O6    S    
Ba2   P4    S    
C2    C43   A    
C32   C36   S    
C20   C21   A    
Ba1   P1    S    
C38   H50   S    
C33   H56   S    
C3    H28   S    
Ba1   P2    S    
O14   P6    S    
C33   H55   S    
C32   H54   S    
C24   P3    S    
Ba1   O15   S    
C19   C27   S    
C39   C40   S    
O3    P5    S    
C25   C26   A    
O13   P1    S    
C7    P6    S    
Ba1   O5    S    
C34   H10   S    
C37   H47   S    
C13   C14   A    
C34   H9    S    
O5    P2    S    
C32   H53   S    
C22   H31   S    
C18   H32   S    
C1    H11   S    
O23   P7    S    
C8    C10   A    
C23   O7    S    
C9    C11   A    
C30   H12   S    
O8    P8    D    
C12   O14   S    
C30   H1    S    
O16   P3    S    
Ba2   O21   S    
C17   P5    S    
O4    P1    S    
C39   H14   S    
O20   P4    S    
O1    P1    D    
Ba2   O5    S    
C4    H24   S    
C9    P4    S    
O22   P4    S    
Br2   C1    S    
C15   H38   S    
C24   C29   A    
C23   H6    S    
C4    O18   S    
C11   C13   A    
C2    C3    A    
Ba2   O19   S    
C22   C24   A    
C38   H51   S    
C33   C35   S    
C38   H52   S    
C6    H27   S    
C11   H30   S    
O10   P6    S    
C5    N1    S    
C39   O3    S    
C36   H44   S    
C15   C21   A    
C29   H37   S    
Ba1   O16   S    
C6    C7    A    
O24   P5    S    
Ba2   O20   S    
C35   H3    S    
C33   O12   S    
C8    C9    A    
C41   H19   S    
C18   C19   A    
C31   O13   S    
C13   P8    S    
Ba1   O10   S    
C36   H43   S    
C17   C18   A    
C12   C37   S    
Br1   C12   S    
C39   H15   S    
C28   C30   S    
Ba2   O23   S    
