data_mof_unit_37666.cif
_audit_creation_date              2012-12-10T18:09:29-0500
_audit_creation_method            fapswitch 2.2
_symmetry_space_group_name_H-M    P1
_symmetry_Int_Tables_number       1
_space_group_crystal_system       triclinic
_cell_length_a                    15.244173
_cell_length_b                    15.141171
_cell_length_c                    9.410756
_cell_angle_alpha                 90.001251
_cell_angle_beta                  90.000932
_cell_angle_gamma                 89.983201
_cell_volume                      2172.14007137

loop_
_atom_site_label
_atom_site_type_symbol
_atom_type_description
_atom_site_fract_x
_atom_site_fract_y
_atom_site_fract_z
_atom_type_partial_charge
C1    C     C_R   0.120273 0.379960 0.500043 0.767443
C2    C     C_R   0.119757 0.620615 0.499993 0.766717
C3    C     C_R   0.620275 0.879963 0.499956 0.767419
C4    C     C_R   0.619768 0.120602 0.500011 0.766758
C5    C     C_3   0.090947 0.512230 0.083817 -0.187174
C6    C     C_3   0.090885 0.512641 0.916151 -0.187255
C7    C     C_3   0.590791 0.013303 0.083851 -0.187375
C8    C     C_3   0.590846 0.012964 0.916188 -0.187288
C9    C     C_R   0.881144 0.378902 0.500207 0.787979
C10   C     C_R   0.881322 0.621306 0.499800 0.786642
C11   C     C_R   0.381154 0.878895 0.499786 0.787988
C12   C     C_R   0.381327 0.121308 0.500202 0.786683
C13   C     C_3   0.795377 0.275944 0.653569 -0.375089
C14   C     C_3   0.838602 0.232166 0.404574 -0.363959
C15   C     C_3   0.831245 0.760350 0.614111 -0.368001
C16   C     C_3   0.806332 0.735306 0.351858 -0.374730
C17   C     C_3   0.338678 0.732094 0.595203 -0.363833
C18   C     C_3   0.295270 0.776048 0.346378 -0.375162
C19   C     C_3   0.306183 0.235150 0.648263 -0.374741
C20   C     C_3   0.331378 0.260482 0.386165 -0.367874
C21   C     C_3   0.265826 0.661573 0.596334 -0.400579
C22   C     C_3   0.225490 0.703379 0.347553 -0.391426
C23   C     C_3   0.236801 0.308390 0.646029 -0.393125
C24   C     C_3   0.258815 0.331083 0.385306 -0.399785
C25   C     C_3   0.725633 0.203239 0.652391 -0.391546
C26   C     C_3   0.765745 0.161654 0.403419 -0.400587
C27   C     C_3   0.758662 0.830927 0.615015 -0.399758
C28   C     C_3   0.736991 0.808586 0.354136 -0.393134
C29   C     C_3   0.725592 0.351765 0.443338 -0.418239
C30   C     C_3   0.722438 0.645407 0.531387 -0.419878
C31   C     C_3   0.225654 0.851738 0.556864 -0.418160
C32   C     C_3   0.222484 0.145444 0.468229 -0.419842
C33   C     C_3   0.811698 0.310825 0.500598 0.111936
C34   C     C_3   0.811901 0.689480 0.499245 0.116844
C35   C     C_3   0.311709 0.810822 0.499381 0.111806
C36   C     C_3   0.311909 0.189483 0.500761 0.116750
C37   C     C_3   0.187897 0.690972 0.500441 0.075473
C38   C     C_3   0.188373 0.309656 0.499987 0.077868
C39   C     C_3   0.687900 0.190961 0.499566 0.075591
C40   C     C_3   0.688370 0.809657 0.500011 0.077906
C41   C     C_3   0.150307 0.782070 0.555447 0.024893
C42   C     C_3   0.147444 0.215611 0.470291 0.024381
C43   C     C_3   0.650242 0.282097 0.444860 0.024849
C44   C     C_3   0.647397 0.715575 0.529236 0.024398
C45   C     C_3   0.945924 0.571904 0.083666 -0.184665
C46   C     C_3   0.945439 0.571510 0.916371 -0.186626
C47   C     C_3   0.967225 0.415755 0.083623 -0.188314
C48   C     C_3   0.967734 0.415484 0.916241 -0.184616
C49   C     C_3   0.444916 0.071093 0.083629 -0.186513
C50   C     C_3   0.445340 0.071443 0.916335 -0.184756
C51   C     C_3   0.468363 0.915231 0.083759 -0.184615
C52   C     C_3   0.467922 0.915470 0.916373 -0.188153
Cu1   Cu    Cu3+1 0.000100 0.500000 0.642410 0.906009
Cu2   Cu    Cu3+1 0.000100 0.500000 0.357590 0.903842
Cu3   Cu    Cu3+1 0.500100 0.000000 0.642410 0.903841
Cu4   Cu    Cu3+1 0.500100 0.000000 0.357590 0.906028
H1    H     H_    0.772875 0.330766 0.723554 0.170732
H2    H     H_    0.850622 0.255143 0.293912 0.175290
H3    H     H_    0.834975 0.729374 0.721223 0.169617
H4    H     H_    0.788533 0.686281 0.268504 0.168589
H5    H     H_    0.350769 0.754990 0.705890 0.175443
H6    H     H_    0.272755 0.830925 0.276518 0.170801
H7    H     H_    0.288347 0.186027 0.731445 0.168625
H8    H     H_    0.335198 0.229626 0.278969 0.169701
H9    H     H_    0.857261 0.249264 0.699423 0.188710
H10   H     H_    0.900717 0.202404 0.444014 0.183221
H11   H     H_    0.895729 0.792098 0.593150 0.184824
H12   H     H_    0.870936 0.763787 0.322170 0.193594
H13   H     H_    0.400768 0.702365 0.555593 0.183149
H14   H     H_    0.357113 0.749362 0.300386 0.188636
H15   H     H_    0.370748 0.263644 0.678164 0.193543
H16   H     H_    0.395852 0.292186 0.407382 0.184773
H17   H     H_    0.292956 0.597619 0.557776 0.161391
H18   H     H_    0.255226 0.640447 0.309575 0.169745
H19   H     H_    0.268958 0.373327 0.665428 0.169302
H20   H     H_    0.288264 0.397132 0.406108 0.162312
H21   H     H_    0.755433 0.140285 0.690136 0.169757
H22   H     H_    0.792905 0.097658 0.441741 0.161416
H23   H     H_    0.788119 0.897017 0.594585 0.162333
H24   H     H_    0.769209 0.873535 0.335114 0.169313
H25   H     H_    0.243590 0.650586 0.707519 0.173998
H26   H     H_    0.172701 0.720916 0.270879 0.183145
H27   H     H_    0.190097 0.297454 0.735197 0.181402
H28   H     H_    0.228840 0.333989 0.277613 0.176783
H29   H     H_    0.672916 0.220685 0.729243 0.183044
H30   H     H_    0.743410 0.150785 0.292254 0.173947
H31   H     H_    0.728548 0.833654 0.722619 0.176856
H32   H     H_    0.690404 0.797812 0.264752 0.181335
H33   H     H_    0.708628 0.410848 0.508624 0.146027
H34   H     H_    0.737409 0.377501 0.333945 0.159670
H35   H     H_    0.726546 0.611426 0.636344 0.157307
H36   H     H_    0.710399 0.591977 0.452165 0.147353
H37   H     H_    0.237561 0.877449 0.666249 0.159710
H38   H     H_    0.208635 0.910840 0.491661 0.146028
H39   H     H_    0.210351 0.091950 0.547298 0.147344
H40   H     H_    0.226714 0.111545 0.363213 0.157286
H41   H     H_    0.969737 0.637031 0.122610 0.152945
H42   H     H_    0.968178 0.636648 0.876403 0.168997
H43   H     H_    0.006947 0.359685 0.123732 0.174851
H44   H     H_    0.008049 0.359359 0.876679 0.157926
H45   H     H_    0.467239 0.136411 0.123500 0.168656
H46   H     H_    0.468613 0.136762 0.877370 0.152925
H47   H     H_    0.509064 0.859407 0.123382 0.158000
H48   H     H_    0.508160 0.859746 0.876353 0.174786
H49   H     H_    0.877278 0.564637 0.121973 0.139884
H50   H     H_    0.876679 0.563390 0.878940 0.139139
H51   H     H_    0.898849 0.404353 0.120306 0.143184
H52   H     H_    0.899612 0.403532 0.878977 0.142582
H53   H     H_    0.376232 0.062504 0.121161 0.139178
H54   H     H_    0.376752 0.063595 0.878031 0.139849
H55   H     H_    0.400316 0.902784 0.120963 0.142656
H56   H     H_    0.399667 0.903453 0.879620 0.143366
H57   H     H_    0.119331 0.575535 0.121803 0.146410
H58   H     H_    0.118731 0.576346 0.878857 0.158918
H59   H     H_    0.135149 0.459045 0.122734 0.140330
H60   H     H_    0.135477 0.460006 0.876464 0.137407
H61   H     H_    0.618180 0.077202 0.121173 0.159256
H62   H     H_    0.618678 0.076542 0.878318 0.146569
H63   H     H_    0.635757 0.960981 0.123511 0.137253
H64   H     H_    0.635495 0.960187 0.877161 0.140104
N1    N     N_3   0.001260 0.500000 0.143650 -0.120420
N2    N     N_3   0.001260 0.500000 0.856350 -0.120096
N3    N     N_3   0.501260 0.000000 0.143650 -0.120114
N4    N     N_3   0.501260 0.000000 0.856350 -0.120455
O1    O     O_R   0.091250 0.408820 0.620260 -0.592074
O2    O     O_R   0.091250 0.408820 0.379740 -0.588304
O3    O     O_R   0.091250 0.591180 0.620260 -0.587569
O4    O     O_R   0.091250 0.591180 0.379740 -0.593920
O5    O     O_R   0.591250 0.908820 0.620260 -0.588360
O6    O     O_R   0.591250 0.908820 0.379740 -0.592070
O7    O     O_R   0.591250 0.091180 0.620260 -0.593919
O8    O     O_R   0.591250 0.091180 0.379740 -0.587616
O9    O     O_R   0.908940 0.408800 0.620260 -0.595481
O10   O     O_R   0.908940 0.408800 0.379740 -0.595987
O11   O     O_R   0.908940 0.591200 0.620260 -0.597649
O12   O     O_R   0.908940 0.591200 0.379740 -0.596955
O13   O     O_R   0.408940 0.908800 0.620260 -0.595941
O14   O     O_R   0.408940 0.908800 0.379740 -0.595460
O15   O     O_R   0.408940 0.091200 0.620260 -0.596951
O16   O     O_R   0.408940 0.091200 0.379740 -0.597619
C53   C     C_1   0.113195 0.774567 0.700214 0.201336
N5    N     N_1   0.084398 0.769114 0.813662 -0.331616
C54   C     C_1   0.078749 0.813704 0.462381 0.172397
N6    N     N_1   0.023290 0.839005 0.388972 -0.326148
C55   C     C_1   0.082578 0.192368 0.581133 0.175425
N7    N     N_1   0.031985 0.174234 0.668067 -0.320420
C56   C     C_1   0.100344 0.212703 0.333046 0.191801
N8    N     N_1   0.063610 0.209470 0.225582 -0.326631
C57   C     C_1   0.578796 0.313653 0.538227 0.172484
N9    N     N_1   0.523420 0.338877 0.611867 -0.325975
C58   C     C_1   0.612927 0.274682 0.300211 0.201100
N10   N     N_1   0.583953 0.269278 0.186871 -0.331361
C59   C     C_1   0.600074 0.712500 0.666267 0.191469
N11   N     N_1   0.563158 0.709131 0.773554 -0.326540
C60   C     C_1   0.582700 0.692469 0.418054 0.175520
N12   N     N_1   0.532233 0.674447 0.330862 -0.320345

loop_
_geom_bond_atom_site_label_1
_geom_bond_atom_site_label_2
_ccdc_geom_bond_type
C16   C28   S    
Cu3   Cu4   S    
C17   H13   S    
C21   H17   S    
C3    O6    A    
C51   N3    S    
C7    H61   S    
C19   H15   S    
C56   N8    T    
Cu1   O11   S    
C52   H56   S    
C13   C25   S    
C14   C33   S    
C29   H33   S    
C55   N7    T    
C8    H62   S    
C7    C8    S    
C4    O8    A    
C13   H9    S    
C45   C46   S    
C41   C53   S    
Cu2   O2    S    
C26   H22   S    
Cu3   O15   S    
C23   H27   S    
C37   C41   S    
C25   H21   S    
C44   C59   S    
C32   C36   S    
C11   O14   A    
C1    O1    A    
C38   C42   S    
C27   H23   S    
C19   C36   S    
C49   H45   S    
C5    C6    S    
Cu4   O16   S    
C26   C39   S    
C47   N1    S    
C13   H1    S    
C28   C40   S    
C51   H47   S    
C54   N6    T    
Cu2   O10   S    
C29   C33   S    
C50   H54   S    
C47   H43   S    
C16   H4    S    
C6    H58   S    
Cu1   O3    S    
C17   H5    S    
C20   H16   S    
C20   C24   S    
C19   H7    S    
Cu3   O5    S    
C28   H32   S    
C24   C38   S    
C58   N10   T    
C12   O16   A    
C16   H12   S    
C12   C36   S    
C18   C35   S    
C15   C34   S    
C43   C57   S    
C16   C34   S    
C2    O3    A    
C46   H42   S    
Cu2   O12   S    
C41   C54   S    
C18   C22   S    
C5    H59   S    
C9    C33   S    
C30   C44   S    
C14   H2    S    
C42   C56   S    
C29   H34   S    
C45   H49   S    
C4    O7    A    
C48   H44   S    
C30   C34   S    
C51   C52   S    
Cu4   N3    S    
C7    H63   S    
Cu1   O9    S    
C1    O2    A    
C30   H36   S    
C23   H19   S    
C24   H20   S    
C39   C43   S    
C45   N1    S    
C31   H37   S    
C22   C37   S    
Cu2   O4    S    
C17   C21   S    
C20   H8    S    
C19   C23   S    
C13   C33   S    
Cu4   O14   S    
C15   C27   S    
C47   C48   S    
C4    C39   S    
C27   C40   S    
C26   H30   S    
C15   H11   S    
C25   H29   S    
C14   H10   S    
C12   O15   A    
C50   N4    S    
C10   C34   S    
C14   C26   S    
C27   H31   S    
C6    H60   S    
Cu4   O8    S    
Cu1   O1    S    
C1    C38   S    
C29   C43   S    
C32   H40   S    
Cu2   N1    S    
C21   H25   S    
C3    C40   S    
C50   H46   S    
Cu3   O7    S    
C31   C35   S    
C6    N2    S    
C23   C38   S    
C22   H26   S    
C43   C58   S    
C8    H64   S    
C49   H53   S    
C9    O9    A    
Cu3   N4    S    
C52   H48   S    
C5    N1    S    
C51   H55   S    
C31   C41   S    
C5    H57   S    
C3    O5    A    
C44   C60   S    
C15   H3    S    
C8    N4    S    
C7    N3    S    
C30   H35   S    
Cu1   Cu2   S    
C10   O12   A    
C31   H38   S    
C47   H51   S    
C18   H14   S    
Cu3   O13   S    
Cu1   N2    S    
C11   C35   S    
C24   H28   S    
C10   O11   A    
C45   H41   S    
C57   N9    T    
C9    O10   A    
C48   N2    S    
C52   N4    S    
C2    C37   S    
C48   H52   S    
C46   H50   S    
C11   O13   A    
C28   H24   S    
Cu4   O6    S    
C20   C36   S    
C40   C44   S    
C32   H39   S    
C21   C37   S    
C22   H18   S    
C49   C50   S    
C60   N12   T    
C32   C42   S    
C46   N2    S    
C18   H6    S    
C17   C35   S    
C59   N11   T    
C53   N5    T    
C42   C55   S    
C25   C39   S    
C2    O4    A    
C49   N3    S    
