data_mof_unit_16010.cif
_audit_creation_date              2012-12-11T16:28:22-0500
_audit_creation_method            fapswitch 2.2
_symmetry_space_group_name_H-M    P1
_symmetry_Int_Tables_number       1
_space_group_crystal_system       triclinic
_cell_length_a                    16.644502
_cell_length_b                    7.25639
_cell_length_c                    15.133088
_cell_angle_alpha                 90.042977
_cell_angle_beta                  94.803187
_cell_angle_gamma                 90.114102
_cell_volume                      1821.3361019

loop_
_atom_site_label
_atom_site_type_symbol
_atom_type_description
_atom_site_fract_x
_atom_site_fract_y
_atom_site_fract_z
_atom_type_partial_charge
O1    O     O_R   0.663460 0.361760 0.165970 -0.532361
O2    O     O_R   0.336540 0.638240 0.834030 -0.532360
O3    O     O_R   0.836540 0.861760 0.334030 -0.533105
O4    O     O_R   0.163460 0.138240 0.665970 -0.533106
O5    O     O_R   0.827100 0.689870 0.163730 -0.534970
O6    O     O_R   0.172900 0.310130 0.836270 -0.534970
O7    O     O_R   0.672900 0.189870 0.336270 -0.532631
O8    O     O_R   0.327100 0.810130 0.663730 -0.532630
H1    H     H_    0.206665 0.895778 0.494418 0.113603
H2    H     H_    0.793335 0.104222 0.505582 0.113603
H3    H     H_    0.289205 0.542396 0.004937 0.105369
H4    H     H_    0.710794 0.457604 0.995063 0.105369
C1    C     C_R   0.853288 0.523041 0.143575 0.702992
C2    C     C_R   0.146712 0.476959 0.856425 0.702992
C3    C     C_R   0.646741 0.022897 0.356453 0.704678
C4    C     C_R   0.353259 0.977103 0.643547 0.704678
O9    O     O_R   0.663490 0.691370 0.155500 -0.535191
O10   O     O_R   0.336510 0.308630 0.844500 -0.535191
O11   O     O_R   0.836510 0.191370 0.344500 -0.535823
O12   O     O_R   0.163490 0.808630 0.655500 -0.535823
O13   O     O_R   0.671770 0.863320 0.325740 -0.532400
O14   O     O_R   0.328230 0.136680 0.674260 -0.532400
O15   O     O_R   0.828230 0.363320 0.174260 -0.529956
O16   O     O_R   0.171770 0.636680 0.825740 -0.529955
C5    C     C_R   0.636634 0.522667 0.133241 0.679024
C6    C     C_R   0.363366 0.477333 0.866758 0.679024
C7    C     C_R   0.863622 0.022993 0.366482 0.677595
C8    C     C_R   0.136378 0.977007 0.633518 0.677595
O17   O     O_3   0.752910 0.528800 0.305860 -0.372912
O18   O     O_3   0.247090 0.471200 0.694140 -0.372912
O19   O     O_3   0.747090 0.028800 0.194140 -0.372581
O20   O     O_3   0.252910 0.971200 0.805860 -0.372581
V1    V     V_3+5 0.749460 0.803010 0.239640 1.447566
V2    V     V_3+5 0.250540 0.196990 0.760360 1.447566
V3    V     V_3+5 0.750540 0.303010 0.260360 1.453105
V4    V     V_3+5 0.249460 0.696990 0.739640 1.453105
C9    C     C_1   0.468824 0.994822 0.530113 0.054367
C10   C     C_1   0.531176 0.005178 0.469886 0.054367
C11   C     C_1   0.031169 0.494632 0.969884 0.058757
C12   C     C_1   0.968830 0.505367 0.030116 0.058757
H5    H     H_    0.775658 0.161266 0.660523 0.144149
H6    H     H_    0.224342 0.838734 0.339477 0.144149
H7    H     H_    0.731333 0.395269 0.841016 0.139494
H8    H     H_    0.268667 0.604731 0.158983 0.139494
C13   C     C_R   0.023595 0.930640 0.319704 -0.176440
C14   C     C_R   0.976405 0.069360 0.680296 -0.176440
C15   C     C_R   0.473187 0.575140 0.178821 -0.176854
C16   C     C_R   0.526813 0.424860 0.821179 -0.176854
C17   C     C_R   0.099913 0.884849 0.294673 0.005359
C18   C     C_R   0.900087 0.115151 0.705327 0.005359
C19   C     C_R   0.394961 0.598863 0.203665 0.008472
C20   C     C_R   0.605039 0.401137 0.796335 0.008472
C21   C     C_R   0.164900 0.872679 0.358577 -0.148888
C22   C     C_R   0.835100 0.127321 0.641423 -0.148888
C23   C     C_R   0.329548 0.587021 0.140120 -0.146213
C24   C     C_R   0.670452 0.412979 0.859880 -0.146214
C25   C     C_R   0.154079 0.905479 0.447549 -0.135431
C26   C     C_R   0.845920 0.094521 0.552450 -0.135431
C27   C     C_R   0.341921 0.551190 0.051733 -0.131955
C28   C     C_R   0.658079 0.448810 0.948267 -0.131955
C29   C     C_R   0.077371 0.951133 0.474883 0.062119
C30   C     C_R   0.922629 0.048867 0.525117 0.062119
C31   C     C_R   0.420509 0.526048 0.024800 0.062177
C32   C     C_R   0.579491 0.473952 0.975200 0.062177
C33   C     C_R   0.010761 0.964221 0.409631 0.057655
C34   C     C_R   0.989239 0.035778 0.590369 0.057655
C35   C     C_R   0.487496 0.538522 0.089643 0.055277
C36   C     C_R   0.512504 0.461478 0.910357 0.055277
C37   C     C_R   0.066668 0.986806 0.565303 -0.161645
C38   C     C_R   0.933332 0.013194 0.434697 -0.161645
C39   C     C_R   0.432973 0.487361 0.935099 -0.159474
C40   C     C_R   0.567026 0.512639 0.064901 -0.159474
C41   C     C_1   0.415997 0.986288 0.581445 -0.165875
C42   C     C_1   0.584003 0.013712 0.418555 -0.165875
C43   C     C_1   0.083982 0.485935 0.918543 -0.168152
C44   C     C_1   0.916018 0.514065 0.081456 -0.168152
H9    H     H_    0.974768 0.941086 0.267975 0.113102
H10   H     H_    0.025232 0.058914 0.732025 0.113102
H11   H     H_    0.522520 0.584781 0.230064 0.110277
H12   H     H_    0.477480 0.415218 0.769936 0.110277
C45   C     C_1   0.111601 0.851846 0.202747 0.278325
N1    N     N_1   0.120925 0.825495 0.128871 -0.362905
C46   C     C_1   0.888399 0.148154 0.797253 0.278325
N2    N     N_1   0.879075 0.174506 0.871128 -0.362905
C47   C     C_1   0.382100 0.633978 0.295110 0.278656
N3    N     N_1   0.372108 0.661887 0.368690 -0.366356
C48   C     C_1   0.617900 0.366022 0.704890 0.278656
N4    N     N_1   0.627892 0.338113 0.631310 -0.366356

loop_
_geom_bond_atom_site_label_1
_geom_bond_atom_site_label_2
_ccdc_geom_bond_type
C26   C30   A    
C48   N4    T    
C23   C27   A    
C8    C37   S    
O10   C6    A    
C15   H11   S    
C19   C47   S    
C45   N1    T    
C47   N3    T    
C1    O15   A    
C18   C22   A    
C32   C36   A    
H2    C26   S    
C14   C34   A    
H6    C21   S    
C10   C42   T    
C34   C37   A    
O13   V1    S    
O3    V1    S    
C2    O16   A    
C33   C38   A    
O2    V4    S    
C30   C38   A    
C35   C40   A    
O8    V4    S    
C17   C45   S    
C9    C41   T    
C12   C44   T    
O5    V1    S    
O19   V1    S    
C11   C43   T    
O11   C7    A    
O5    C1    A    
O7    C3    A    
O8    C4    A    
O1    C5    A    
C6    C39   S    
O9    V1    S    
H3    C27   S    
C15   C35   A    
O4    C8    A    
C18   C46   S    
O4    V2    S    
O14   V2    S    
C31   C35   A    
C30   C34   A    
C4    C41   S    
C11   C12   S    
C14   H10   S    
C21   C25   A    
C15   C19   A    
O12   C8    A    
C19   C23   A    
O6    V2    S    
O20   V2    S    
C9    C10   S    
O6    C2    A    
C46   N2    T    
C1    C44   S    
C13   C17   A    
O2    C6    A    
C5    C40   S    
O16   V4    S    
C16   C36   A    
O10   V2    S    
C7    C38   S    
H4    C28   S    
C31   C39   A    
O15   V3    S    
C13   C33   A    
O1    V3    S    
C22   C26   A    
C29   C37   A    
C14   C18   A    
C4    O14   A    
O7    V3    S    
C20   C48   S    
C25   C29   A    
O17   V3    S    
C27   C31   A    
O18   V4    S    
C28   C32   A    
O9    C5    A    
C2    C43   S    
C16   H12   S    
O3    C7    A    
O11   V3    S    
H8    C23   S    
C3    O13   A    
C36   C39   A    
C17   C21   A    
H1    C25   S    
C32   C40   A    
H5    C22   S    
O12   V4    S    
C29   C33   A    
H7    C24   S    
C16   C20   A    
C3    C42   S    
C24   C28   A    
C13   H9    S    
C20   C24   A    
