data_mof_unit_16533.cif
_audit_creation_date              2012-12-11T14:17:51-0500
_audit_creation_method            fapswitch 2.2
_symmetry_space_group_name_H-M    P1
_symmetry_Int_Tables_number       1
_space_group_crystal_system       triclinic
_cell_length_a                    6.941949
_cell_length_b                    13.604652
_cell_length_c                    20.394038
_cell_angle_alpha                 102.121786
_cell_angle_beta                  90.206589
_cell_angle_gamma                 90.662586
_cell_volume                      1882.96358108

loop_
_atom_site_label
_atom_site_type_symbol
_atom_type_description
_atom_site_fract_x
_atom_site_fract_y
_atom_site_fract_z
_atom_type_partial_charge
O1    O     O_R   0.506860 0.599390 0.449240 -0.536679
O2    O     O_R   0.180220 0.594600 0.586780 -0.541624
O3    O     O_R   0.004500 0.400610 0.550760 -0.536114
C1    C     C_R   0.349291 0.615994 0.613507 0.742030
O4    O     O_R   0.177490 0.611290 0.451970 -0.544698
O5    O     O_R   0.001750 0.417420 0.414990 -0.539839
C2    C     C_R   0.347006 0.637674 0.434893 0.702162
O6    O     O_R   0.509610 0.582580 0.585010 -0.542974
O7    O     O_3   0.337420 0.436370 0.488020 -0.371567
V1    V     V_3+5 0.064680 0.511800 0.502220 1.418061
O8    O     O_R   0.671710 0.405400 0.413220 -0.544675
C3    C     C_R   0.839034 0.385486 0.386028 0.764716
O9    O     O_R   0.674440 0.388710 0.548030 -0.543894
C4    C     C_R   0.843102 0.362299 0.565071 0.701983
V2    V     V_3+5 0.564010 0.488200 0.497780 1.416101
O10   O     O_3   0.841140 0.563630 0.511980 -0.373453
C5    C     C_R   0.928715 0.115912 0.614172 -0.160176
H1    H     H_    0.922485 0.165876 0.521202 0.105746
H2    H     H_    0.956882 0.991857 0.697726 0.123483
H3    H     H_    0.960814 0.039242 0.589637 0.113780
C6    C     C_R   0.854696 0.285340 0.605207 -0.054789
C7    C     C_R   0.840213 0.315767 0.929742 -0.221357
C8    C     C_R   0.851171 0.393408 0.895354 -0.188192
C9    C     C_R   0.879500 0.373727 0.825800 0.292842
C10   C     C_R   0.877751 0.272031 0.788375 0.035507
C11   C     C_R   0.882575 0.193476 0.825139 0.022180
C12   C     C_R   0.877188 0.244656 0.716430 0.075380
C13   C     C_R   0.913526 0.143271 0.684263 0.135324
C14   C     C_R   0.931508 0.069455 0.721975 -0.203777
C15   C     C_R   0.910231 0.093423 0.790994 -0.177383
C16   C     C_R   0.834738 0.312908 0.674872 -0.197145
C17   C     C_R   0.904550 0.187293 0.575053 -0.171448
C18   C     C_R   0.862624 0.216483 0.895743 -0.073999
H4    H     H_    0.782901 0.387459 0.694827 0.154086
H5    H     H_    0.823813 0.333629 0.983770 0.120527
H6    H     H_    0.847614 0.470200 0.923712 0.119055
H7    H     H_    0.918697 0.032509 0.817525 0.117670
C19   C     C_2   0.996153 0.311614 0.278215 -0.149470
C20   C     C_2   0.839653 0.321112 0.317808 -0.388134
H8    H     H_    0.125779 0.353462 0.297465 0.152760
H9    H     H_    0.703441 0.286666 0.299019 0.128347
C21   C     C_2   0.002378 0.253871 0.207086 0.325471
C22   C     C_2   0.865373 0.184000 0.180666 -0.380728
H10   H     H_    0.743493 0.170302 0.210624 0.104494
C23   C     C_2   0.204081 0.790738 0.782073 -0.138545
C24   C     C_2   0.362918 0.815151 0.820121 -0.306830
H11   H     H_    0.066481 0.821425 0.801002 0.131525
H12   H     H_    0.501216 0.784665 0.802498 0.128584
C25   C     C_2   0.202898 0.722254 0.714539 -0.142391
C26   C     C_2   0.361383 0.684279 0.680301 -0.319888
H13   H     H_    0.061671 0.703157 0.692077 0.139734
H14   H     H_    0.504538 0.702937 0.700670 0.128975
C27   C     C_R   0.464505 0.880508 0.384256 -0.163749
H15   H     H_    0.462499 0.830501 0.477188 0.107581
H16   H     H_    0.504352 0.003221 0.300262 0.118951
H17   H     H_    0.512995 0.955571 0.408112 0.114395
C28   C     C_R   0.362171 0.714585 0.394728 -0.058859
C29   C     C_R   0.314864 0.684880 0.070334 -0.256875
C30   C     C_R   0.316261 0.605033 0.104027 0.301283
C31   C     C_R   0.350930 0.625196 0.174058 0.212808
C32   C     C_R   0.369032 0.726864 0.211105 -0.008400
C33   C     C_R   0.384987 0.804922 0.174260 0.019717
C34   C     C_R   0.379159 0.754343 0.283091 0.099459
C35   C     C_R   0.436611 0.853927 0.314535 0.135017
C36   C     C_R   0.463475 0.926837 0.276517 -0.208380
C37   C     C_R   0.431927 0.903720 0.207905 -0.160954
C38   C     C_R   0.328253 0.688220 0.325540 -0.190755
C39   C     C_R   0.433252 0.810160 0.423795 -0.171467
C40   C     C_R   0.355675 0.782977 0.104134 -0.130326
H18   H     H_    0.259944 0.616282 0.306758 0.149507
H19   H     H_    0.287776 0.671126 0.016864 0.126332
H20   H     H_    0.448401 0.964206 0.181247 0.112730
O11   O     O_R   0.203230 0.917310 0.915020 -0.539721
O12   O     O_R   0.535500 0.888690 0.048040 -0.541267
O13   O     O_R   0.711080 0.082610 0.085000 -0.545738
C41   C     C_R   0.366210 0.861693 0.064704 0.716793
O14   O     O_R   0.532630 0.905370 0.913230 -0.547234
O15   O     O_R   0.708190 0.099410 0.949230 -0.537730
C42   C     C_R   0.364066 0.884056 0.886574 0.743488
O16   O     O_R   0.206120 0.900510 0.050790 -0.537749
O17   O     O_3   0.375360 0.063570 0.011990 -0.371645
V3    V     V_3+5 0.648170 0.988200 0.997780 1.406235
O18   O     O_R   0.038240 0.111390 0.951940 -0.543489
C43   C     C_R   0.869764 0.138284 0.935372 0.694228
O19   O     O_R   0.041120 0.094710 0.086750 -0.533790
C44   C     C_R   0.873274 0.118171 0.112756 0.742555
V4    V     V_3+5 0.148810 0.011930 0.002180 1.413892
O20   O     O_3   0.871750 0.936430 0.988010 -0.371543
N1    N     N_2   0.155668 0.278934 0.166724 -0.530497
H21   H     H_    0.125294 0.273089 0.116522 0.255012
C45   C     C_3   0.343531 0.242418 0.180204 -0.503419
H22   H     H_    0.452574 0.269519 0.148189 0.195698
H23   H     H_    0.343336 0.158905 0.168974 0.201595
H24   H     H_    0.385527 0.271014 0.233403 0.174347
N2    N     N_2   0.392072 0.542816 0.204812 -0.541952
H25   H     H_    0.308430 0.479214 0.188793 0.283774
C46   C     C_3   0.594760 0.521149 0.208775 -0.519087
H26   H     H_    0.613720 0.460465 0.237053 0.194255
H27   H     H_    0.675386 0.588892 0.235516 0.204135
H28   H     H_    0.654594 0.495779 0.157615 0.203487
N3    N     N_2   0.287414 0.503214 0.068741 -0.517784
H29   H     H_    0.170539 0.467100 0.084590 0.246760
C47   C     C_3   0.322633 0.476042 0.997310 -0.547157
H30   H     H_    0.324241 0.392855 0.981179 0.208649
H31   H     H_    0.464929 0.505905 0.985321 0.202198
H32   H     H_    0.206251 0.504923 0.969260 0.188098
N4    N     N_2   0.930928 0.456380 0.796397 -0.551714
H33   H     H_    0.873684 0.524153 0.820161 0.249827
C48   C     C_3   0.134799 0.464534 0.783579 -0.553316
H34   H     H_    0.160525 0.526965 0.757210 0.206353
H35   H     H_    0.187884 0.394106 0.751202 0.212253
H36   H     H_    0.216978 0.480369 0.831605 0.192429

loop_
_geom_bond_atom_site_label_1
_geom_bond_atom_site_label_2
_ccdc_geom_bond_type
O18   V4    S    
V4    O20   S    
N3    H29   S    
N2    H25   S    
C1    O6    A    
C46   H26   S    
C20   H9    S    
C23   C24   D    
C7    H5    S    
C6    C16   A    
O12   C41   A    
C4    C6    S    
C13   C14   A    
O12   V3    S    
C19   C21   S    
O16   V4    S    
C48   H35   S    
O5    C3    A    
C19   C20   D    
C27   C35   A    
C29   H19   S    
H15   C39   S    
V2    O10   S    
C8    H6    S    
C5    H3    S    
C40   C41   S    
C32   C34   A    
C27   C39   A    
O11   V4    S    
O13   C44   A    
C46   H27   S    
O8    V2    S    
C37   H20   S    
C25   H13   S    
C26   H14   S    
N4    H33   S    
O1    V2    S    
N1    C45   S    
O7    V1    S    
O14   C42   A    
C30   C31   A    
N3    C47   S    
O9    C4    A    
N4    C48   S    
C28   C38   A    
H16   C36   S    
O17   V3    S    
C24   H12   S    
C23   H11   S    
C6    C17   A    
C34   C38   A    
C33   C37   A    
O19   V4    S    
C12   C16   A    
C30   N3    S    
C9    C10   A    
C48   H36   S    
C45   H22   S    
O4    C2    A    
C29   C40   A    
C29   C30   A    
O19   C44   A    
C33   C40   A    
C1    C26   S    
C31   C32   A    
O2    C1    A    
C22   H10   S    
C14   C15   A    
C45   H23   S    
O15   V3    S    
C11   C18   A    
O18   C43   A    
C23   C25   S    
C8    C9    A    
O11   C42   A    
C16   H4    S    
C47   H31   S    
C9    N4    S    
O17   V4    S    
O3    C4    A    
C11   C15   A    
O6    V2    S    
O9    V2    S    
H1    C17   S    
C21   C22   D    
C28   C39   A    
O2    V1    S    
C47   H30   S    
C46   H28   S    
C27   H17   S    
C7    C18   A    
O1    C2    A    
C5    C13   A    
C41   O16   A    
O5    V1    S    
O8    C3    A    
N2    C46   S    
O13   V3    S    
C10   C12   A    
C38   H18   S    
C35   C36   A    
C21   N1    S    
C3    C20   S    
C10   C11   A    
O4    V1    S    
O3    V1    S    
V1    O10   S    
C48   H34   S    
C45   H24   S    
C19   H8    S    
C24   C42   S    
O14   V3    S    
V3    O20   S    
C47   H32   S    
C36   C37   A    
O7    V2    S    
C32   C33   A    
C18   C43   S    
C22   C44   S    
C34   C35   A    
C31   N2    S    
O15   C43   A    
C15   H7    S    
C25   C26   D    
C12   C13   A    
C5    C17   A    
C7    C8    A    
N1    H21   S    
C2    C28   S    
H2    C14   S    
