data_mof_unit_39181.cif
_audit_creation_date              2012-12-10T18:18:19-0500
_audit_creation_method            fapswitch 2.2
_symmetry_space_group_name_H-M    P1
_symmetry_Int_Tables_number       1
_space_group_crystal_system       triclinic
_cell_length_a                    14.132603
_cell_length_b                    15.002961
_cell_length_c                    15.38546
_cell_angle_alpha                 89.631725
_cell_angle_beta                  68.12327
_cell_angle_gamma                 89.683919
_cell_volume                      3027.19500834

loop_
_atom_site_label
_atom_site_type_symbol
_atom_type_description
_atom_site_fract_x
_atom_site_fract_y
_atom_site_fract_z
_atom_type_partial_charge
C1    C     C_R   0.499667 0.673269 0.500162 0.903285
C2    C     C_R   0.500284 0.326729 0.499955 0.916341
C3    C     C_R   0.382254 0.486704 0.107081 -0.232461
C4    C     C_R   0.616626 0.483223 0.893376 -0.226263
C5    C     C_R   0.305402 0.490669 0.070307 0.488167
C6    C     C_R   0.693573 0.490666 0.929353 0.517173
C7    C     C_R   0.427295 0.185759 0.476861 -0.136181
C8    C     C_R   0.572515 0.814223 0.523506 -0.151073
C9    C     C_R   0.501442 0.230871 0.498648 -0.052147
C10   C     C_R   0.498437 0.769120 0.501610 -0.060261
C11   C     C_R   0.576610 0.184770 0.519319 -0.225416
C12   C     C_R   0.423299 0.815227 0.480893 -0.227282
C13   C     C_R   0.579603 0.092063 0.517244 0.003118
C14   C     C_R   0.420284 0.907931 0.483007 0.001164
C15   C     C_R   0.501491 0.046416 0.498742 0.021123
C16   C     C_R   0.498377 0.953576 0.501540 0.023581
C17   C     C_R   0.426124 0.093727 0.477665 0.030184
C18   C     C_R   0.573723 0.906262 0.522650 0.027782
C19   C     C_R   0.656169 0.043447 0.536115 0.445657
C20   C     C_R   0.343724 0.956545 0.464123 0.445613
C21   C     C_R   0.650572 0.951087 0.540939 -0.181393
C22   C     C_R   0.349295 0.048906 0.459342 -0.174093
C23   C     C_R   0.436472 0.504364 0.675878 0.950707
C24   C     C_R   0.563536 0.496500 0.324248 0.958800
C25   C     C_R   0.176988 0.447606 0.562091 -0.143116
C26   C     C_R   0.822726 0.552724 0.438037 -0.112038
C27   C     C_R   0.226785 0.555161 0.439563 0.610889
C28   C     C_R   0.773466 0.444781 0.560200 0.612254
C29   C     C_R   0.126639 0.554849 0.436676 -0.177626
C30   C     C_R   0.873298 0.445976 0.563705 -0.162122
C31   C     C_R   0.050000 0.501835 0.501570 0.027943
C32   C     C_R   0.949047 0.501156 0.500655 0.028448
C33   C     C_R   0.074529 0.449027 0.566911 -0.089608
C34   C     C_R   0.924021 0.555176 0.436373 -0.094683
C35   C     C_R   0.101614 0.604688 0.370179 -0.196414
C36   C     C_R   0.898357 0.395994 0.630104 -0.210940
C37   C     C_R   0.001922 0.608066 0.371237 0.503854
C38   C     C_R   0.996046 0.398204 0.633780 0.498474
C39   C     C_R   0.397204 0.513798 0.777498 -0.237477
C40   C     C_R   0.603345 0.489443 0.222771 -0.221366
C41   C     C_R   0.260392 0.512692 0.929497 0.420132
C42   C     C_R   0.732947 0.524695 0.071306 0.432121
C43   C     C_R   0.293634 0.505395 0.832002 -0.357334
C44   C     C_R   0.698381 0.525041 0.169127 -0.359524
C45   C     C_R   0.464177 0.535870 0.821281 0.407427
C46   C     C_R   0.542412 0.452544 0.178927 0.408161
C47   C     C_R   0.437827 0.509744 0.914944 -0.112560
C48   C     C_R   0.563762 0.475287 0.085181 -0.126351
C49   C     C_R   0.332756 0.503706 0.972908 -0.069934
C50   C     C_R   0.665617 0.497166 0.027399 -0.071129
C51   C     C_R   0.513586 0.492785 0.951778 0.082672
C52   C     C_R   0.485995 0.482512 0.048691 0.076542
H1    H     H_    0.200230 0.404755 0.607257 0.157657
H2    H     H_    0.800481 0.591125 0.389171 0.150897
H3    H     H_    0.158966 0.642773 0.316280 0.193980
H4    H     H_    0.841272 0.356974 0.683218 0.185496
H5    H     H_    0.745556 0.552303 0.203978 0.214043
H6    H     H_    0.238677 0.500497 0.798517 0.221760
H7    H     H_    0.359675 0.487425 0.182114 0.205088
H8    H     H_    0.637862 0.473103 0.819067 0.187186
H9    H     H_    0.369657 0.222254 0.460242 0.165258
H10   H     H_    0.630124 0.777714 0.540174 0.184965
H11   H     H_    0.630491 0.222033 0.539325 0.180147
H12   H     H_    0.369464 0.777972 0.460813 0.180702
H13   H     H_    0.708646 0.914081 0.556359 0.185126
H14   H     H_    0.291225 0.085915 0.443917 0.183543
N1    N     N_R   0.249980 0.499930 0.499960 -0.100477
N2    N     N_R   0.750020 0.500070 0.500040 -0.100963
O1    O     O_R   0.419720 0.632140 0.499980 -0.597144
O2    O     O_R   0.580280 0.367860 0.500020 -0.594219
O3    O     O_R   0.580270 0.632160 0.499970 -0.617970
O4    O     O_R   0.419730 0.367840 0.500030 -0.620764
O5    O     O_R   0.373870 0.499980 0.632250 -0.640220
O6    O     O_R   0.626130 0.500020 0.367750 -0.635822
O7    O     O_R   0.534420 0.500000 0.632240 -0.517575
O8    O     O_R   0.465580 0.500000 0.367760 -0.512924
Zn1   Zn    Zn3+2 0.392800 0.499980 0.500010 1.032023
Zn2   Zn    Zn3+2 0.607200 0.500020 0.499990 1.047124
O9    O     O_3   0.204766 0.478671 0.128434 -0.665557
H15   H     H_    0.199983 0.468998 0.193779 0.346393
O10   O     O_3   0.794592 0.487413 0.870008 -0.663897
H16   H     H_    0.799371 0.487542 0.804079 0.343629
O11   O     O_3   0.302944 0.609881 0.382589 -0.742326
H17   H     H_    0.272134 0.667311 0.374972 0.309642
O12   O     O_3   0.697782 0.389214 0.616420 -0.749672
H18   H     H_    0.729156 0.331927 0.623562 0.309109
O13   O     O_3   0.985423 0.663071 0.306028 -0.697163
H19   H     H_    0.915971 0.688472 0.333776 0.323970
O14   O     O_3   0.010365 0.349970 0.704585 -0.718333
H20   H     H_    0.060882 0.381119 0.723783 0.346843
S1    S     S_3+6 0.467575 0.356143 0.228842 0.027927
O15   O     O_2   0.451201 0.302413 0.153513 -0.262251
O16   O     O_2   0.523669 0.299730 0.275200 -0.314324
O17   O     O_3   0.353540 0.384790 0.309491 -0.570193
H21   H     H_    0.321921 0.327825 0.338611 0.374410
S2    S     S_3+6 0.549984 0.626914 0.775735 0.028926
O18   O     O_2   0.650855 0.594752 0.707013 -0.316799
O19   O     O_2   0.504423 0.691355 0.726839 -0.311199
O20   O     O_3   0.568829 0.680113 0.863837 -0.530165
H22   H     H_    0.620635 0.726134 0.832897 0.397154
S3    S     S_3+6 0.134034 0.548724 0.988632 0.154687
O21   O     O_2   0.068638 0.469678 0.032887 -0.147001
O22   O     O_2   0.128130 0.615313 0.063153 -0.199215
O23   O     O_3   0.092436 0.597765 0.910797 -0.463482
H23   H     H_    0.131940 0.653735 0.892403 0.358154
S4    S     S_3+6 0.854194 0.570403 0.009437 0.142259
O24   O     O_2   0.923383 0.496100 0.957464 -0.118146
O25   O     O_2   0.847924 0.639429 0.940457 -0.251759
O26   O     O_3   0.901849 0.617672 0.083236 -0.454643
H24   H     H_    0.864255 0.674682 0.102067 0.350661
O27   O     O_3   0.737327 0.082800 0.550094 -0.737314
H25   H     H_    0.758833 0.135565 0.508571 0.333717
O28   O     O_3   0.262592 0.917187 0.450104 -0.736262
H26   H     H_    0.241086 0.864413 0.491614 0.332484

loop_
_geom_bond_atom_site_label_1
_geom_bond_atom_site_label_2
_ccdc_geom_bond_type
O13   H19   S    
S3    O21   D    
O2    Zn2   S    
C34   C37   A    
O1    Zn1   S    
O27   H25   S    
N1    Zn1   S    
O10   H16   S    
C47   C49   A    
O12   H18   S    
C40   C46   A    
C38   O14   S    
C1    O3    A    
C35   C37   A    
C25   H1    S    
C11   H11   S    
C20   O28   S    
C12   H12   S    
C27   C29   A    
S4    O24   D    
C15   C16   A    
C18   C21   A    
S2    O20   S    
C7    C9    A    
C22   H14   S    
C43   H6    S    
C26   C34   A    
C7    H9    S    
O11   H17   S    
C7    C17   A    
C25   N1    A    
C31   C33   A    
C5    O9    S    
C39   C45   A    
C21   H13   S    
C48   C50   A    
S3    O22   D    
C6    O10   S    
C41   C43   A    
C5    C49   A    
C42   C44   A    
C23   O5    A    
C2    O4    A    
C26   H2    S    
C41   C49   A    
O23   H23   S    
C45   C47   A    
N2    Zn2   S    
C46   C48   A    
C13   C19   A    
C4    C51   A    
C35   H3    S    
C51   C52   A    
C14   C20   A    
O8    Zn1   S    
C4    C6    A    
C45   S2    S    
C23   O7    A    
S1    O15   D    
C24   O8    A    
C39   C43   A    
C46   S1    S    
C1    O1    A    
S2    O19   D    
C32   C34   A    
O4    Zn1   S    
C36   H4    S    
S1    O16   D    
C9    C11   A    
C31   C32   A    
C40   C44   A    
C44   H5    S    
S2    O18   D    
C4    H8    S    
C6    C50   A    
C42   S4    S    
C10   C12   A    
C42   C50   A    
C16   C18   A    
C20   C22   A    
S3    O23   S    
C13   C15   A    
C14   C16   A    
O28   H26   S    
C15   C17   A    
C28   N2    A    
C37   O13   S    
C1    C10   S    
C33   C38   A    
C12   C14   A    
C3    C5    A    
C47   C51   A    
C3    C52   A    
C19   O27   S    
C29   C35   A    
C17   C22   A    
O20   H22   S    
C30   C36   A    
C26   N2    A    
C27   O11   S    
C28   C30   A    
C29   C31   A    
O26   H24   S    
S1    O17   S    
C30   C32   A    
C11   C13   A    
C24   O6    A    
S4    O25   D    
C23   C39   S    
C36   C38   A    
C24   C40   S    
C41   S3    S    
O17   H21   S    
O7    Zn2   S    
C8    C18   A    
C27   N1    A    
O9    H15   S    
C48   C52   A    
C8    C10   A    
O6    Zn2   S    
C8    H10   S    
C28   O12   S    
O5    Zn1   S    
O14   H20   S    
C2    O2    A    
C2    C9    S    
O3    Zn2   S    
C25   C33   A    
C19   C21   A    
S4    O26   S    
C3    H7    S    
