data_mof_unit_54851.cif
_audit_creation_date              2012-12-11T16:58:18-0500
_audit_creation_method            fapswitch 2.2
_symmetry_space_group_name_H-M    P1
_symmetry_Int_Tables_number       1
_space_group_crystal_system       triclinic
_cell_length_a                    16.944576
_cell_length_b                    7.349647
_cell_length_c                    16.867641
_cell_angle_alpha                 89.999539
_cell_angle_beta                  99.800035
_cell_angle_gamma                 90.000787
_cell_volume                      2069.98657599

loop_
_atom_site_label
_atom_site_type_symbol
_atom_type_description
_atom_site_fract_x
_atom_site_fract_y
_atom_site_fract_z
_atom_type_partial_charge
O1    O     O_R   0.413450 0.494370 0.415710 -0.524899
O2    O     O_R   0.586550 0.994370 0.584290 -0.524898
O3    O     O_R   0.578420 0.819350 0.429360 -0.530413
O4    O     O_R   0.421580 0.319350 0.570640 -0.530412
C1    C     C_R   0.604312 0.655757 0.413886 0.724406
C2    C     C_R   0.395689 0.155755 0.586115 0.724406
O5    O     O_R   0.413570 0.823780 0.406240 -0.557365
O6    O     O_R   0.586430 0.323780 0.593760 -0.557372
O7    O     O_R   0.420530 0.998740 0.561000 -0.541469
O8    O     O_R   0.579470 0.498740 0.439000 -0.541466
C3    C     C_R   0.386015 0.655811 0.384586 0.700569
C4    C     C_R   0.613984 0.155811 0.615414 0.700572
O9    O     O_3   0.502480 0.662320 0.550800 -0.385801
O10   O     O_3   0.497520 0.162320 0.449200 -0.385793
V1    V     V_3+5 0.499540 0.935370 0.490580 1.409139
V2    V     V_3+5 0.500460 0.435370 0.509420 1.409134
C5    C     C_R   0.725549 0.984212 0.699739 -0.070370
C6    C     C_R   0.274451 0.484208 0.300259 -0.070376
C7    C     C_R   0.685126 0.146790 0.680774 -0.075782
C8    C     C_R   0.314873 0.646787 0.319227 -0.075784
C9    C     C_R   0.715372 0.298671 0.726243 -0.143858
C10   C     C_R   0.284624 0.798673 0.273763 -0.143867
H1    H     H_    0.688851 0.428470 0.711830 0.140463
H2    H     H_    0.311143 0.928473 0.288180 0.140470
C11   C     C_R   0.777688 0.282549 0.793146 -0.148677
C12   C     C_R   0.222308 0.782553 0.206859 -0.148664
H3    H     H_    0.790749 0.396961 0.833249 0.186834
H4    H     H_    0.209246 0.896967 0.166757 0.186850
C13   C     C_R   0.820444 0.119277 0.810678 -0.145021
C14   C     C_R   0.179554 0.619278 0.189324 -0.145017
C15   C     C_R   0.794066 0.971006 0.759294 -0.057310
C16   C     C_R   0.205933 0.471004 0.240705 -0.057331
C17   C     C_3   0.768071 0.781817 0.777944 0.660134
C18   C     C_3   0.231926 0.281820 0.222050 0.660152
C19   C     C_3   0.691475 0.803750 0.714509 0.246238
C20   C     C_3   0.308524 0.303749 0.285484 0.246238
H5    H     H_    0.687592 0.718634 0.659231 0.081957
H6    H     H_    0.312407 0.218629 0.340761 0.081965
C21   C     C_R   0.333457 0.146750 0.638140 -0.139938
C22   C     C_R   0.666546 0.646759 0.361862 -0.139940
C23   C     C_R   0.167189 0.117712 0.863644 -0.094276
C24   C     C_R   0.832812 0.617707 0.136358 -0.094275
C25   C     C_R   0.310412 0.126844 0.856701 0.493789
C26   C     C_R   0.689589 0.626821 0.143304 0.493803
C27   C     C_R   0.247327 0.111205 0.901167 -0.284307
C28   C     C_R   0.752675 0.611175 0.098837 -0.284315
C29   C     C_R   0.149303 0.119921 0.779459 -0.219642
C30   C     C_R   0.850700 0.619937 0.220544 -0.219638
C31   C     C_R   0.211207 0.125195 0.733157 0.040050
C32   C     C_R   0.788797 0.625210 0.266846 0.040045
C33   C     C_R   0.292454 0.139170 0.771430 -0.024181
C34   C     C_R   0.707550 0.639168 0.228573 -0.024175
C35   C     C_R   0.353350 0.159129 0.723057 0.398683
C36   C     C_R   0.646653 0.659127 0.276945 0.398689
C37   C     C_R   0.253300 0.123878 0.602215 -0.237936
C38   C     C_R   0.746703 0.623904 0.397789 -0.237936
C39   C     C_R   0.192705 0.117853 0.648930 -0.151089
C40   C     C_R   0.807299 0.617884 0.351073 -0.151088
H7    H     H_    0.237367 0.114735 0.537342 0.128977
H8    H     H_    0.762637 0.614771 0.462662 0.128980
H9    H     H_    0.131077 0.104947 0.619040 0.125229
H10   H     H_    0.868927 0.604991 0.380964 0.125229
H11   H     H_    0.260675 0.099566 0.965973 0.137345
H12   H     H_    0.739326 0.599514 0.034033 0.137339
H13   H     H_    0.087191 0.116560 0.750106 0.110781
H14   H     H_    0.912812 0.616592 0.249896 0.110787
O11   O     O_R   0.920630 0.775410 0.061150 -0.534241
O12   O     O_R   0.079370 0.275410 0.938850 -0.534243
O13   O     O_R   0.086500 0.441450 0.093690 -0.532751
O14   O     O_R   0.913500 0.941450 0.906310 -0.532754
C41   C     C_R   0.112026 0.609599 0.118230 0.669151
C42   C     C_R   0.887972 0.109598 0.881771 0.669138
O15   O     O_R   0.921670 0.445960 0.070740 -0.538601
O16   O     O_R   0.078330 0.945960 0.929260 -0.538598
O17   O     O_R   0.913380 0.271130 0.915780 -0.544415
O18   O     O_R   0.086620 0.771130 0.084220 -0.544411
C43   C     C_R   0.897050 0.613512 0.086772 0.713833
C44   C     C_R   0.102950 0.113514 0.913229 0.713853
O19   O     O_3   0.997500 0.603030 0.949220 -0.397580
O20   O     O_3   0.002500 0.103030 0.050780 -0.397567
V3    V     V_3+5 0.000470 0.329940 0.009420 1.370550
V4    V     V_3+5 0.999530 0.829940 0.990580 1.370545
O21   O     O_3   0.760780 0.754566 0.861108 -0.584918
C45   C     C_3   0.705009 0.872754 0.890972 0.061115
H15   H     H_    0.653631 0.788281 0.901949 0.158440
H16   H     H_    0.681443 0.985240 0.850022 0.158800
C46   C     C_3   0.740758 0.968389 0.969727 -0.317172
H17   H     H_    0.782632 0.878860 0.008288 0.227019
H18   H     H_    0.774407 0.090661 0.957620 0.178983
C47   C     C_3   0.675381 0.035395 0.014606 -0.845201
H19   H     H_    0.638019 0.139418 0.977970 0.221360
H20   H     H_    0.703164 0.097097 0.072796 0.238710
H21   H     H_    0.636171 0.921972 0.026646 0.275387
O22   O     O_3   0.239214 0.254584 0.138884 -0.584905
C48   C     C_3   0.294987 0.372778 0.109022 0.061117
H22   H     H_    0.346361 0.288307 0.098039 0.158446
H23   H     H_    0.318557 0.485254 0.149976 0.158802
C49   C     C_3   0.259238 0.468434 0.030271 -0.317170
H24   H     H_    0.217363 0.378915 0.991704 0.227019
H25   H     H_    0.225591 0.590701 0.042385 0.178985
C50   C     C_3   0.324615 0.535463 0.985395 -0.845231
H26   H     H_    0.361986 0.639454 0.022041 0.221375
H27   H     H_    0.296833 0.597211 0.927216 0.238705
H28   H     H_    0.363815 0.422044 0.973336 0.275402
O23   O     O_3   0.812217 0.643359 0.745634 -0.620410
C51   C     C_3   0.894340 0.635203 0.777339 0.080609
H29   H     H_    0.912466 0.490244 0.775796 0.148700
H30   H     H_    0.905416 0.673791 0.840229 0.201735
C52   C     C_3   0.944565 0.744570 0.726406 -0.359747
H31   H     H_    0.920950 0.722429 0.661513 0.207933
H32   H     H_    0.941209 0.891977 0.739484 0.178677
C53   C     C_3   0.032442 0.686945 0.743463 -0.790108
H33   H     H_    0.057765 0.707153 0.807959 0.254034
H34   H     H_    0.067261 0.770171 0.706643 0.225056
H35   H     H_    0.038552 0.541433 0.727696 0.223298
O24   O     O_3   0.187783 0.143350 0.254358 -0.620411
C54   C     C_3   0.105654 0.135217 0.222675 0.080579
H36   H     H_    0.087524 0.990259 0.224210 0.148705
H37   H     H_    0.094560 0.173839 0.159791 0.201736
C55   C     C_3   0.055451 0.244561 0.273637 -0.359790
H38   H     H_    0.079074 0.222357 0.338523 0.207945
H39   H     H_    0.058821 0.391976 0.260583 0.178695
C56   C     C_3   0.967568 0.186985 0.256584 -0.790163
H40   H     H_    0.942240 0.207252 0.192093 0.254019
H41   H     H_    0.932764 0.270199 0.293421 0.225067
H42   H     H_    0.961443 0.041468 0.272330 0.223318
O25   O     O_3   0.617817 0.822001 0.742523 -0.585879
C57   C     C_3   0.583556 0.650578 0.752070 -0.287418
H43   H     H_    0.568867 0.578429 0.693845 0.189556
H44   H     H_    0.526458 0.670394 0.774555 0.158553
H45   H     H_    0.622444 0.567253 0.797880 0.147160
O26   O     O_3   0.382182 0.322000 0.257470 -0.585875
C58   C     C_3   0.416432 0.150573 0.247909 -0.287473
H46   H     H_    0.431146 0.078430 0.306132 0.189567
H47   H     H_    0.473512 0.170382 0.225392 0.158555
H48   H     H_    0.377526 0.067244 0.202116 0.147167
O27   O     O_3   0.430047 0.209710 0.758069 -0.549197
C59   C     C_3   0.479698 0.055049 0.766589 -0.140469
H49   H     H_    0.451348 0.936055 0.791398 0.125237
H50   H     H_    0.535285 0.088264 0.809079 0.170236
H51   H     H_    0.496821 0.018335 0.708290 0.159959
O28   O     O_3   0.569956 0.709694 0.241931 -0.549201
C60   C     C_3   0.520307 0.555029 0.233418 -0.140461
H52   H     H_    0.548659 0.436028 0.208634 0.125233
H53   H     H_    0.464731 0.588208 0.190916 0.170243
H54   H     H_    0.503172 0.518359 0.291707 0.159965
O29   O     O_3   0.389042 0.142774 0.896093 -0.539771
C61   C     C_3   0.411086 0.991950 0.946879 -0.283668
H55   H     H_    0.390917 0.861029 0.916937 0.135690
H56   H     H_    0.388607 0.006963 0.004636 0.142597
H57   H     H_    0.477405 0.986938 0.961557 0.176902
O30   O     O_3   0.610958 0.642726 0.103915 -0.539769
C62   C     C_3   0.588922 0.491917 0.053117 -0.283667
H58   H     H_    0.609123 0.360991 0.083039 0.135692
H59   H     H_    0.611376 0.507002 0.995347 0.142598
H60   H     H_    0.522602 0.486850 0.038465 0.176912

loop_
_geom_bond_atom_site_label_1
_geom_bond_atom_site_label_2
_ccdc_geom_bond_type
C40   H10   S    
C60   H54   S    
C46   H17   S    
C50   H26   S    
C37   H7    S    
C54   H36   S    
O29   C61   S    
O1    C3    A    
C45   C46   S    
O2    C4    A    
C57   H43   S    
C2    O7    A    
C53   H34   S    
C14   C41   S    
C48   C49   S    
C56   H40   S    
C29   C31   A    
O5    C3    A    
C26   O30   S    
C35   O27   S    
O12   V3    S    
C19   H5    S    
C45   H16   S    
C30   C32   A    
C54   H37   S    
C41   O18   A    
C56   H41   S    
C51   H29   S    
C18   O24   S    
C60   H52   S    
C31   C39   A    
O24   C54   S    
C24   C28   A    
O13   C41   A    
C52   H32   S    
C5    C7    A    
C21   C37   A    
C48   H22   S    
C26   C28   A    
O26   C58   S    
C31   C33   A    
O11   C43   A    
C58   H48   S    
C32   C34   A    
C15   C17   S    
C25   O29   S    
C62   H59   S    
C18   C20   S    
C55   C56   S    
C13   C42   S    
C26   C34   A    
O5    V1    S    
O6    V2    S    
C11   C13   A    
O16   V4    S    
C42   O17   A    
O15   V3    S    
C53   H33   S    
C34   C36   A    
O12   C44   A    
C3    C8    S    
C32   C40   A    
C61   H57   S    
C17   O23   S    
C61   H55   S    
O4    C2    A    
C52   C53   S    
O18   V4    S    
C23   C44   S    
O17   V3    S    
C56   H42   S    
C22   C38   A    
C27   H11   S    
C38   H8    S    
C22   C36   A    
C28   H12   S    
C33   C35   A    
C16   C18   S    
O4    V2    S    
C17   O21   S    
C47   H20   S    
O21   C45   S    
O10   V1    S    
O6    C4    A    
C23   C29   A    
O1    V2    S    
C24   C30   A    
C45   H15   S    
C62   H60   S    
C19   O25   S    
O2    V1    S    
C25   C27   A    
C59   H50   S    
C24   C43   S    
C36   O28   S    
C8    C10   A    
C12   C14   A    
C50   H28   S    
C49   H25   S    
C37   C39   A    
O16   C44   A    
C58   H46   S    
C5    C15   A    
C10   H2    S    
C54   C55   S    
C6    C16   A    
O25   C57   S    
C57   H45   S    
O3    V1    S    
C55   H38   S    
C55   H39   S    
C47   H21   S    
O27   C59   S    
C60   H53   S    
C9    C11   A    
O15   C43   A    
C20   O26   S    
C7    C9    A    
C2    C21   S    
C18   O22   S    
C61   H56   S    
O20   V3    S    
O3    C1    A    
C59   H51   S    
C57   H44   S    
O19   V4    S    
C48   H23   S    
C39   H9    S    
C11   H3    S    
C49   C50   S    
O23   C51   S    
C12   H4    S    
C9    H1    S    
O9    V2    S    
C1    O8    A    
C13   C15   A    
O8    V2    S    
C52   H31   S    
C14   C16   A    
C25   C33   A    
C47   H19   S    
C21   C35   A    
C51   H30   S    
C4    C7    S    
C20   H6    S    
C17   C19   S    
C38   C40   A    
C6    C8    A    
O7    V1    S    
O22   C48   S    
O14   V4    S    
O13   V3    S    
C59   H49   S    
O30   C62   S    
O11   V4    S    
C50   H27   S    
C49   H24   S    
C10   C12   A    
C46   C47   S    
C58   H47   S    
C46   H18   S    
C23   C27   A    
O28   C60   S    
O14   C42   A    
C5    C19   S    
C30   H14   S    
C62   H58   S    
C1    C22   S    
C6    C20   S    
C29   H13   S    
C53   H35   S    
C51   C52   S    
