data_mof_unit_44795.cif
_audit_creation_date              2012-12-11T15:09:41-0500
_audit_creation_method            fapswitch 2.2
_symmetry_space_group_name_H-M    P1
_symmetry_Int_Tables_number       1
_space_group_crystal_system       triclinic
_cell_length_a                    20.960153
_cell_length_b                    7.1292
_cell_length_c                    14.015538
_cell_angle_alpha                 90.000561
_cell_angle_beta                  98.212981
_cell_angle_gamma                 89.999091
_cell_volume                      2072.84987668

loop_
_atom_site_label
_atom_site_type_symbol
_atom_type_description
_atom_site_fract_x
_atom_site_fract_y
_atom_site_fract_z
_atom_type_partial_charge
O1    O     O_R   0.447130 0.507140 0.597350 -0.536710
O2    O     O_R   0.552870 0.007140 0.402650 -0.536710
O3    O     O_R   0.578910 0.181280 0.586990 -0.538889
O4    O     O_R   0.421090 0.681280 0.413010 -0.538889
C1    C     C_R   0.604474 0.344478 0.607433 0.725421
C2    C     C_R   0.395525 0.844479 0.392566 0.725421
O5    O     O_R   0.449230 0.177860 0.608640 -0.539471
O6    O     O_R   0.550770 0.677860 0.391360 -0.539475
O7    O     O_R   0.422260 0.000770 0.424450 -0.535976
O8    O     O_R   0.577740 0.500770 0.575550 -0.535974
C3    C     C_R   0.433232 0.346266 0.634959 0.710565
C4    C     C_R   0.566769 0.846262 0.365041 0.710561
O9    O     O_3   0.491310 0.336980 0.439550 -0.374514
O10   O     O_3   0.508690 0.836980 0.560450 -0.374511
V1    V     V_3+5 0.501610 0.064760 0.511210 1.442117
V2    V     V_3+5 0.498390 0.564760 0.488790 1.442116
C5    C     C_R   0.615056 0.852309 0.117733 0.394612
C6    C     C_R   0.384945 0.352632 0.882265 0.394621
H1    H     H_    0.525381 0.849476 0.174884 0.134306
H2    H     H_    0.474621 0.349818 0.825114 0.134292
H3    H     H_    0.699867 0.898288 0.993019 0.133246
H4    H     H_    0.300129 0.398726 0.006961 0.133245
C7    C     C_R   0.606308 0.853955 0.287717 -0.113709
C8    C     C_R   0.393692 0.353980 0.712281 -0.113706
C9    C     C_R   0.918033 0.841465 0.302363 -0.201449
C10   C     C_R   0.081968 0.341282 0.697647 -0.201450
C11   C     C_R   0.880832 0.825721 0.375904 -0.110996
C12   C     C_R   0.119170 0.325459 0.624112 -0.110998
C13   C     C_R   0.814024 0.828327 0.355446 -0.134905
C14   C     C_R   0.185979 0.328133 0.644567 -0.134903
C15   C     C_R   0.782075 0.849341 0.259651 0.042796
C16   C     C_R   0.217926 0.349300 0.740353 0.042796
C17   C     C_R   0.820383 0.863993 0.183357 0.034565
C18   C     C_R   0.179617 0.364047 0.816640 0.034569
C19   C     C_R   0.713367 0.853228 0.237866 0.034878
C20   C     C_R   0.286633 0.353252 0.762135 0.034877
C21   C     C_R   0.683486 0.859490 0.140099 -0.006940
C22   C     C_R   0.316515 0.359706 0.859898 -0.006935
C23   C     C_R   0.721918 0.879633 0.066972 -0.273961
C24   C     C_R   0.278080 0.379936 0.933016 -0.273950
C25   C     C_R   0.789308 0.882706 0.086732 0.310918
C26   C     C_R   0.210690 0.382922 0.913257 0.310910
C27   C     C_R   0.673131 0.853313 0.310638 -0.203755
C28   C     C_R   0.326870 0.353224 0.689363 -0.203750
C29   C     C_R   0.577468 0.853182 0.192018 -0.152440
C30   C     C_R   0.422533 0.353420 0.807979 -0.152431
C31   C     C_R   0.888927 0.859500 0.206829 -0.074128
C32   C     C_R   0.111074 0.359477 0.793173 -0.074125
H5    H     H_    0.691769 0.855675 0.386293 0.105350
H6    H     H_    0.308231 0.355427 0.613707 0.105344
H7    H     H_    0.970095 0.837593 0.319945 0.098735
H8    H     H_    0.029908 0.337342 0.680068 0.098737
H9    H     H_    0.789097 0.809963 0.416749 0.105958
H10   H     H_    0.210906 0.309702 0.583269 0.105959
H11   H     H_    0.903982 0.809543 0.449609 0.117688
H12   H     H_    0.096022 0.309159 0.550414 0.117689
C33   C     C_1   0.166651 0.857135 0.168161 -0.174928
C34   C     C_1   0.833349 0.357138 0.831839 -0.174909
C35   C     C_1   0.219062 0.854836 0.219228 -0.001949
C36   C     C_1   0.780938 0.354838 0.780772 -0.001943
C37   C     C_1   0.280803 0.853374 0.279278 0.001777
C38   C     C_1   0.719197 0.353373 0.720722 0.001771
C39   C     C_1   0.333145 0.851061 0.330543 -0.191484
C40   C     C_1   0.666855 0.351058 0.669457 -0.191482
O11   O     O_R   0.922300 0.202240 0.924350 -0.523472
O12   O     O_R   0.077700 0.702240 0.075650 -0.523458
O13   O     O_R   0.050780 0.535130 0.891350 -0.536659
O14   O     O_R   0.949220 0.035130 0.108650 -0.536690
C41   C     C_R   0.067969 0.368125 0.866205 0.787548
C42   C     C_R   0.932031 0.868129 0.133796 0.787550
O15   O     O_R   0.921100 0.531560 0.912990 -0.535971
O16   O     O_R   0.078900 0.031560 0.087010 -0.535985
O17   O     O_R   0.947120 0.708470 0.097370 -0.537888
O18   O     O_R   0.052880 0.208470 0.902630 -0.537915
C43   C     C_R   0.895852 0.363571 0.893512 0.712912
C44   C     C_R   0.104148 0.863570 0.106488 0.712923
O19   O     O_3   0.008710 0.375800 0.060400 -0.375424
O20   O     O_3   0.991290 0.875800 0.939600 -0.375419
V3    V     V_3+5 0.998380 0.648080 0.988790 1.489036
V4    V     V_3+5 0.001620 0.148080 0.011210 1.488993
O21   O     O_3   0.582955 0.843704 0.024807 -0.633307
H13   H     H_    0.608146 0.763381 0.986294 0.286479
O22   O     O_3   0.417050 0.344232 0.975195 -0.633310
H14   H     H_    0.391876 0.263944 0.013750 0.286466
O23   O     O_3   0.825016 0.904337 0.011710 -0.645078
H15   H     H_    0.796011 0.915055 0.949538 0.285125
O24   O     O_3   0.174980 0.404632 0.988271 -0.645077
H16   H     H_    0.203984 0.415472 0.050437 0.285127

loop_
_geom_bond_atom_site_label_1
_geom_bond_atom_site_label_2
_ccdc_geom_bond_type
O14   V4    S    
C14   C16   A    
O24   H16   S    
C7    C29   A    
C11   C13   A    
O1    C3    A    
C32   C41   S    
O16   C44   A    
O2    C4    A    
C2    O7    A    
O15   V3    S    
O21   H13   S    
C12   H12   S    
C23   C25   A    
O23   H15   S    
O5    C3    A    
O12   V3    S    
C14   H10   S    
C4    C7    S    
C13   H9    S    
C16   C20   A    
C33   C44   S    
C19   C21   A    
C5    C29   A    
C11   H11   S    
C33   C35   T    
C34   C36   T    
C3    C8    S    
C7    C27   A    
C36   C38   S    
C37   C39   T    
C38   C40   T    
C18   C26   A    
C15   C17   A    
C19   C27   A    
C9    C31   A    
C5    O21   S    
C10   C32   A    
C24   C26   A    
O12   C44   A    
O6    V2    S    
O11   V4    S    
O18   V4    S    
C13   C15   A    
C6    C30   A    
C34   C43   S    
O19   V3    S    
C35   C37   S    
O13   V3    S    
O4    C2    A    
O20   V3    S    
C27   H5    S    
O5    V1    S    
C1    C40   S    
O13   C41   A    
C16   C18   A    
C2    C39   S    
O4    V2    S    
C9    H7    S    
C31   C42   S    
C10   H8    S    
O22   H14   S    
H3    C23   S    
O6    C4    A    
H4    C24   S    
C42   O17   A    
C6    O22   S    
O17   V3    S    
C41   O18   A    
O1    V2    S    
C5    C21   A    
O2    V1    S    
O14   C42   A    
C17   C31   A    
C15   C19   A    
C20   C28   A    
C18   C32   A    
O3    V1    S    
O19   V4    S    
C28   H6    S    
O3    C1    A    
H1    C29   S    
C9    C11   A    
C25   O23   S    
C10   C12   A    
O11   C43   A    
C8    C30   A    
C12   C14   A    
C6    C22   A    
C17   C25   A    
C1    O8    A    
C21   C23   A    
O8    V2    S    
O15   C43   A    
C22   C24   A    
C8    C28   A    
C20   C22   A    
O20   V4    S    
O7    V1    S    
O16   V4    S    
O9    V2    S    
O10   V1    S    
C26   O24   S    
H2    C30   S    
