data_mof_unit_15717.cif
_audit_creation_date              2013-03-05T16:19:20-0500
_audit_creation_method            fapswitch 2.2
_symmetry_space_group_name_H-M    P1
_symmetry_Int_Tables_number       1
_space_group_crystal_system       triclinic
_cell_length_a                    10.810126
_cell_length_b                    9.772533
_cell_length_c                    23.415723
_cell_angle_alpha                 90.837641
_cell_angle_beta                  92.769871
_cell_angle_gamma                 90.157649
_cell_volume                      2470.5222452

loop_
_atom_site_label
_atom_site_type_symbol
_atom_site_description
_atom_site_fract_x
_atom_site_fract_y
_atom_site_fract_z
_atom_type_partial_charge
O1    O     O_R   0.314910 0.616040 0.499990 -0.616469
O2    O     O_R   0.314910 0.383960 0.499990 -0.637665
C1    C     C_R   0.259152 0.499287 0.492093 0.954589
O3    O     O_R   0.500080 0.616070 0.416130 -0.632463
O4    O     O_R   0.500080 0.383930 0.416130 -0.646636
C2    C     C_R   0.499294 0.499116 0.389351 0.876567
Zn1   Zn    Zn3+2 0.500150 0.654960 0.499970 0.902326
Zn2   Zn    Zn3+2 0.500150 0.345040 0.499970 0.905064
O5    O     O_R   0.685320 0.616040 0.499970 -0.632211
O6    O     O_R   0.685320 0.383960 0.499970 -0.606542
O7    O     O_R   0.500150 0.616010 0.583820 -0.631237
O8    O     O_R   0.500150 0.383990 0.583820 -0.634338
C3    C     C_R   0.742330 0.499862 0.496749 0.957891
C4    C     C_R   0.500359 0.500786 0.610652 0.857801
C5    C     C_R   0.595693 0.501026 0.883227 0.502138
N1    N     N_R   0.485895 0.507290 0.852112 -0.353224
C6    C     C_R   0.374749 0.513914 0.877276 0.513811
C7    C     C_R   0.370848 0.512049 0.936865 -0.064375
C8    C     C_R   0.482543 0.503716 0.969869 -0.021327
C9    C     C_R   0.596434 0.498685 0.942814 -0.002864
C10   C     C_R   0.258078 0.517236 0.963644 -0.150929
C11   C     C_R   0.253619 0.513977 0.023277 0.171106
C12   C     C_R   0.366470 0.505284 0.057314 -0.036000
C13   C     C_R   0.480767 0.500151 0.029870 -0.059419
C14   C     C_R   0.594179 0.491335 0.062206 -0.000961
C15   C     C_R   0.706779 0.486685 0.034807 -0.160953
C16   C     C_R   0.707897 0.490429 0.975632 -0.165403
C17   C     C_R   0.371331 0.501743 0.117682 0.506175
N2    N     N_R   0.482729 0.493607 0.147540 -0.360214
C18   C     C_R   0.592570 0.488070 0.121509 0.499290
O9    O     O_2   0.703367 0.496073 0.856368 -0.548812
O10   O     O_2   0.268734 0.521319 0.844562 -0.550593
H1    H     H_    0.172355 0.523635 0.937848 0.196926
O11   O     O_2   0.267050 0.506254 0.146948 -0.562033
O12   O     O_2   0.699905 0.480332 0.153283 -0.553279
H2    H     H_    0.794527 0.480126 0.058989 0.191702
H3    H     H_    0.796277 0.486450 0.955746 0.189393
C19   C     C_R   0.475176 0.618406 0.237932 -0.107768
H4    H     H_    0.464161 0.713256 0.214915 0.133000
C20   C     C_R   0.480499 0.620160 0.297229 -0.222260
H5    H     H_    0.472568 0.717359 0.319550 0.149990
C21   C     C_R   0.495381 0.497280 0.327084 -0.020532
C22   C     C_R   0.504754 0.372774 0.296934 -0.219997
H6    H     H_    0.516306 0.276791 0.319082 0.149165
C23   C     C_R   0.499729 0.371500 0.237576 -0.102492
H7    H     H_    0.507623 0.275629 0.214277 0.133702
C24   C     C_R   0.484932 0.494264 0.208271 0.334105
C25   C     C_R   0.484940 0.378153 0.761548 0.240918
C26   C     C_R   0.489132 0.378231 0.702144 -0.199398
H8    H     H_    0.486267 0.281670 0.678889 0.150869
C27   C     C_R   0.496212 0.502103 0.672853 -0.082551
C28   C     C_R   0.497212 0.626684 0.703303 -0.227977
H9    H     H_    0.500958 0.723426 0.681645 0.164693
C29   C     C_R   0.493122 0.627431 0.762379 -0.141115
H10   H     H_    0.494685 0.723866 0.785798 0.145447
C30   C     C_R   0.487471 0.504031 0.791433 0.321054
C31   C     C_3   0.082524 0.522199 0.552518 -0.073239
C32   C     C_3   0.071803 0.348662 0.472296 -0.110883
H11   H     H_    0.100619 0.423861 0.574905 0.211247
H12   H     H_    0.107423 0.282401 0.507728 0.185742
C33   C     C_3   0.940701 0.543154 0.554266 0.503150
C34   C     C_3   0.926364 0.346862 0.475277 0.528011
C35   C     C_3   0.065146 0.604654 0.442102 0.303981
C36   C     C_3   0.122655 0.497866 0.488548 -0.152544
C37   C     C_3   0.879824 0.499324 0.492637 -0.115746
C38   C     C_3   0.918061 0.605398 0.445676 0.679901
C39   C     C_3   0.396506 0.081572 0.530955 -0.236060
C40   C     C_3   0.391675 0.920626 0.527507 -0.233604
H13   H     H_    0.306950 0.122823 0.513552 0.158337
H14   H     H_    0.305405 0.891005 0.503626 0.144316
H15   H     H_    0.404357 0.116130 0.576339 0.154703
H16   H     H_    0.382880 0.876552 0.570492 0.160021
H17   H     H_    0.396092 0.111038 0.419235 0.168647
H18   H     H_    0.412150 0.873818 0.415070 0.164862
C41   C     C_3   0.486037 0.078900 0.439864 -0.318962
C42   C     C_3   0.493820 0.917226 0.439793 -0.315557
C43   C     C_3   0.619136 0.083217 0.524533 0.127141
C44   C     C_3   0.614792 0.920682 0.528732 0.137937
N3    N     N_3   0.499750 0.138610 0.498760 -0.052461
N4    N     N_3   0.499750 0.861390 0.498760 -0.045651
H19   H     H_    0.693587 0.107575 0.495005 0.145043
H20   H     H_    0.695936 0.881775 0.506359 0.145954
H21   H     H_    0.559197 0.120406 0.413090 0.151895
H22   H     H_    0.576599 0.883799 0.416886 0.148119
C45   C     C_3   0.163810 0.616279 0.593787 -0.834803
H23   H     H_    0.256551 0.570926 0.602016 0.240868
H24   H     H_    0.176421 0.720870 0.577830 0.238611
H25   H     H_    0.123485 0.622931 0.636444 0.263993
C46   C     C_3   0.128626 0.268940 0.421105 -0.911280
H26   H     H_    0.132842 0.157908 0.430823 0.222791
H27   H     H_    0.077090 0.274318 0.379591 0.249522
H28   H     H_    0.223953 0.301807 0.412848 0.262192
O13   O     O_3   0.896987 0.455001 0.596385 -0.719929
H29   H     H_    0.810119 0.479529 0.603918 0.328793
O14   O     O_3   0.896579 0.257821 0.519663 -0.749015
H30   H     H_    0.926530 0.164382 0.510417 0.325169
C47   C     C_3   0.914413 0.692550 0.574641 -0.845630
H31   H     H_    0.975143 0.770326 0.557003 0.256640
H32   H     H_    0.821769 0.723668 0.562401 0.255228
H33   H     H_    0.923771 0.701829 0.621995 0.243340
C48   C     C_3   0.861115 0.286435 0.418908 -0.792672
H34   H     H_    0.886892 0.337852 0.379663 0.260560
H35   H     H_    0.886326 0.177032 0.413465 0.201109
H36   H     H_    0.759055 0.287881 0.418476 0.249687
C49   C     C_3   0.116532 0.753405 0.450178 -0.790540
H37   H     H_    0.113086 0.791659 0.494300 0.228286
H38   H     H_    0.212096 0.762431 0.435491 0.229536
H39   H     H_    0.063042 0.825985 0.422514 0.239343
C50   C     C_3   0.104471 0.566119 0.380419 -0.847023
H40   H     H_    0.089334 0.652639 0.350545 0.236096
H41   H     H_    0.204380 0.540176 0.380130 0.218656
H42   H     H_    0.050127 0.481723 0.360369 0.265914
O15   O     O_3   0.877967 0.738523 0.461015 -0.829586
H43   H     H_    0.804423 0.765360 0.436742 0.347731
O16   O     O_3   0.857652 0.568458 0.392706 -0.835441
H44   H     H_    0.871166 0.642650 0.365110 0.345289
C51   C     C_3   0.127094 0.519818 0.048025 -0.769047
H45   H     H_    0.110294 0.425764 0.072557 0.268280
H46   H     H_    0.119842 0.612260 0.075765 0.268510
H47   H     H_    0.051446 0.526073 0.014315 0.200032
C52   C     C_3   0.663371 0.154238 0.581897 -0.704695
H48   H     H_    0.679694 0.263711 0.579666 0.298320
H49   H     H_    0.599157 0.136407 0.616456 0.201411
H50   H     H_    0.757042 0.117626 0.595397 0.225452
C53   C     C_3   0.635197 0.871362 0.591306 -0.868551
H51   H     H_    0.649345 0.762102 0.593742 0.273671
H52   H     H_    0.724107 0.908748 0.611067 0.213890
H53   H     H_    0.560204 0.902974 0.619167 0.226018
C54   C     C_3   0.477859 0.244947 0.792730 -0.888065
H54   H     H_    0.476136 0.155654 0.762785 0.229561
H55   H     H_    0.559657 0.234767 0.822876 0.256389
H56   H     H_    0.392293 0.242162 0.817072 0.255406

loop_
_geom_bond_atom_site_label_1
_geom_bond_atom_site_label_2
_geom_bond_distance
_ccdc_geom_bond_type
C40   N4    1.490465 S    
C11   C51   1.511926 S    
C32   C34   1.577193 S    
O13   H29   0.993177 S    
C38   O15   1.419116 S    
C7    C10   1.398270 A    
O14   H30   0.994047 S    
C41   C42   1.582420 S    
C42   H22   1.112678 S    
C47   H31   1.100856 S    
C3    C37   1.494092 S    
C43   C44   1.593559 S    
Zn1   O7    2.005418 S    
C49   H38   1.108136 S    
C15   C16   1.387280 A    
C48   H34   1.100957 S    
H18   C42   1.111713 S    
C18   O12   1.350663 S    
N2    C24   1.421029 S    
C17   N2    1.366040 A    
O15   H43   0.992825 S    
C51   H46   1.110104 S    
C45   H23   1.106768 S    
C19   H4    1.082977 S    
O7    C4    1.297412 A    
C44   N4    1.508199 S    
C31   H11   1.114653 S    
C10   H1    1.083896 S    
C32   H12   1.114508 S    
O16   H44   0.993376 S    
C25   C30   1.405875 A    
C7    C8    1.404977 A    
O5    C3    1.296289 A    
C52   H50   1.107993 S    
C8    C9    1.412226 A    
N1    C6    1.364815 A    
C26   C27   1.403759 A    
C53   H53   1.106737 S    
C12   C13   1.420639 A    
C46   H27   1.098813 S    
C39   H15   1.109603 S    
C40   H16   1.108773 S    
C54   H56   1.110163 S    
C20   C21   1.404065 A    
C35   C38   1.596273 S    
C17   O11   1.347744 S    
C48   H35   1.111115 S    
C10   C11   1.400313 A    
H17   C41   1.112692 S    
O3    Zn1   1.994125 S    
C47   H32   1.074294 S    
C28   C29   1.386082 A    
C23   C24   1.396529 A    
C32   C36   1.591297 S    
C5    C9    1.395417 A    
C49   H39   1.111999 S    
C29   C30   1.395858 A    
C38   O16   1.415099 S    
C45   H24   1.103747 S    
C27   C28   1.401610 A    
C39   N3    1.488231 S    
C13   C14   1.413001 A    
O3    C2    1.295392 A    
C51   H47   1.111224 S    
C14   C15   1.403641 A    
C1    C36   1.473894 S    
C39   C40   1.574339 S    
O1    C1    1.295608 A    
C35   C50   1.566200 S    
C22   H6    1.083048 S    
N1    C30   1.421670 S    
N2    C18   1.361504 A    
C33   C37   1.608611 S    
Zn2   N3    2.017120 S    
C44   H20   1.108541 S    
C4    C27   1.459196 S    
C43   H19   1.113561 S    
Zn2   O8    1.994492 S    
C6    C7    1.398389 A    
C19   C24   1.395886 A    
C43   N3    1.503647 S    
C12   C17   1.412940 A    
C46   H28   1.105317 S    
C5    O9    1.350144 S    
C22   C23   1.388230 A    
C52   H48   1.086222 S    
C15   H2    1.083509 S    
C20   H5    1.083093 S    
O8    C4    1.294766 A    
C26   H8    1.082189 S    
C48   H36   1.102969 S    
C53   H51   1.081001 S    
C25   C54   1.505386 S    
C50   H42   1.097777 S    
C35   C49   1.560400 S    
C21   C22   1.404139 A    
C47   H33   1.110909 S    
C28   H9    1.080932 S    
C31   C36   1.594168 S    
C54   H54   1.110957 S    
C45   H25   1.110069 S    
C14   C18   1.390410 A    
Zn1   O5    2.038554 S    
C29   H10   1.083067 S    
C25   C26   1.393934 A    
C34   C37   1.626181 S    
O1    Zn1   2.037263 S    
Zn2   O6    2.036498 S    
C33   C47   1.560432 S    
C42   N4    1.490634 S    
O6    C3    1.292892 A    
O4    Zn2   2.005036 S    
C31   C33   1.549722 S    
C9    C16   1.400634 A    
C49   H37   1.095925 S    
C51   H45   1.110119 S    
C34   C48   1.572683 S    
C50   H41   1.110390 S    
O2    C1    1.291035 A    
C50   H40   1.112653 S    
C19   C20   1.386725 A    
C41   H21   1.112030 S    
O4    C2    1.296351 A    
C16   H3    1.083416 S    
C31   C45   1.561657 S    
C8    C13   1.406950 A    
C33   O13   1.416261 S    
C32   C46   1.570858 S    
C52   H49   1.106719 S    
C43   C52   1.556748 S    
C35   C36   1.621665 S    
C23   H7    1.082914 S    
C40   H14   1.099811 S    
C37   C38   1.590443 S    
C2    C21   1.456444 S    
O2    Zn2   2.039317 S    
C53   H52   1.105208 S    
C6    O10   1.350052 S    
C11   C12   1.428019 A    
C39   H13   1.111129 S    
C46   H26   1.112526 S    
C34   O14   1.413615 S    
C44   C53   1.554940 S    
C41   N3    1.490175 S    
C5    N1    1.364369 A    
Zn1   N4    2.017972 S    
C54   H55   1.110082 S    
