data_mof_unit_42534.cif
_audit_creation_date              2013-03-05T15:58:46-0500
_audit_creation_method            fapswitch 2.2
_symmetry_space_group_name_H-M    P1
_symmetry_Int_Tables_number       1
_space_group_crystal_system       triclinic
_cell_length_a                    6.967426
_cell_length_b                    14.342981
_cell_length_c                    15.96496
_cell_angle_alpha                 90.460945
_cell_angle_beta                  89.7107
_cell_angle_gamma                 90.217819
_cell_volume                      1595.3536131

loop_
_atom_site_label
_atom_site_type_symbol
_atom_site_description
_atom_site_fract_x
_atom_site_fract_y
_atom_site_fract_z
_atom_type_partial_charge
O1    O     O_R   0.494320 0.415010 0.412140 -0.604710
O2    O     O_R   0.824010 0.404260 0.587250 -0.552325
O3    O     O_R   0.994320 0.584990 0.587860 -0.601783
C1    C     C_R   0.654202 0.382471 0.616588 0.945606
O4    O     O_R   0.824040 0.403870 0.412760 -0.594022
O5    O     O_R   0.994350 0.584590 0.412130 -0.547951
C2    C     C_R   0.655006 0.382001 0.383166 0.901305
O6    O     O_R   0.494300 0.415410 0.587870 -0.578598
O7    O     O_3   0.660800 0.559290 0.500000 -0.224689
V1    V     V_3+5 0.935650 0.489000 0.500000 1.261955
O8    O     O_R   0.324060 0.595740 0.412750 -0.557806
C3    C     C_R   0.154409 0.620854 0.385654 0.867718
O9    O     O_R   0.324040 0.596130 0.587240 -0.587854
C4    C     C_R   0.155154 0.618780 0.615868 0.985344
V2    V     V_3+5 0.435660 0.511000 0.500000 1.257180
O10   O     O_3   0.160640 0.440710 0.500000 -0.260138
C5    C     C_3   0.052752 0.668729 0.772550 -0.062110
C6    C     C_3   0.226141 0.716407 0.816010 -0.119851
H1    H     H_    0.302623 0.689286 0.871515 0.123611
H2    H     H_    0.986381 0.601540 0.791378 0.136938
C7    C     C_3   0.121568 0.810608 0.811764 -0.135135
C8    C     C_3   0.947977 0.763717 0.769082 -0.122957
C9    C     C_3   0.040208 0.782920 0.682358 -0.143761
C10   C     C_3   0.213593 0.830612 0.725826 -0.102511
C11   C     C_3   0.318371 0.735615 0.729290 -0.091890
C12   C     C_3   0.144781 0.688731 0.686616 -0.110459
H3    H     H_    0.795078 0.775520 0.785799 0.121063
H4    H     H_    0.963732 0.809968 0.626820 0.134019
H5    H     H_    0.279912 0.897820 0.707027 0.157401
H6    H     H_    0.471251 0.723780 0.712557 0.121158
C13   C     C_3   0.292637 0.838106 0.248483 -0.092027
H7    H     H_    0.428125 0.838827 0.211216 0.130872
C14   C     C_3   0.311526 0.761884 0.316812 -0.424040
H8    H     H_    0.329583 0.792521 0.380653 0.179648
H9    H     H_    0.440544 0.721919 0.301755 0.259015
H10   H     H_    0.283891 0.709197 0.120010 0.159099
H11   H     H_    0.278470 0.599499 0.223411 0.156304
C15   C     C_3   0.146256 0.714164 0.155429 -0.406475
C16   C     C_3   0.931309 0.815740 0.242155 -0.463917
C17   C     C_3   0.119668 0.815097 0.189252 0.033880
H12   H     H_    0.810769 0.788287 0.203512 0.190837
H13   H     H_    0.892190 0.888274 0.260481 0.137176
C18   C     C_3   0.139993 0.692892 0.315151 -0.072642
C19   C     C_3   0.146509 0.642771 0.228202 -0.327059
C20   C     C_3   0.956266 0.756036 0.322157 0.291210
H14   H     H_    0.979050 0.805472 0.375548 0.060672
H15   H     H_    0.029089 0.696172 0.110946 0.159689
H16   H     H_    0.024226 0.593691 0.221096 0.191656
C21   C     C_3   0.430551 0.307229 0.724991 0.100403
H17   H     H_    0.333454 0.288401 0.672616 0.165633
C22   C     C_3   0.415422 0.229372 0.792922 0.118938
H18   H     H_    0.362584 0.261524 0.852455 0.115901
H19   H     H_    0.763985 0.410430 0.779995 0.181930
H20   H     H_    0.687103 0.310185 0.888763 0.174810
C23   C     C_3   0.780957 0.336674 0.759785 -0.221157
C24   C     C_3   0.683821 0.210215 0.654593 0.178516
C25   C     C_3   0.640051 0.311722 0.687304 -0.283077
H21   H     H_    0.558628 0.186975 0.616632 0.122041
C26   C     C_3   0.618755 0.187210 0.811327 -0.133715
C27   C     C_3   0.751279 0.270713 0.835376 -0.433454
C28   C     C_3   0.701211 0.142038 0.729666 -0.370921
H22   H     H_    0.627267 0.075200 0.715013 0.164630
H23   H     H_    0.853129 0.123179 0.739105 0.251566
H24   H     H_    0.931447 0.331013 0.738109 0.234295
H25   H     H_    0.892846 0.246402 0.857414 0.225367
C29   C     C_3   0.431540 0.298148 0.281915 -0.337021
H26   H     H_    0.340852 0.273551 0.335007 0.167295
H27   H     H_    0.371536 0.365838 0.260891 0.149136
C30   C     C_3   0.419098 0.226490 0.209447 -0.349454
H28   H     H_    0.352138 0.259962 0.154181 0.150585
H29   H     H_    0.323827 0.167896 0.228507 0.163213
H30   H     H_    0.632563 0.189162 0.391508 0.184249
H31   H     H_    0.623298 0.082710 0.283855 0.153647
C31   C     C_3   0.719887 0.215534 0.338165 -0.298055
C32   C     C_3   0.762243 0.345304 0.234596 -0.341890
C33   C     C_3   0.642872 0.311977 0.311242 0.059826
H32   H     H_    0.915367 0.354332 0.252596 0.150176
H33   H     H_    0.709522 0.414428 0.213706 0.159227
C34   C     C_3   0.621440 0.189049 0.185608 0.120863
C35   C     C_3   0.710130 0.144212 0.264646 -0.368400
C36   C     C_3   0.748398 0.273951 0.160976 -0.365153
H34   H     H_    0.687079 0.308583 0.105073 0.139029
H35   H     H_    0.895285 0.250174 0.143618 0.159806
H36   H     H_    0.870987 0.222270 0.359712 0.186670
H37   H     H_    0.857362 0.118634 0.250193 0.159043
O11   O     O_R   0.771990 0.083520 0.910980 -0.562820
O12   O     O_R   0.442180 0.095020 0.086060 -0.603563
O13   O     O_R   0.271950 0.914280 0.086680 -0.605914
C37   C     C_R   0.610934 0.118074 0.114634 0.847149
O14   O     O_R   0.442270 0.094630 0.911580 -0.557481
O15   O     O_R   0.272040 0.913890 0.910940 -0.585337
C38   C     C_R   0.610948 0.116681 0.882362 0.935198
O16   O     O_R   0.771900 0.083910 0.086710 -0.599627
O17   O     O_3   0.605520 0.939610 0.998840 -0.283542
V3    V     V_3+5 0.330640 0.009880 0.998810 1.187599
O18   O     O_R   0.942330 0.902710 0.911540 -0.596112
C39   C     C_R   0.111164 0.880538 0.882553 0.970597
O19   O     O_R   0.942240 0.903100 0.086030 -0.601316
C40   C     C_R   0.110236 0.882867 0.116434 0.880996
V4    V     V_3+5 0.830640 0.987830 0.998780 1.170288
O20   O     O_3   0.105630 0.058150 0.998800 -0.247242
N1    N     N_R   0.781016 0.703701 0.339835 0.223706
O21   O     O_R   0.726711 0.635171 0.291345 -0.472976
O22   O     O_R   0.688575 0.720079 0.409417 -0.429458
N2    N     N_R   0.365348 0.397784 0.758531 0.231483
O23   O     O_R   0.224303 0.440722 0.722547 -0.437761
O24   O     O_R   0.432925 0.431803 0.828255 -0.455606
N3    N     N_R   0.275649 0.156891 0.768547 0.233222
O25   O     O_R   0.141168 0.132965 0.820841 -0.419528
O26   O     O_R   0.288124 0.112695 0.697267 -0.418359
N4    N     N_R   0.852091 0.203989 0.599289 0.250575
O27   O     O_R   0.020689 0.230507 0.624307 -0.372618
O28   O     O_R   0.836047 0.164671 0.525997 -0.440226
C41   C     C_1   0.274004 0.931404 0.287567 0.034688
N5    N     N_1   0.258617 0.004296 0.318403 -0.089158

loop_
_geom_bond_atom_site_label_1
_geom_bond_atom_site_label_2
_geom_bond_distance
_ccdc_geom_bond_type
C29   H27   1.113464 S    
C6    C7    1.539620 S    
N4    O27   1.297302 A    
C1    O6    1.298956 A    
C17   C40   1.523177 S    
C41   N5    1.157113 T    
O14   V3    2.007747 S    
C16   H12   1.113477 S    
H20   C27   1.112305 S    
C20   H14   1.115931 S    
C24   C25   1.573201 S    
N2    O24   1.301414 A    
C31   C33   1.550381 S    
C5    C12   1.540032 S    
C7    C8    1.540866 S    
C36   H34   1.112829 S    
C3    C18   1.537943 S    
C30   H28   1.113250 S    
O5    C3    1.298938 A    
C29   C30   1.543893 S    
V2    O10   2.161819 S    
C5    H2    1.110304 S    
C21   C25   1.577289 S    
N3    O25   1.298849 A    
C28   H23   1.104854 S    
C6    H1    1.110136 S    
C9    C12   1.539483 S    
C30   H29   1.112357 S    
C10   H5    1.110263 S    
C13   C17   1.568096 S    
O8    V2    2.016810 S    
C24   H21   1.113156 S    
C22   N3    1.473155 S    
C21   C22   1.565803 S    
O12   V3    2.002955 S    
C1    C25   1.526619 S    
C9    C10   1.550289 S    
C13   C14   1.556993 S    
O1    V2    1.999376 S    
O11   V4    2.014081 S    
O7    V1    2.167556 S    
C24   N4    1.466678 S    
C16   C20   1.554295 S    
C29   H26   1.113489 S    
O13   V3    2.009036 S    
C26   C27   1.556337 S    
C31   C35   1.552314 S    
O9    C4    1.301595 A    
O18   C39   1.301551 A    
N1    O21   1.302498 A    
C6    C11   1.549666 S    
C36   H35   1.113003 S    
C14   H8    1.114186 S    
C16   H13   1.112958 S    
H19   C23   1.110077 S    
C26   C28   1.559228 S    
C22   H18   1.114571 S    
C14   C18   1.548934 S    
C10   C11   1.549739 S    
H30   C31   1.112069 S    
C16   C17   1.557091 S    
O4    C2    1.307323 A    
C32   C36   1.555358 S    
C21   N2    1.473396 S    
C11   C12   1.540755 S    
C4    C12   1.506351 S    
O2    C1    1.307971 A    
C32   C33   1.553602 S    
C15   C19   1.554841 S    
C35   H37   1.113224 S    
C32   H32   1.113116 S    
O14   C38   1.301092 A    
C13   H7    1.113365 S    
O17   V4    1.711811 S    
C29   C33   1.558804 S    
C23   H24   1.105575 S    
C5    C6    1.550178 S    
O17   V3    2.167611 S    
N4    O28   1.299959 A    
C9    H4    1.110176 S    
O15   C39   1.299302 A    
N1    O22   1.301451 A    
C18   C20   1.573898 S    
O16   V4    2.001150 S    
C15   H15   1.112956 S    
O3    C4    1.299233 A    
C27   H25   1.107413 S    
C21   H17   1.109270 S    
O6    V2    2.013864 S    
O19   V4    2.016721 S    
C8    H3    1.110202 S    
O9    V2    2.001118 S    
C18   C19   1.558626 S    
C30   C34   1.554938 S    
C22   C26   1.572473 S    
O2    V1    2.007907 S    
C34   C36   1.554366 S    
C11   H6    1.110205 S    
C13   C41   1.477833 S    
O1    C2    1.298779 A    
C8    C9    1.549694 S    
C31   H36   1.112818 S    
O5    V1    2.008952 S    
O8    C3    1.313386 A    
C2    C33   1.521890 S    
N2    O23   1.300403 A    
C5    C8    1.549621 S    
H11   C19   1.113226 S    
C23   C25   1.559841 S    
O7    V2    1.712342 S    
O4    V1    2.002949 S    
O3    V1    2.000147 S    
V1    O10   1.716204 S    
C15   C17   1.552462 S    
C7    C39   1.506648 S    
O18   V4    2.001219 S    
H10   C15   1.113036 S    
V4    O20   2.161835 S    
C14   H9    1.092674 S    
H31   C35   1.112033 S    
N3    O26   1.300846 A    
C26   C38   1.526373 S    
C37   O16   1.300878 A    
C28   H22   1.110426 S    
C32   H33   1.112860 S    
C34   C37   1.518972 S    
O13   C40   1.300906 A    
C20   N1    1.458428 S    
O15   V3    2.000159 S    
C34   C35   1.552943 S    
V3    O20   1.716214 S    
O19   C40   1.304027 A    
C7    C10   1.540093 S    
O12   C37   1.303813 A    
C24   C28   1.558399 S    
O11   C38   1.306402 A    
C23   C27   1.551955 S    
C19   H16   1.108809 S    
