data_mof_unit_43035.cif
_audit_creation_date              2013-03-05T15:45:15-0500
_audit_creation_method            fapswitch 2.2
_symmetry_space_group_name_H-M    P1
_symmetry_Int_Tables_number       1
_space_group_crystal_system       triclinic
_cell_length_a                    16.880654
_cell_length_b                    7.009102
_cell_length_c                    16.800835
_cell_angle_alpha                 90.007178
_cell_angle_beta                  100.847431
_cell_angle_gamma                 89.990271
_cell_volume                      1952.32572865

loop_
_atom_site_label
_atom_site_type_symbol
_atom_site_description
_atom_site_fract_x
_atom_site_fract_y
_atom_site_fract_z
_atom_type_partial_charge
O1    O     O_R   0.579510 0.506290 0.439030 -0.588389
O2    O     O_R   0.420490 0.006290 0.560970 -0.588553
O3    O     O_R   0.412540 0.170090 0.405290 -0.589736
O4    O     O_R   0.587460 0.670090 0.594710 -0.589717
C1    C     C_R   0.384574 0.345928 0.382201 0.852992
C2    C     C_R   0.615427 0.845924 0.617798 0.853119
O5    O     O_R   0.578390 0.176230 0.429330 -0.590725
O6    O     O_R   0.421610 0.676230 0.570670 -0.590788
O7    O     O_R   0.587530 0.011250 0.585190 -0.593814
O8    O     O_R   0.412470 0.511250 0.414810 -0.593845
C3    C     C_R   0.605032 0.346671 0.413727 0.926133
C4    C     C_R   0.394960 0.846717 0.586263 0.926237
O9    O     O_3   0.502800 0.340940 0.551110 -0.269607
O10   O     O_3   0.497200 0.840940 0.448890 -0.269549
V1    V     V_3+5 0.499480 0.064020 0.490520 1.146975
V2    V     V_3+5 0.500520 0.564020 0.509480 1.146942
C5    C     C_R   0.168886 0.896842 0.863924 -0.135142
C6    C     C_R   0.831095 0.397081 0.136061 -0.134965
C7    C     C_R   0.331714 0.870121 0.636701 -0.133500
C8    C     C_R   0.668313 0.369879 0.363326 -0.133239
C9    C     C_R   0.224394 0.070260 0.671937 -0.216072
C10   C     C_R   0.776110 0.569023 0.328546 -0.215627
C11   C     C_R   0.277645 0.024951 0.620281 -0.144881
C12   C     C_R   0.722755 0.523841 0.380110 -0.145061
C13   C     C_R   0.330037 0.758129 0.705799 -0.263651
C14   C     C_R   0.669678 0.258662 0.293932 -0.263313
C15   C     C_R   0.276906 0.804579 0.758800 0.182716
C16   C     C_R   0.722899 0.305021 0.241016 0.182372
C17   C     C_R   0.223910 0.962678 0.742016 0.214524
C18   C     C_R   0.776299 0.462231 0.258183 0.214460
C19   C     C_R   0.170745 0.009102 0.794966 -0.265596
C20   C     C_R   0.829552 0.508566 0.205317 -0.265808
C21   C     C_R   0.222919 0.741999 0.880374 -0.083504
C22   C     C_R   0.776693 0.243101 0.119251 -0.083409
C23   C     C_R   0.276340 0.696896 0.828855 -0.181188
C24   C     C_R   0.723171 0.198126 0.170680 -0.180430
H1    H     H_    0.128854 0.126962 0.780818 0.128798
H2    H     H_    0.871749 0.625708 0.219748 0.128537
H3    H     H_    0.222861 0.652730 0.932996 0.188113
H4    H     H_    0.776529 0.154433 0.066405 0.188090
H5    H     H_    0.184249 0.191206 0.657481 0.120738
H6    H     H_    0.816570 0.689268 0.343297 0.120669
H7    H     H_    0.316453 0.575899 0.843333 0.160540
H8    H     H_    0.682744 0.077826 0.155907 0.160631
H9    H     H_    0.277476 0.114043 0.567531 0.122614
H10   H     H_    0.723145 0.612327 0.433085 0.122257
H11   H     H_    0.371959 0.640327 0.719947 0.141485
H12   H     H_    0.627449 0.141579 0.279500 0.141281
C25   C     C_3   0.740474 0.798263 0.839235 0.292000
C26   C     C_3   0.259524 0.298162 0.160770 0.291928
H13   H     H_    0.761876 0.650474 0.855937 0.070438
H14   H     H_    0.238125 0.150361 0.144097 0.070500
C27   C     C_3   0.666714 0.779752 0.767816 -0.471345
C28   C     C_3   0.333293 0.279705 0.232182 -0.471437
H15   H     H_    0.612647 0.852539 0.782406 0.190448
H16   H     H_    0.387344 0.352488 0.217581 0.190392
H17   H     H_    0.650510 0.626449 0.758170 0.151737
H18   H     H_    0.349523 0.126409 0.241833 0.151746
H19   H     H_    0.859138 0.647070 0.763784 0.162587
H20   H     H_    0.140856 0.147154 0.236229 0.162594
H21   H     H_    0.750492 0.608405 0.660492 0.154325
H22   H     H_    0.249520 0.108463 0.339502 0.154347
C29   C     C_3   0.836155 0.789940 0.741515 -0.426971
C30   C     C_3   0.163846 0.290019 0.258491 -0.427017
C31   C     C_3   0.782541 0.104542 0.776121 -0.344540
C32   C     C_3   0.217458 0.604544 0.223869 -0.344485
C33   C     C_3   0.812066 0.907826 0.812010 -0.046441
C34   C     C_3   0.187934 0.407818 0.187989 -0.046403
H23   H     H_    0.832111 0.176693 0.752443 0.143078
H24   H     H_    0.167886 0.676763 0.247538 0.143071
H25   H     H_    0.766789 0.200392 0.823402 0.197115
H26   H     H_    0.233214 0.700336 0.176584 0.197161
C35   C     C_3   0.686828 0.865380 0.688911 0.071840
C36   C     C_3   0.313174 0.365387 0.311088 0.071933
C37   C     C_3   0.762990 0.763332 0.670518 -0.364185
C38   C     C_3   0.237016 0.263394 0.329482 -0.364139
C39   C     C_3   0.709210 0.080403 0.706400 -0.295923
C40   C     C_3   0.290784 0.580410 0.293596 -0.296035
H27   H     H_    0.656824 0.157957 0.722437 0.176208
H28   H     H_    0.343169 0.657928 0.277565 0.176180
H29   H     H_    0.723412 0.149087 0.650997 0.143225
H30   H     H_    0.276573 0.649131 0.348996 0.143233
H31   H     H_    0.886066 0.862870 0.718773 0.155298
H32   H     H_    0.113941 0.363023 0.281236 0.155303
H33   H     H_    0.778378 0.821667 0.613740 0.140219
H34   H     H_    0.221631 0.321759 0.386264 0.140190
O11   O     O_R   0.087500 0.266000 0.085220 -0.596287
O12   O     O_R   0.912500 0.766000 0.914780 -0.596268
O13   O     O_R   0.921600 0.589950 0.070670 -0.573181
O14   O     O_R   0.078400 0.089950 0.929330 -0.573311
C41   C     C_R   0.894529 0.420131 0.085863 0.948202
C42   C     C_R   0.105482 0.920086 0.914151 0.948434
O15   O     O_R   0.087460 0.596020 0.094710 -0.595438
O16   O     O_R   0.912540 0.096020 0.905290 -0.595458
O17   O     O_R   0.079520 0.760970 0.939020 -0.599098
O18   O     O_R   0.920480 0.260970 0.060980 -0.598882
C43   C     C_R   0.116150 0.426075 0.117892 0.903680
C44   C     C_R   0.883849 0.926080 0.882108 0.903731
O19   O     O_3   0.997180 0.425140 0.948910 -0.277552
O20   O     O_3   0.002820 0.925140 0.051090 -0.277426
V3    V     V_3+5 0.000520 0.702080 0.009480 1.178653
V4    V     V_3+5 0.999480 0.202080 0.990520 1.178573
N1    N     N_R   0.716905 0.884825 0.910911 0.223188
O21   O     O_R   0.729962 0.793184 0.979487 -0.415941
O22   O     O_R   0.679201 0.047578 0.906236 -0.425721
N2    N     N_R   0.283077 0.384587 0.089070 0.223218
O23   O     O_R   0.270057 0.292788 0.020524 -0.415957
O24   O     O_R   0.320732 0.547375 0.093697 -0.425441

loop_
_geom_bond_atom_site_label_1
_geom_bond_atom_site_label_2
_geom_bond_distance
_ccdc_geom_bond_type
C32   C34   1.549198 S    
C11   H9    1.083774 S    
O18   V4    1.985957 S    
C15   C17   1.418661 A    
C27   H15   1.112362 S    
O1    C3    1.298721 A    
C38   H34   1.112665 S    
O2    C4    1.298648 A    
C2    O7    1.329497 A    
O12   V3    2.012459 S    
C10   H6    1.083814 S    
H21   C37   1.112975 S    
O5    C3    1.320144 A    
C26   C28   1.563516 S    
C36   C38   1.552165 S    
C22   H4    1.083274 S    
C6    C41   1.491300 S    
C30   C34   1.559394 S    
C40   H28   1.113353 S    
C31   C33   1.549178 S    
N2    O23   1.301222 A    
O16   C44   1.316861 A    
C1    C36   1.535159 S    
C34   C43   1.527915 S    
C30   H32   1.112887 S    
C33   C44   1.527932 S    
C41   O18   1.296086 A    
C28   C36   1.550042 S    
C37   H33   1.112667 S    
O14   V4    1.991057 S    
C8    C12   1.411149 A    
C32   H26   1.110120 S    
C25   H13   1.115387 S    
C26   H14   1.115394 S    
C20   H2    1.084188 S    
O13   C41   1.317162 A    
C23   H7    1.083877 S    
C13   H11   1.084242 S    
C14   H12   1.084196 S    
N2    O24   1.301373 A    
O5    V1    1.991430 S    
O6    V2    1.991149 S    
C35   C37   1.552156 S    
H22   C38   1.112974 S    
C5    C42   1.491321 S    
C5    C21   1.411062 A    
C28   H16   1.112364 S    
C39   H27   1.113354 S    
C32   C40   1.545088 S    
C29   C33   1.559404 S    
C3    C8    1.491697 S    
C31   C39   1.545090 S    
O4    C2    1.350335 A    
O15   V3    1.991438 S    
C27   H17   1.113125 S    
C15   C23   1.399815 A    
C31   H25   1.110122 S    
C9    C17   1.399559 A    
C42   O17   1.296011 A    
C19   H1    1.084237 S    
C29   H31   1.112887 S    
O4    V2    1.991518 S    
C7    C11   1.411324 A    
O11   V4    2.012484 S    
C40   H30   1.113455 S    
O14   C42   1.317261 A    
C39   H29   1.113458 S    
O6    C4    1.320243 A    
O20   V4    2.187573 S    
C30   C38   1.558360 S    
N1    O22   1.301361 A    
O1    V2    1.984031 S    
C21   H3    1.083316 S    
O2    V1    1.984182 S    
C6    C22   1.410876 A    
C16   C24   1.399875 A    
C9    H5    1.083867 S    
O19   V3    2.187364 S    
C9    C11   1.398422 A    
C5    C19   1.405790 A    
C10   C12   1.398522 A    
C24   H8    1.083818 S    
C6    C20   1.405823 A    
O15   C43   1.316832 A    
O3    V1    1.991465 S    
C29   C37   1.558362 S    
C2    C35   1.535174 S    
C28   H18   1.113123 S    
C31   H23   1.113401 S    
C10   C18   1.399628 A    
O13   V3    1.991336 S    
C14   C16   1.415586 A    
C27   C35   1.550034 S    
O3    C1    1.350306 A    
C25   N1    1.468548 S    
C25   C33   1.570951 S    
C13   C15   1.415538 A    
H19   C29   1.112927 S    
H20   C30   1.112929 S    
C12   H10   1.083751 S    
C16   C18   1.418565 A    
O7    V1    1.996489 S    
C1    O8    1.329490 A    
C17   C19   1.415280 A    
O8    V2    1.996509 S    
C18   C20   1.415333 A    
C32   H24   1.113400 S    
C8    C14   1.406184 A    
C25   C27   1.563525 S    
C4    C7    1.491726 S    
O20   V3    1.710009 S    
C21   C23   1.398566 A    
C22   C24   1.398659 A    
C7    C13   1.406156 A    
O19   V4    1.710157 S    
O16   V4    1.991492 S    
C36   C40   1.568034 S    
O9    V2    1.710441 S    
N1    O21   1.301194 A    
C26   N2    1.468557 S    
C35   C39   1.568057 S    
O10   V1    1.710292 S    
C26   C34   1.570949 S    
O12   C44   1.301609 A    
O17   V3    1.986115 S    
O11   C43   1.301600 A    
