data_mof_unit_33962.cif
_audit_creation_date              2013-03-05T16:46:09-0500
_audit_creation_method            fapswitch 2.2
_symmetry_space_group_name_H-M    P1
_symmetry_Int_Tables_number       1
_space_group_crystal_system       triclinic
_cell_length_a                    10.734629
_cell_length_b                    10.74687
_cell_length_c                    9.881888
_cell_angle_alpha                 91.877901
_cell_angle_beta                  91.377725
_cell_angle_gamma                 90.678192
_cell_volume                      1138.97821683

loop_
_atom_site_label
_atom_site_type_symbol
_atom_site_description
_atom_site_fract_x
_atom_site_fract_y
_atom_site_fract_z
_atom_type_partial_charge
O1    O     O_R   0.500020 0.316790 0.614690 -0.587843
O2    O     O_R   0.500000 0.316760 0.385350 -0.623601
C1    C     C_R   0.502881 0.259989 0.498205 0.967044
O3    O     O_R   0.316770 0.500030 0.614670 -0.635219
O4    O     O_R   0.316750 0.499990 0.385330 -0.609408
C2    C     C_R   0.260427 0.510058 0.498471 0.891471
Zn1   Zn    Zn3+2 0.500010 0.500020 0.653130 0.977920
Zn2   Zn    Zn3+2 0.499990 0.499980 0.346870 0.959777
O5    O     O_R   0.500000 0.683240 0.614650 -0.629042
O6    O     O_R   0.499980 0.683210 0.385310 -0.640145
O7    O     O_R   0.683250 0.500010 0.614670 -0.612182
O8    O     O_R   0.683230 0.499970 0.385330 -0.627483
C3    C     C_R   0.494424 0.739888 0.501980 0.863151
C4    C     C_R   0.740066 0.508855 0.502065 0.919991
H1    H     H_    0.231960 0.668024 0.893210 0.162895
C5    C     C_R   0.217947 0.717289 0.104158 -0.109387
H2    H     H_    0.265193 0.806085 0.095517 0.148146
C6    C     C_R   0.174719 0.681484 0.229078 -0.156065
H3    H     H_    0.187601 0.744528 0.316265 0.140438
C7    C     C_R   0.113757 0.565957 0.241748 0.017331
C8    C     C_R   0.096095 0.485368 0.126383 0.311263
C9    C     C_R   0.137023 0.525204 0.000795 -0.221261
H4    H     H_    0.122330 0.466208 0.911328 0.169694
C10   C     C_R   0.198601 0.639544 0.990004 -0.148089
C11   C     C_R   0.931191 0.530463 0.379603 -0.161570
H5    H     H_    0.877718 0.526770 0.285194 0.155810
C12   C     C_R   0.872752 0.529122 0.504644 -0.078728
C13   C     C_R   0.942886 0.553380 0.625511 0.010658
C14   C     C_R   0.070805 0.550273 0.619350 -0.235965
H6    H     H_    0.125540 0.562798 0.711771 0.157450
C15   C     C_R   0.128709 0.533008 0.495738 -0.080374
C16   C     C_R   0.058998 0.538883 0.373853 0.074358
C17   C     C_R   0.904273 0.715406 0.804598 -0.141912
H7    H     H_    0.943264 0.784648 0.740138 0.191715
C18   C     C_R   0.872306 0.749720 0.936722 -0.134604
H8    H     H_    0.884042 0.845431 0.972732 0.154246
C19   C     C_R   0.827156 0.660154 0.022959 -0.163511
H9    H     H_    0.802606 0.686849 0.125331 0.138315
C20   C     C_R   0.814146 0.536125 0.977046 -0.124575
H10   H     H_    0.780051 0.466474 0.044118 0.150920
C21   C     C_R   0.846883 0.501705 0.845105 -0.040735
H11   H     H_    0.840570 0.405653 0.810998 0.161789
C22   C     C_R   0.890834 0.591162 0.757583 0.085844
C23   C     C_R   0.514269 0.067713 0.617386 -0.012785
C24   C     C_R   0.498248 0.127527 0.495975 -0.092397
C25   C     C_R   0.455922 0.059423 0.380489 -0.185654
H12   H     H_    0.434316 0.104184 0.287088 0.156593
C26   C     C_R   0.446602 0.930846 0.384460 -0.195638
H13   H     H_    0.422879 0.878411 0.291807 0.149767
C27   C     C_R   0.475897 0.871310 0.505557 -0.113623
C28   C     C_R   0.492042 0.942891 0.625493 0.017723
C29   C     C_3   0.575576 0.932380 0.748042 0.211038
C30   C     C_3   0.622138 0.064769 0.716995 0.629655
H14   H     H_    0.643431 0.855139 0.740533 0.103388
C31   C     C_R   0.487031 0.391058 0.066694 0.162663
N1    N     N_R   0.499160 0.499140 0.142800 -0.107414
C32   C     C_R   0.525273 0.605414 0.076342 -0.130710
H15   H     H_    0.546730 0.689840 0.134341 0.145014
C33   C     C_R   0.524841 0.605463 0.932496 -0.131934
H16   H     H_    0.545075 0.689818 0.881349 0.192713
N2    N     N_R   0.499160 0.499180 0.857150 -0.127571
C34   C     C_R   0.485281 0.391541 0.924351 0.291610
C35   C     C_3   0.375701 0.305159 0.913007 -0.422223
C36   C     C_3   0.379856 0.301665 0.066348 -0.463229
H17   H     H_    0.291932 0.350006 0.870232 0.199794
H18   H     H_    0.396466 0.213989 0.863439 0.262624
H19   H     H_    0.297126 0.340866 0.115917 0.239525
H20   H     H_    0.408116 0.209346 0.101699 0.199045
O9    O     O_3   0.494452 0.928027 0.859260 -0.577418
C37   C     C_3   0.558881 0.925424 0.984797 -0.303719
H21   H     H_    0.650255 0.878351 0.979851 0.137151
H22   H     H_    0.499636 0.874913 0.055096 0.161152
H23   H     H_    0.568491 0.020578 0.030316 0.205760
O10   O     O_3   0.613836 0.155029 0.824040 -0.638387
C38   C     C_3   0.725335 0.161558 0.903654 -0.204250
H24   H     H_    0.799482 0.211018 0.850540 0.222407
H25   H     H_    0.760526 0.068274 0.929600 0.152008
H26   H     H_    0.707621 0.214543 0.999379 0.169778
N3    N     N_R   0.740935 0.069357 0.644914 0.151836
O11   O     O_R   0.818627 0.977510 0.649167 -0.465029
O12   O     O_R   0.773207 0.169993 0.584118 -0.392671
N4    N     N_R   0.041783 0.362494 0.135471 0.179505
O13   O     O_R   0.050235 0.302618 0.247601 -0.377665
O14   O     O_R   0.999837 0.302628 0.026848 -0.446956

loop_
_geom_bond_atom_site_label_1
_geom_bond_atom_site_label_2
_geom_bond_distance
_ccdc_geom_bond_type
C31   N1    1.366094 A    
C35   H17   1.106751 S    
C21   H11   1.076196 S    
C18   H8    1.082254 S    
Zn2   N1    2.016126 S    
C20   C21   1.397783 A    
C24   C25   1.398912 A    
C23   C24   1.387622 A    
Zn1   O7    2.012346 S    
C34   C35   1.489643 S    
C36   H20   1.105961 S    
C13   C14   1.376728 A    
C18   C19   1.396497 A    
C19   H9    1.082007 S    
O4    C2    1.285846 A    
O7    C4    1.287408 A    
C32   C33   1.421384 A    
C31   C34   1.406473 A    
N1    C32   1.365551 A    
C6    H3    1.083636 S    
O5    C3    1.286825 A    
Zn1   N2    2.016658 S    
C29   O9    1.420168 S    
C23   C30   1.502925 S    
C30   O10   1.416742 S    
C5    H2    1.082187 S    
C37   H21   1.110340 S    
C4    C12   1.437837 S    
C11   C16   1.376534 A    
C26   C27   1.406106 A    
C2    C15   1.437936 S    
C35   H18   1.108415 S    
C33   H16   1.074768 S    
C5    C10   1.391604 A    
C8    C9    1.404669 A    
C21   C22   1.399368 A    
O9    C37   1.406957 S    
O3    Zn1   1.994403 S    
C29   H14   1.112658 S    
C17   H7    1.082216 S    
C19   C20   1.398196 A    
C25   C26   1.386143 A    
C33   N2    1.364535 A    
O10   C38   1.416178 S    
C28   C29   1.497524 S    
C17   C22   1.403954 A    
C36   H19   1.105607 S    
N3    O11   1.300825 A    
O3    C2    1.293134 A    
C20   H10   1.082241 S    
N3    O12   1.301681 A    
C11   H5    1.082933 S    
C1    C24   1.423255 S    
C35   C36   1.516591 S    
O1    C1    1.286339 A    
C38   H24   1.104487 S    
C14   H6    1.077830 S    
C15   C16   1.406219 A    
Zn2   O8    1.994404 S    
C31   C36   1.489961 S    
C37   H23   1.106260 S    
C27   C28   1.397753 A    
C8    N4    1.443533 S    
C38   H25   1.111138 S    
C23   C28   1.364988 A    
Zn2   O6    1.993195 S    
H1    C10   1.081609 S    
O8    C4    1.292136 A    
N4    O14   1.301341 A    
C9    C10   1.396793 A    
C29   C30   1.545110 S    
C7    C16   1.480579 S    
Zn1   O5    2.017622 S    
C25   H12   1.076348 S    
C26   H13   1.082711 S    
C30   N3    1.476667 S    
O1    Zn1   1.993194 S    
O2    Zn2   2.017620 S    
O6    C3    1.289162 A    
O4    Zn2   2.012346 S    
C11   C12   1.399559 A    
C13   C22   1.478558 S    
O2    C1    1.288528 A    
C14   C15   1.391858 A    
C32   H15   1.076748 S    
C17   C18   1.396932 A    
C6    C7    1.407217 A    
N2    C34   1.361015 A    
C38   H26   1.109559 S    
C3    C27   1.428056 S    
C7    C8    1.416586 A    
C5    C6    1.393450 A    
N4    O13   1.301291 A    
C12   C13   1.411752 A    
C9    H4    1.078273 S    
C37   H22   1.104310 S    
