data_mof_unit_46192.cif
_audit_creation_date              2012-12-10T16:59:15-0500
_audit_creation_method            fapswitch 2.2
_symmetry_space_group_name_H-M    P1
_symmetry_Int_Tables_number       1
_space_group_crystal_system       triclinic
_cell_length_a                    7.849749
_cell_length_b                    8.561044
_cell_length_c                    27.417294
_cell_angle_alpha                 89.173955
_cell_angle_beta                  86.201043
_cell_angle_gamma                 94.686238
_cell_volume                      1831.93953057

loop_
_atom_site_label
_atom_site_type_symbol
_atom_type_description
_atom_site_fract_x
_atom_site_fract_y
_atom_site_fract_z
_atom_type_partial_charge
C1    C     C_R   0.546307 0.794542 0.498765 0.948546
C2    C     C_R   0.620672 0.674332 0.119887 -0.088101
C3    C     C_R   0.509423 0.464289 0.646394 -0.140414
C4    C     C_R   0.497696 0.529145 0.352784 -0.135288
C5    C     C_R   0.663018 0.635420 0.016716 0.059077
C6    C     C_R   0.591672 0.333454 0.977184 0.032772
C7    C     C_R   0.556590 0.354428 0.028610 -0.086761
C8    C     C_R   0.688753 0.615940 0.964690 -0.125101
C9    C     C_R   0.596489 0.505921 0.047868 0.017455
C10   C     C_R   0.645758 0.464751 0.945557 0.008939
C11   C     C_R   0.691632 0.782224 0.039190 -0.299133
C12   C     C_R   0.453714 0.205445 0.501453 0.949893
C13   C     C_R   0.571878 0.185251 0.955370 -0.303627
C14   C     C_R   0.684652 0.800673 0.089507 0.473777
C15   C     C_R   0.564021 0.166968 0.905312 0.507115
C16   C     C_R   0.502073 0.493448 0.593880 0.891694
C17   C     C_R   0.497959 0.504248 0.405931 0.895414
C18   C     C_R   0.755380 0.739589 0.930402 0.368331
C19   C     C_R   0.469230 0.234791 0.061087 0.363778
C20   C     C_2   0.569728 0.959146 0.498237 -0.365537
C21   C     C_2   0.430333 0.040829 0.502371 -0.374392
C22   C     C_R   0.654341 0.559290 0.812322 0.548811
C23   C     C_R   0.648056 0.445049 0.893873 -0.185044
C24   C     C_R   0.447966 0.440789 0.179744 0.569585
C25   C     C_R   0.571279 0.287684 0.823921 0.525834
C26   C     C_R   0.602600 0.690678 0.170971 0.504964
C27   C     C_R   0.661713 0.353321 0.710946 -0.108655
C28   C     C_R   0.661241 0.587333 0.275571 -0.119740
C29   C     C_R   0.641698 0.377452 0.661723 -0.291985
C30   C     C_R   0.655381 0.563338 0.325793 -0.306008
C31   C     C_R   0.391241 0.521479 0.681284 0.495533
C32   C     C_R   0.343668 0.524138 0.328697 0.467617
C33   C     C_R   0.409300 0.491207 0.730994 -0.242678
C34   C     C_R   0.566497 0.529890 0.099060 -0.200431
C35   C     C_R   0.351390 0.564340 0.278735 -0.243037
C36   C     C_R   0.548388 0.413306 0.745591 0.248986
C37   C     C_R   0.509450 0.585601 0.251688 0.241647
C38   C     C_3   0.276740 0.760687 0.679391 0.093579
C39   C     C_3   0.378852 0.857566 0.638564 -0.830976
C40   C     C_3   0.100735 0.352768 0.330088 0.094924
C41   C     C_3   0.982955 0.254678 0.367019 -0.827028
C42   C     C_3   0.954352 0.849547 0.823297 0.154772
C43   C     C_3   0.963968 0.967930 0.780990 -0.720602
C44   C     C_3   0.378393 0.044069 0.159273 0.281727
C45   C     C_R   0.693552 0.573537 0.861571 -0.228710
C46   C     C_3   0.254576 0.967439 0.199456 -0.823706
C47   C     C_3   0.865748 0.022071 0.098734 0.106871
C48   C     C_3   0.883836 0.171236 0.128142 -0.741355
C49   C     C_3   0.374559 0.956092 0.893834 0.147925
C50   C     C_3   0.358458 0.785145 0.878947 -0.783137
C51   C     C_3   0.952473 0.942703 0.947639 0.090449
C52   C     C_3   0.987323 0.112666 0.929806 -0.824677
C53   C     C_3   0.284154 0.030605 0.037833 0.058621
C54   C     C_3   0.264883 0.851558 0.036568 -0.864568
C55   C     C_R   0.476769 0.412407 0.129526 -0.174503
C56   C     C_R   0.761803 0.716370 0.879676 0.444374
C57   C     C_R   0.421861 0.267959 0.110056 0.395659
C58   C     C_R   0.595095 0.298089 0.874228 -0.103666
H1    H     H_    0.775355 0.568044 0.343270 0.203911
H2    H     H_    0.384736 0.983733 0.647758 0.221856
H3    H     H_    0.511533 0.821447 0.634012 0.236199
H4    H     H_    0.189773 0.272573 0.312005 0.166970
H5    H     H_    0.021063 0.400548 0.302274 0.152768
H6    H     H_    0.888859 0.328296 0.385195 0.272169
H7    H     H_    0.912375 0.158143 0.348143 0.221179
H8    H     H_    0.059333 0.203245 0.394938 0.244965
H9    H     H_    0.012443 0.381880 0.464675 0.208414
H10   H     H_    0.987884 0.617414 0.535751 0.198874
H11   H     H_    0.321026 0.535659 0.758453 0.130599
H12   H     H_    0.732769 0.330597 0.635558 0.191842
H13   H     H_    0.234706 0.565216 0.259806 0.146857
H14   H     H_    0.982389 0.732774 0.808770 0.121077
H15   H     H_    0.054234 0.890368 0.847294 0.110532
H16   H     H_    0.869225 0.931949 0.754161 0.284432
H17   H     H_    0.094278 0.976118 0.762230 0.180690
H18   H     H_    0.937329 0.085382 0.794883 0.243935
H19   H     H_    0.499963 0.085438 0.175593 0.205170
H20   H     H_    0.401578 0.952469 0.132422 0.199032
H21   H     H_    0.134510 0.920366 0.183745 0.244469
H22   H     H_    0.313514 0.869286 0.216944 0.220101
H23   H     H_    0.784265 0.601610 0.254960 0.156722
H24   H     H_    0.222814 0.053298 0.227877 0.287681
H25   H     H_    0.887702 0.056230 0.059475 0.120361
H26   H     H_    0.963112 0.943173 0.109758 0.151315
H27   H     H_    0.877584 0.141831 0.167840 0.273446
H28   H     H_    0.007399 0.238825 0.117466 0.235726
H29   H     H_    0.779790 0.246476 0.120764 0.227122
H30   H     H_    0.293439 0.023733 0.871080 0.149082
H31   H     H_    0.328368 0.959372 0.932717 0.099989
H32   H     H_    0.424042 0.713969 0.904615 0.240790
H33   H     H_    0.223797 0.735328 0.881288 0.146777
H34   H     H_    0.769874 0.294194 0.722245 0.154019
H35   H     H_    0.412361 0.774289 0.840870 0.298191
H36   H     H_    0.704432 0.890966 0.020032 0.238986
H37   H     H_    0.570392 0.077768 0.975322 0.261118
H38   H     H_    0.041076 0.867727 0.927999 0.104438
H39   H     H_    0.979468 0.938687 0.986454 0.125494
H40   H     H_    0.948150 0.126006 0.891921 0.283102
H41   H     H_    0.124901 0.152130 0.930601 0.169232
H42   H     H_    0.915747 0.190193 0.954202 0.253214
H43   H     H_    0.256381 0.081093 0.002160 0.126751
H44   H     H_    0.188514 0.069473 0.065105 0.171479
H45   H     H_    0.700612 0.012422 0.494322 0.180831
H46   H     H_    0.309913 0.800273 0.070250 0.263605
H47   H     H_    0.129186 0.807006 0.034616 0.190909
H48   H     H_    0.341516 0.809482 0.004689 0.261849
H49   H     H_    0.299458 0.987552 0.506342 0.178675
H50   H     H_    0.337023 0.781336 0.714669 0.152847
H51   H     H_    0.147477 0.804513 0.684033 0.172255
H52   H     H_    0.316268 0.841181 0.603636 0.268157
N1    N     N_R   0.591515 0.419326 0.795271 -0.346487
N2    N     N_R   0.516316 0.575007 0.199468 -0.345651
N3    N     N_2   0.950320 0.457960 0.486880 -0.172093
N4    N     N_2   0.049680 0.542040 0.513120 -0.169008
O1    O     O_R   0.389250 0.738570 0.503220 -0.617140
O2    O     O_2   0.358244 0.332569 0.209472 -0.574249
O3    O     O_2   0.671069 0.820155 0.192264 -0.557282
O4    O     O_2   0.522507 0.149617 0.803822 -0.519484
O5    O     O_3   0.255592 0.600734 0.666667 -0.611165
O6    O     O_3   0.188286 0.477688 0.354143 -0.606878
O7    O     O_3   0.792431 0.848103 0.849101 -0.476300
O8    O     O_3   0.301343 0.167352 0.136946 -0.629557
O9    O     O_3   0.699445 0.950155 0.108408 -0.593878
O10   O     O_3   0.546571 0.017443 0.886698 -0.482106
O11   O     O_3   0.778138 0.894321 0.943531 -0.591605
O12   O     O_R   0.610750 0.261430 0.496780 -0.615124
O13   O     O_3   0.453107 0.078732 0.048785 -0.617009
O14   O     O_R   0.678390 0.711630 0.494810 -0.624506
O15   O     O_R   0.321610 0.288370 0.505190 -0.633849
O16   O     O_R   0.355440 0.513440 0.575450 -0.565069
O17   O     O_R   0.644560 0.486560 0.424550 -0.633764
O18   O     O_R   0.644590 0.486500 0.567040 -0.636051
O19   O     O_R   0.355410 0.513500 0.432960 -0.564548
O20   O     O_2   0.672405 0.684843 0.781590 -0.539357
Zn1   Zn    Zn3+2 0.306940 0.517990 0.505620 0.979488
Zn2   Zn    Zn3+2 0.693060 0.482010 0.494380 0.942659

loop_
_geom_bond_atom_site_label_1
_geom_bond_atom_site_label_2
_ccdc_geom_bond_type
C51   H39   S    
C23   C58   A    
C23   C45   A    
C17   O17   A    
O16   Zn1   S    
C24   N2    A    
C1    O14   A    
C25   O4    S    
C20   H45   S    
C53   C54   S    
C19   C57   A    
C24   C55   A    
C40   H5    S    
C22   O20   S    
C54   H46   S    
C44   H19   S    
C35   C37   A    
C5    C11   A    
O14   Zn2   S    
C18   O11   S    
C46   H21   S    
C11   C14   A    
C27   C29   A    
C33   C36   A    
C40   H4    S    
C19   O13   S    
C3    C29   A    
C37   N2    S    
C53   O13   S    
C57   O8    S    
O15   Zn1   S    
C50   H32   S    
C39   H52   S    
C45   C56   A    
C53   H43   S    
C52   H40   S    
N3    Zn2   S    
N4    Zn1   S    
C26   O3    S    
C47   H25   S    
C16   O16   A    
C33   H11   S    
C51   H38   S    
C2    C34   A    
C43   H16   S    
O12   Zn2   S    
C34   C55   A    
C46   H24   S    
C49   H30   S    
C32   O6    S    
C2    C14   A    
C44   C46   S    
C6    C7    A    
C43   H17   S    
C39   H3    S    
C15   O10   S    
C54   H48   S    
C51   C52   S    
C51   O11   S    
C32   C35   A    
O17   Zn2   S    
C12   O15   A    
C41   H7    S    
C29   H12   S    
C49   O10   S    
C12   C21   S    
C52   H42   S    
C8    C18   A    
C44   H20   S    
C5    C9    A    
C47   O9    S    
C47   C48   S    
C53   H44   S    
O18   Zn2   S    
C30   H1    S    
C31   C33   A    
C36   N1    S    
C42   H14   S    
C48   H29   S    
C27   H34   S    
C2    C26   A    
C21   H49   S    
C47   H26   S    
C38   H51   S    
C3    C31   A    
C31   O5    S    
C4    C32   A    
C38   O5    S    
C11   H36   S    
C40   C41   S    
C40   O6    S    
C13   H37   S    
C24   O2    S    
C7    C19   A    
C13   C15   A    
C17   O19   A    
C9    C34   A    
C10   C23   A    
C15   C58   A    
C48   H28   S    
C42   C43   S    
C4    C17   S    
C26   N2    A    
N3    N4    D    
C43   H18   S    
C7    C9    A    
C1    C20   S    
C14   O9    S    
C54   H47   S    
C28   H23   S    
C49   H31   S    
C6    C10   A    
C5    C8    A    
C50   H35   S    
C41   H8    S    
C18   C56   A    
C27   C36   A    
C52   H41   S    
C22   N1    A    
C56   O7    S    
C55   C57   A    
H9    N3    S    
C28   C30   A    
C6    C13   A    
C46   H22   S    
C38   C39   S    
O1    Zn1   S    
C28   C37   A    
C39   H2    S    
C44   O8    S    
C42   H15   S    
C38   H50   S    
C16   O18   A    
C25   N1    A    
C35   H13   S    
C50   H33   S    
C22   C45   A    
C12   O12   A    
C20   C21   D    
C8    C10   A    
C49   C50   S    
C25   C58   A    
O19   Zn1   S    
C48   H27   S    
C1    O1    A    
C41   H6    S    
C4    C30   A    
C3    C16   S    
C42   O7    S    
H10   N4    S    
