data_mof_unit_5517.cif
_audit_creation_date              2013-03-05T16:36:15-0500
_audit_creation_method            fapswitch 2.2
_symmetry_space_group_name_H-M    P1
_symmetry_Int_Tables_number       1
_space_group_crystal_system       triclinic
_cell_length_a                    27.765707
_cell_length_b                    9.110676
_cell_length_c                    7.77218
_cell_angle_alpha                 89.892431
_cell_angle_beta                  90.011027
_cell_angle_gamma                 91.592635
_cell_volume                      1965.32155306

loop_
_atom_site_label
_atom_site_type_symbol
_atom_site_description
_atom_site_fract_x
_atom_site_fract_y
_atom_site_fract_z
_atom_type_partial_charge
O1    O     O_R   0.500000 0.288390 0.642760 -0.581378
O2    O     O_R   0.500000 0.711610 0.357240 -0.581122
O3    O     O_R   0.500000 0.711610 0.642760 -0.569657
O4    O     O_R   0.500000 0.288390 0.357240 -0.576766
C1    C     C_R   0.499899 0.219933 0.500098 0.825874
C2    C     C_R   0.500047 0.780065 0.499901 0.841410
O5    O     O_R   0.430260 0.500000 0.642770 -0.567520
O6    O     O_R   0.569740 0.500000 0.357230 -0.603616
O7    O     O_R   0.569740 0.500000 0.642770 -0.548276
O8    O     O_R   0.430260 0.500000 0.357230 -0.574515
C3    C     C_R   0.407177 0.497722 0.500025 0.792543
C4    C     C_R   0.592984 0.503100 0.499996 0.844938
Cu1   Cu    Cu3+1 0.500000 0.500000 0.669080 1.022325
Cu2   Cu    Cu3+1 0.500000 0.500000 0.330920 1.002089
C5    C     C_R   0.173662 0.351537 0.483933 0.613025
C6    C     C_R   0.826744 0.646469 0.487072 0.612709
C7    C     C_R   0.180397 0.594237 0.599446 0.582107
C8    C     C_R   0.819491 0.397632 0.584138 0.578700
O9    O     O_2   0.195756 0.233575 0.419738 -0.507745
O10   O     O_2   0.804703 0.769221 0.435962 -0.501489
O11   O     O_2   0.209323 0.703411 0.660520 -0.564206
O12   O     O_2   0.790147 0.284144 0.630861 -0.555591
N1    N     N_R   0.200922 0.471150 0.534818 -0.429397
N2    N     N_R   0.799370 0.524807 0.529570 -0.431331
C9    C     C_R   0.275688 0.568557 0.402759 0.137070
C10   C     C_R   0.724529 0.454873 0.378970 0.159751
C11   C     C_R   0.279703 0.376943 0.620205 0.131969
C12   C     C_R   0.721029 0.597854 0.642552 0.101703
C13   C     C_R   0.326309 0.583728 0.400832 0.063454
C14   C     C_R   0.673993 0.446702 0.371257 0.015785
C15   C     C_R   0.330293 0.377329 0.605159 0.060790
C16   C     C_R   0.670244 0.591817 0.635684 0.049948
C17   C     C_R   0.252603 0.470217 0.517186 0.291509
C18   C     C_R   0.747800 0.528655 0.515040 0.310189
C19   C     C_R   0.101286 0.482374 0.552861 -0.126861
C20   C     C_R   0.898870 0.511240 0.548128 -0.125175
C21   C     C_R   0.123037 0.351570 0.498892 -0.025656
C22   C     C_R   0.877384 0.643904 0.498414 -0.026889
C23   C     C_R   0.129867 0.607043 0.600234 -0.057390
C24   C     C_R   0.870038 0.385262 0.589356 -0.058479
C25   C     C_R   0.093259 0.227716 0.456961 0.193924
C26   C     C_R   0.907404 0.767494 0.457607 0.194429
C27   C     C_R   0.106549 0.739222 0.643911 0.156811
C28   C     C_R   0.893167 0.252503 0.632400 0.155945
C29   C     C_R   0.354062 0.486084 0.501029 -0.140046
C30   C     C_R   0.646369 0.513914 0.501419 -0.128180
C31   C     C_R   0.971567 0.366967 0.568073 0.012862
C32   C     C_R   0.028517 0.625988 0.572236 0.012419
C33   C     C_R   0.978442 0.633635 0.542324 0.034936
C34   C     C_R   0.021799 0.359813 0.540926 0.035342
C35   C     C_R   0.949612 0.504039 0.553951 0.077367
C36   C     C_R   0.050537 0.489230 0.556572 0.077639
C37   C     C_R   0.942959 0.243003 0.611518 -0.199219
C38   C     C_R   0.056903 0.749245 0.619512 -0.199069
C39   C     C_R   0.956929 0.764034 0.490682 -0.267312
C40   C     C_R   0.043643 0.230183 0.488896 -0.267622
H1    H     H_    0.959361 0.139187 0.639540 0.151996
H2    H     H_    0.040393 0.852805 0.647567 0.152909
H3    H     H_    0.978814 0.861240 0.462151 0.129114
H4    H     H_    0.022007 0.132805 0.459306 0.129418
C41   C     C_1   0.499916 0.065320 0.500137 -0.173156
C42   C     C_1   0.499967 0.934676 0.499864 -0.172044
N3    N     N_1   0.500000 0.500000 0.076820 -0.042944
N4    N     N_1   0.500000 0.500000 0.923180 -0.038457
N5    N     N_3   0.356274 0.266864 0.697774 -0.556342
H5    H     H_    0.341636 0.164261 0.662942 0.210253
H6    H     H_    0.391900 0.261317 0.656992 0.225345
N6    N     N_3   0.642681 0.666502 0.763176 -0.559747
H7    H     H_    0.650944 0.624463 0.884522 0.223499
H8    H     H_    0.652194 0.778268 0.760074 0.222966
N7    N     N_3   0.347829 0.701284 0.299393 -0.563204
H9    H     H_    0.384919 0.712084 0.316146 0.232827
H10   H     H_    0.334807 0.800043 0.346298 0.213622
N8    N     N_3   0.651867 0.365077 0.233161 -0.586499
H11   H     H_    0.627993 0.285719 0.284402 0.235289
H12   H     H_    0.633154 0.437016 0.154423 0.247645
N9    N     N_3   0.255149 0.282812 0.741926 -0.548858
H13   H     H_    0.260478 0.173512 0.708154 0.247791
H14   H     H_    0.270007 0.301787 0.863762 0.249490
N10   N     N_3   0.746132 0.671873 0.780000 -0.559839
H15   H     H_    0.736808 0.782202 0.779753 0.243287
H16   H     H_    0.735350 0.624403 0.896751 0.218277
N11   N     N_3   0.246798 0.655750 0.291070 -0.559651
H17   H     H_    0.252248 0.766489 0.322211 0.250773
H18   H     H_    0.258052 0.639641 0.164293 0.252669
N12   N     N_3   0.752985 0.386082 0.249688 -0.557264
H19   H     H_    0.744017 0.273867 0.248599 0.264914
H20   H     H_    0.743952 0.430049 0.130012 0.235017
N13   N     N_3   0.112448 0.100999 0.375683 -0.515617
H21   H     H_    0.098376 0.095427 0.251009 0.221729
H22   H     H_    0.099486 0.007797 0.440663 0.221413
N14   N     N_3   0.888679 0.893525 0.372845 -0.515879
H23   H     H_    0.902043 0.894721 0.247085 0.220839
H24   H     H_    0.902846 0.987513 0.432640 0.220960
N15   N     N_3   0.131632 0.866054 0.711867 -0.578085
H25   H     H_    0.157095 0.904875 0.622639 0.282871
H26   H     H_    0.148573 0.837346 0.826739 0.266183
N16   N     N_3   0.867841 0.125426 0.699199 -0.574556
H27   H     H_    0.843258 0.085379 0.607795 0.292174
H28   H     H_    0.849811 0.154364 0.811678 0.263815

loop_
_geom_bond_atom_site_label_1
_geom_bond_atom_site_label_2
_geom_bond_distance
_ccdc_geom_bond_type
C25   N13   1.432765 S    
C39   H3    1.082634 S    
N15   H25   1.044633 S    
O3    C2    1.272457 A    
N9    H13   1.044789 S    
C11   C17   1.400780 A    
C32   C38   1.403374 A    
C7    N1    1.368357 A    
N8    H12   1.044669 S    
C8    N2    1.366937 A    
C19   C21   1.415215 A    
C22   C26   1.417673 A    
C32   C36   1.408550 A    
C14   N8    1.435191 S    
N12   H20   1.045290 S    
N5    H6    1.041377 S    
C7    C23   1.411093 A    
C8    C24   1.411681 A    
C5    C21   1.410476 A    
C20   C24   1.417211 A    
O7    Cu1   1.947184 S    
C5    O9    1.348713 S    
C28   N16   1.434238 S    
C28   C37   1.397138 A    
C10   C18   1.402157 A    
N6    H7    1.045113 S    
N1    C17   1.441763 S    
C27   N15   1.434099 S    
N13   H22   1.042639 S    
O3    Cu1   1.938351 S    
C6    O10   1.348815 S    
C16   N6    1.436068 S    
C5    N1    1.368403 A    
C12   C18   1.400316 A    
C6    N2    1.366488 A    
Cu1   Cu2   2.628241 S    
C21   C25   1.418630 A    
O2    C2    1.273156 A    
C12   N10   1.434599 S    
O5    C3    1.281072 A    
C31   C34   1.413950 A    
N9    H14   1.045596 S    
C9    C13   1.408556 A    
N8    H11   1.045538 S    
C11   C15   1.409458 A    
C12   C16   1.410624 A    
N10   H16   1.044740 S    
O8    Cu2   1.947187 S    
N7    H10   1.045261 S    
C37   H1    1.082848 S    
N12   H19   1.045546 S    
N10   H15   1.044919 S    
C31   C35   1.408884 A    
C10   N12   1.434185 S    
C33   C35   1.410710 A    
C33   C39   1.402452 A    
C34   C40   1.402819 A    
C40   H4    1.082574 S    
C13   C29   1.423690 A    
C19   C23   1.416608 A    
C25   C40   1.400653 A    
C26   C39   1.400094 A    
C27   C38   1.396890 A    
C34   C36   1.410646 A    
N11   H17   1.044893 S    
O5    Cu1   1.947108 S    
O6    C4    1.283499 A    
N14   H24   1.042428 S    
C1    C41   1.408637 S    
C20   C35   1.412961 A    
C4    C30   1.482860 S    
C32   C33   1.413213 A    
N11   H18   1.045596 S    
C10   C14   1.404359 A    
N16   H28   1.045341 S    
O1    C1    1.273155 A    
C3    C29   1.475655 S    
O1    Cu1   1.939115 S    
C38   H2    1.082917 S    
C15   N5    1.445281 S    
O6    Cu2   1.947106 S    
C8    O12   1.347837 S    
C16   C30   1.417219 A    
C14   C30   1.419643 A    
O4    C1    1.272439 A    
C11   N9    1.435256 S    
C23   C27   1.424622 A    
N15   H26   1.045258 S    
C31   C37   1.403311 A    
C2    C42   1.408670 S    
C20   C22   1.415728 A    
N7    H9    1.039965 S    
Cu1   N4    1.974910 S    
Cu2   N3    1.974910 S    
N14   H23   1.045488 S    
C26   N14   1.432807 S    
N5    H5    1.045033 S    
O4    Cu2   1.938352 S    
C41   C42   1.190307 T    
O2    Cu2   1.939115 S    
O7    C4    1.283670 A    
N2    C18   1.437688 S    
O8    C3    1.281552 A    
N3    N4    1.194119 T    
C24   C28   1.424372 A    
N6    H8    1.045059 S    
N16   H27   1.044334 S    
C15   C29   1.425884 A    
C9    C17   1.403509 A    
C19   C36   1.412485 A    
C9    N11   1.435479 S    
N13   H21   1.045524 S    
C6    C22   1.409633 A    
C13   N7    1.444687 S    
C7    O11   1.347930 S    
