data_mof_unit_53649.cif
_audit_creation_date              2012-12-11T15:22:43-0500
_audit_creation_method            fapswitch 2.2
_symmetry_space_group_name_H-M    P1
_symmetry_Int_Tables_number       1
_space_group_crystal_system       triclinic
_cell_length_a                    22.444693
_cell_length_b                    12.984988
_cell_length_c                    26.976536
_cell_angle_alpha                 89.892737
_cell_angle_beta                  90.413239
_cell_angle_gamma                 89.992288
_cell_volume                      7861.93307584

loop_
_atom_site_label
_atom_site_type_symbol
_atom_type_description
_atom_site_fract_x
_atom_site_fract_y
_atom_site_fract_z
_atom_type_partial_charge
C1    C     C_R   0.720719 0.345005 0.178383 0.538961
C2    C     C_R   0.479314 0.256889 0.897077 -0.122781
C3    C     C_R   0.019536 0.590126 0.557755 -0.107837
C4    C     C_R   0.501999 0.078182 0.394756 0.197345
C5    C     C_R   0.504120 0.089859 0.605762 0.188549
C6    C     C_R   0.003975 0.582319 0.396572 0.202790
C7    C     C_R   0.006610 0.587512 0.608214 0.184314
C8    C     C_R   0.733483 0.984075 0.376933 -0.005383
C9    C     C_R   0.266014 0.981538 0.623738 -0.006610
C10   C     C_R   0.233507 0.482721 0.376552 -0.007774
C11   C     C_R   0.756913 0.447722 0.630634 -0.013335
C12   C     C_R   0.715836 0.889369 0.396664 -0.096324
C13   C     C_R   0.020790 0.757194 0.102751 -0.122744
C14   C     C_R   0.284340 0.886579 0.604845 -0.100470
C15   C     C_R   0.216248 0.387419 0.395855 -0.100288
C16   C     C_R   0.800620 0.383187 0.610343 -0.105959
C17   C     C_R   0.712738 0.876353 0.448421 0.293625
C18   C     C_R   0.287718 0.872282 0.553233 0.294642
C19   C     C_R   0.212597 0.373793 0.447522 0.294557
C20   C     C_R   0.797129 0.353096 0.560331 0.279547
C21   C     C_R   0.727726 0.960198 0.479529 0.039319
C22   C     C_R   0.271639 0.954574 0.521485 0.041653
C23   C     C_R   0.227314 0.457150 0.478956 0.040376
C24   C     C_R   0.979320 0.756888 0.897074 -0.122781
C25   C     C_R   0.747894 0.386285 0.531782 0.058934
C26   C     C_R   0.742580 0.055655 0.459066 -0.176033
C27   C     C_R   0.256486 0.050468 0.541125 -0.183580
C28   C     C_R   0.241396 0.553297 0.458877 -0.183999
C29   C     C_R   0.702269 0.444028 0.553740 -0.160252
C30   C     C_R   0.745822 0.067174 0.408344 -0.144080
C31   C     C_R   0.253629 0.063713 0.591707 -0.145663
C32   C     C_R   0.244480 0.565865 0.408213 -0.147154
C33   C     C_R   0.706362 0.473214 0.602786 -0.142966
C34   C     C_R   0.786999 0.979625 0.556083 -0.129226
C35   C     C_R   0.509024 0.258491 0.051656 0.006366
C36   C     C_R   0.211205 0.970548 0.445588 -0.133973
C37   C     C_R   0.286822 0.476059 0.555286 -0.130242
C38   C     C_R   0.688840 0.343817 0.457284 -0.164456
C39   C     C_R   0.720018 0.344450 0.322767 0.578142
C40   C     C_R   0.278394 0.348394 0.678494 0.572121
C41   C     C_R   0.221483 0.848075 0.321577 0.568782
C42   C     C_R   0.778414 0.848684 0.678603 0.576295
C43   C     C_R   0.797972 0.955831 0.605186 -0.145909
C44   C     C_R   0.200574 0.949184 0.396290 -0.156548
C45   C     C_R   0.297638 0.453863 0.604547 -0.150296
C46   C     C_R   0.490923 0.258312 0.948192 0.006144
C47   C     C_R   0.681703 0.343412 0.406528 -0.174921
C48   C     C_R   0.701693 0.869267 0.610621 0.290152
C49   C     C_R   0.297940 0.866081 0.390013 0.270127
C50   C     C_R   0.201493 0.366474 0.610292 0.278375
C51   C     C_R   0.787295 0.376039 0.395655 0.250110
C52   C     C_R   0.690132 0.898428 0.561099 -0.051949
C53   C     C_R   0.309114 0.893343 0.439861 -0.062073
C54   C     C_R   0.190056 0.394652 0.560528 -0.058890
C55   C     C_R   0.793528 0.384544 0.447286 -0.063046
C56   C     C_R   0.734266 0.947075 0.533206 0.013185
C57   C     C_R   0.009034 0.758489 0.051651 0.006433
C58   C     C_R   0.264541 0.939807 0.468036 0.020900
C59   C     C_R   0.234112 0.443235 0.532551 0.019904
C60   C     C_R   0.744197 0.367919 0.478208 0.011554
C61   C     C_R   0.757445 0.895582 0.631996 0.036724
C62   C     C_R   0.241945 0.892358 0.368812 0.032254
C63   C     C_R   0.257244 0.393981 0.631602 0.035461
C64   C     C_R   0.730139 0.361827 0.375346 0.033877
C65   C     C_R   0.552654 0.158665 0.320951 0.575922
C66   C     C_R   0.445990 0.159324 0.678281 0.591742
C67   C     C_R   0.054357 0.658864 0.321873 0.589006
C68   C     C_R   0.990931 0.758311 0.948188 0.006160
C69   C     C_R   0.946473 0.659207 0.678690 0.593028
C70   C     C_R   0.730797 0.005441 0.324129 0.540860
C71   C     C_R   0.269013 0.004714 0.676201 0.538953
C72   C     C_R   0.230910 0.504866 0.323914 0.536373
C73   C     C_R   0.768027 0.501028 0.677420 0.548152
C74   C     C_R   0.515506 0.070159 0.102674 -0.125505
C75   C     C_R   0.483599 0.069773 0.897746 -0.125336
C76   C     C_R   0.015519 0.570156 0.102669 -0.125426
C77   C     C_R   0.983609 0.569773 0.897741 -0.125198
C78   C     C_R   0.506161 0.070068 0.051752 -0.001673
C79   C     C_R   0.503493 0.164407 0.025921 0.048589
C80   C     C_R   0.492844 0.069853 0.948684 -0.001878
C81   C     C_R   0.006175 0.570066 0.051747 -0.001578
C82   C     C_R   0.992856 0.569852 0.948679 -0.001905
C83   C     C_R   0.496355 0.976587 0.974692 -0.074819
C84   C     C_R   0.502167 0.976699 0.026043 -0.075158
C85   C     C_R   0.996369 0.476586 0.974687 -0.074748
C86   C     C_R   0.002182 0.476697 0.026037 -0.075251
C87   C     C_3   0.476377 0.406136 0.360572 -0.103880
C88   C     C_3   0.473606 0.424599 0.627786 -0.117596
C89   C     C_3   0.014252 0.920409 0.369925 -0.115473
C90   C     C_R   0.495957 0.164305 0.974222 0.048423
C91   C     C_3   0.977761 0.924144 0.629665 -0.111412
C92   C     C_3   0.645876 0.743371 0.454234 -0.130542
C93   C     C_3   0.357529 0.743790 0.548875 -0.154270
C94   C     C_3   0.144548 0.242552 0.452179 -0.152883
C95   C     C_3   0.897396 0.319635 0.548974 -0.141246
C96   C     C_3   0.628557 0.742484 0.613128 -0.081973
C97   C     C_3   0.376857 0.748622 0.386739 -0.082488
C98   C     C_3   0.122223 0.249142 0.612971 -0.084571
C99   C     C_3   0.871841 0.297428 0.369827 -0.056626
C100  C     C_3   0.840374 0.134297 0.111199 -0.029188
C101  C     C_R   0.003505 0.664405 0.025917 0.048600
C102  C     C_3   0.159880 0.134143 0.888716 -0.027677
C103  C     C_3   0.340388 0.634270 0.111210 -0.027862
C104  C     C_3   0.659874 0.634122 0.888712 -0.027881
C105  C     C_R   0.279259 0.344940 0.821599 0.533585
C106  C     C_R   0.995968 0.664304 0.974218 0.048425
C107  C     C_R   0.505004 0.351680 0.025437 -0.034382
C108  C     C_R   0.495327 0.351597 0.974124 -0.034810
C109  C     C_R   0.005010 0.851679 0.025434 -0.034460
C110  C     C_R   0.995333 0.851596 0.974120 -0.034749
C111  C     C_R   0.741094 0.957866 0.129163 -0.056273
C112  C     C_R   0.258819 0.957203 0.870759 -0.056463
C113  C     C_R   0.241099 0.457851 0.129168 -0.056657
C114  C     C_R   0.758816 0.457187 0.870755 -0.056152
C115  C     C_R   0.793516 0.979504 0.101902 0.275890
C116  C     C_R   0.220720 0.845008 0.178385 0.532984
C117  C     C_R   0.206460 0.978982 0.898043 0.275773
C118  C     C_R   0.293524 0.479483 0.101908 0.275415
C119  C     C_R   0.706455 0.478961 0.898038 0.275766
C120  C     C_R   0.797550 0.947895 0.052330 0.211782
C121  C     C_R   0.202435 0.947137 0.947621 0.211583
C122  C     C_R   0.297558 0.447876 0.052336 0.211677
C123  C     C_R   0.702429 0.447111 0.947615 0.211591
C124  C     C_R   0.748298 0.901357 0.028818 -0.004951
C125  C     C_R   0.251611 0.900077 0.971083 -0.004721
C126  C     C_R   0.248306 0.401338 0.028823 -0.004838
C127  C     C_R   0.779258 0.844941 0.821599 0.532993
C128  C     C_R   0.751604 0.400049 0.971077 -0.004756
C129  C     C_R   0.696957 0.878175 0.056008 0.190965
C130  C     C_R   0.302828 0.876541 0.943849 0.190729
C131  C     C_R   0.196966 0.378155 0.056012 0.190858
C132  C     C_R   0.802822 0.376516 0.943843 0.190676
C133  C     C_R   0.553805 0.157272 0.177470 0.539372
C134  C     C_R   0.446134 0.157138 0.822557 0.542124
C135  C     C_R   0.053808 0.657272 0.177468 0.541171
C136  C     C_R   0.946136 0.657138 0.822556 0.542311
C137  C     C_R   0.693911 0.905192 0.105860 -0.153549
C138  C     C_R   0.473656 0.162450 0.872045 -0.008412
C139  C     C_R   0.305885 0.903909 0.893999 -0.154201
C140  C     C_R   0.193918 0.405174 0.105864 -0.154278
C141  C     C_R   0.805880 0.403888 0.893993 -0.154027
C142  C     C_R   0.717576 0.941774 0.942095 -0.058055
C143  C     C_R   0.282574 0.940626 0.057612 -0.058877
C144  C     C_R   0.217575 0.441748 0.942101 -0.057959
C145  C     C_R   0.782581 0.440584 0.057605 -0.058891
C146  C     C_R   0.726027 0.931122 0.891078 -0.133157
C147  C     C_R   0.274055 0.930477 0.108653 -0.134034
C148  C     C_R   0.226022 0.431100 0.891083 -0.133157
C149  C     C_R   0.526065 0.162818 0.128059 -0.009255
C150  C     C_R   0.774064 0.430442 0.108647 -0.133747
C151  C     C_R   0.799943 0.798284 0.907325 -0.119125
C152  C     C_R   0.199795 0.798123 0.092852 -0.118757
C153  C     C_R   0.299956 0.298289 0.907325 -0.119192
C154  C     C_R   0.699780 0.298127 0.092851 -0.119298
C155  C     C_R   0.790556 0.807131 0.957854 -0.064897
C156  C     C_R   0.209268 0.806427 0.042308 -0.065297
C157  C     C_R   0.290572 0.307131 0.957854 -0.064947
C158  C     C_R   0.709252 0.306420 0.042307 -0.065032
C159  C     C_R   0.750532 0.880657 0.975503 0.109308
C160  C     C_R   0.973662 0.662451 0.872041 -0.008331
C161  C     C_R   0.249480 0.879502 0.024424 0.109145
C162  C     C_R   0.250541 0.380643 0.975507 0.109354
C163  C     C_R   0.749474 0.379476 0.024419 0.109205
C164  C     C_R   0.768271 0.860862 0.873909 0.031944
C165  C     C_R   0.231576 0.860777 0.126041 0.032050
C166  C     C_R   0.268274 0.360857 0.873911 0.031660
C167  C     C_R   0.731573 0.360768 0.126038 0.030870
C168  C     C_R   0.521139 0.167365 0.368912 0.033807
C169  C     C_R   0.473141 0.171531 0.628691 0.034424
C170  C     C_R   0.028342 0.668844 0.371885 0.035843
C171  C     C_R   0.026074 0.662816 0.128055 -0.008330
C172  C     C_R   0.975773 0.670668 0.630141 0.035095
C173  C     C_R   0.519060 0.263349 0.393586 0.209686
C174  C     C_R   0.460172 0.261296 0.600451 0.229044
C175  C     C_R   0.037190 0.761275 0.398978 0.228232
C176  C     C_R   0.965220 0.760998 0.601708 0.229987
C177  C     C_R   0.511805 0.265666 0.444953 -0.123500
C178  C     C_R   0.469025 0.261127 0.549413 -0.110925
C179  C     C_R   0.029708 0.761306 0.450175 -0.108800
C180  C     C_R   0.976954 0.760668 0.551158 -0.107616
C181  C     C_R   0.731232 0.003205 0.178726 0.558665
C182  C     C_R   0.520781 0.257196 0.102755 -0.122952
C183  C     C_R   0.268745 0.002995 0.821244 0.555155
C184  C     C_R   0.231234 0.503199 0.178728 0.555012
C185  C     C_R   0.768743 0.502989 0.821243 0.554609
C186  C     C_R   0.500231 0.175075 0.471514 -0.044973
C187  C     C_R   0.495143 0.176775 0.526044 -0.048544
C188  C     C_R   0.009709 0.673308 0.474751 -0.046611
C189  C     C_R   0.002452 0.674740 0.528731 -0.047017
C190  C     C_R   0.491814 0.082968 0.445557 -0.100901
C191  C     C_R   0.515217 0.093480 0.554909 -0.105734
C192  C     C_R   0.994859 0.585372 0.447551 -0.096565
Cl1   Cl    Cl    0.635533 0.815257 0.028546 -0.623942
Cl2   Cl    Cl    0.135837 0.970302 0.980508 -0.604018
Cl3   Cl    Cl    0.364301 0.470565 0.019539 -0.602115
Cl4   Cl    Cl    0.635830 0.470278 0.980501 -0.603570
Cl5   Cl    Cl    0.364084 0.812832 0.971272 -0.625232
Cl6   Cl    Cl    0.135543 0.315232 0.028551 -0.625035
Cl7   Cl    Cl    0.864078 0.312805 0.971264 -0.625418
Cl8   Cl    Cl    0.529854 0.981247 0.638837 -0.590459
Cl9   Cl    Cl    0.490227 0.957867 0.366044 -0.607831
Cl10  Cl    Cl    0.029687 0.478072 0.641987 -0.608241
Cl11  Cl    Cl    0.984995 0.467138 0.366030 -0.619878
Cl12  Cl    Cl    0.864293 0.970580 0.019532 -0.602159
Cr1   Cr    Cr6+3 0.756570 0.170940 0.251190 1.034045
Cr2   Cr    Cr6+3 0.374010 0.036240 0.749520 1.060022
Cr3   Cr    Cr6+3 0.125990 0.536240 0.250480 1.059402
Cr4   Cr    Cr6+3 0.874010 0.536240 0.749520 1.056016
Cr5   Cr    Cr6+3 0.243430 0.170940 0.748810 1.067878
Cr6   Cr    Cr6+3 0.256570 0.670940 0.251190 1.063673
Cr7   Cr    Cr6+3 0.743430 0.670940 0.748810 1.068150
Cr8   Cr    Cr6+3 0.623740 0.299110 0.249580 1.061799
Cr9   Cr    Cr6+3 0.376260 0.299110 0.750420 1.050660
Cr10  Cr    Cr6+3 0.123740 0.799110 0.249580 1.052260
Cr11  Cr    Cr6+3 0.876260 0.799110 0.750420 1.052231
Cr12  Cr    Cr6+3 0.625990 0.036240 0.250480 1.066401
H1    H     H_    0.479626 0.996434 0.878840 0.147821
H2    H     H_    0.346447 0.887168 0.874034 0.180121
H3    H     H_    0.084872 0.291965 0.595289 0.150861
H4    H     H_    0.102491 0.193286 0.639324 0.149275
H5    H     H_    0.845712 0.225242 0.365026 0.105178
H6    H     H_    0.895670 0.296719 0.406115 0.130996
H7    H     H_    0.905740 0.298244 0.340141 0.190572
H8    H     H_    0.795591 0.168970 0.116299 0.114846
H9    H     H_    0.855091 0.147040 0.072514 0.205168
H10   H     H_    0.871783 0.176161 0.135872 0.145758
H11   H     H_    0.204795 0.168467 0.883824 0.113765
H12   H     H_    0.144913 0.146801 0.927316 0.204556
H13   H     H_    0.153279 0.388629 0.125785 0.180089
H14   H     H_    0.128765 0.176416 0.863866 0.148334
H15   H     H_    0.295603 0.668947 0.116297 0.114309
H16   H     H_    0.355122 0.647015 0.072529 0.204964
H17   H     H_    0.371788 0.676131 0.135892 0.148180
H18   H     H_    0.704788 0.668448 0.883823 0.113951
H19   H     H_    0.644903 0.646777 0.927311 0.204623
H20   H     H_    0.628760 0.676395 0.863861 0.147959
H21   H     H_    0.846443 0.387150 0.874028 0.180262
H22   H     H_    0.538404 0.029791 0.537746 0.139788
H23   H     H_    0.478348 0.013734 0.464960 0.139203
H24   H     H_    0.041834 0.525044 0.540948 0.138403
H25   H     H_    0.976746 0.518327 0.466102 0.138728
H26   H     H_    0.517297 0.338478 0.463923 0.115171
H27   H     H_    0.452784 0.326088 0.528026 0.122634
H28   H     H_    0.041456 0.829915 0.470857 0.121272
H29   H     H_    0.519114 0.996867 0.121805 0.147765
H30   H     H_    0.963300 0.826495 0.529094 0.124921
H31   H     H_    0.706078 0.825889 0.371955 0.119348
H32   H     H_    0.294908 0.824110 0.630051 0.114655
H33   H     H_    0.206782 0.324156 0.370930 0.113863
H34   H     H_    0.838176 0.359332 0.632951 0.134954
H35   H     H_    0.821259 0.019056 0.535255 0.142072
H36   H     H_    0.176452 0.007353 0.466843 0.118175
H37   H     H_    0.321092 0.514805 0.534238 0.119588
H38   H     H_    0.650586 0.327392 0.480272 0.126675
H39   H     H_    0.840387 0.978788 0.620985 0.175113
H40   H     H_    0.979638 0.496434 0.878835 0.148030
H41   H     H_    0.157863 0.971460 0.380760 0.176382
H42   H     H_    0.339824 0.477885 0.620355 0.169284
H43   H     H_    0.638530 0.323900 0.391465 0.191324
H44   H     H_    0.493733 0.903596 0.955385 0.177074
H45   H     H_    0.504471 0.903784 0.045577 0.175868
H46   H     H_    0.993747 0.403595 0.955379 0.177084
H47   H     H_    0.004487 0.403782 0.045571 0.175406
H48   H     H_    0.647744 0.881238 0.543676 0.121187
H49   H     H_    0.351656 0.877234 0.457287 0.123398
H50   H     H_    0.147824 0.377337 0.542890 0.119292
H51   H     H_    0.019127 0.496865 0.121800 0.146675
H52   H     H_    0.836390 0.405654 0.462807 0.152203
H53   H     H_    0.752803 0.121089 0.482531 0.155070
H54   H     H_    0.245973 0.114956 0.517114 0.178528
H55   H     H_    0.250877 0.618537 0.482597 0.178791
H56   H     H_    0.664466 0.471365 0.532260 0.110256
H57   H     H_    0.756600 0.142300 0.393524 0.135681
H58   H     H_    0.243331 0.139489 0.605981 0.155613
H59   H     H_    0.253926 0.641773 0.393562 0.154062
H60   H     H_    0.671496 0.521063 0.617934 0.127161
H61   H     H_    0.471707 0.328665 0.877441 0.147595
H62   H     H_    0.831882 0.742190 0.894110 0.113254
H63   H     H_    0.528835 0.328957 0.122150 0.148215
H64   H     H_    0.971709 0.828665 0.877439 0.147626
H65   H     H_    0.028842 0.828955 0.122146 0.147503
H66   H     H_    0.491488 0.424461 0.954722 0.183696
H67   H     H_    0.509188 0.424599 0.044610 0.184304
H68   H     H_    0.991491 0.924460 0.954719 0.183693
H69   H     H_    0.009193 0.924597 0.044607 0.183908
H70   H     H_    0.686682 0.999153 0.955630 0.135778
H71   H     H_    0.313613 0.997658 0.043879 0.135362
H72   H     H_    0.186675 0.499116 0.955638 0.135857
H73   H     H_    0.167734 0.742352 0.106258 0.113548
H74   H     H_    0.813629 0.497599 0.043870 0.135485
H75   H     H_    0.700813 0.978444 0.865335 0.117104
H76   H     H_    0.299406 0.977735 0.134240 0.115718
H77   H     H_    0.200800 0.478413 0.865341 0.117281
H78   H     H_    0.799425 0.477688 0.134231 0.117304
H79   H     H_    0.816087 0.759578 0.983329 0.140831
H80   H     H_    0.183630 0.758889 0.016991 0.140826
H81   H     H_    0.316110 0.259585 0.983328 0.140694
H82   H     H_    0.683605 0.258893 0.016991 0.140816
H83   H     H_    0.455673 0.429976 0.396119 0.102497
H84   H     H_    0.331900 0.242207 0.894108 0.113228
H85   H     H_    0.444773 0.358119 0.338531 0.128055
H86   H     H_    0.485358 0.477072 0.338901 0.147303
H87   H     H_    0.489740 0.454320 0.591574 0.088744
H88   H     H_    0.511844 0.399001 0.651313 0.123839
H89   H     H_    0.451640 0.489388 0.647200 0.135106
H90   H     H_    0.996496 0.947823 0.405977 0.098577
H91   H     H_    0.977688 0.887998 0.346581 0.128725
H92   H     H_    0.032470 0.988301 0.350145 0.136951
H93   H     H_    0.996223 0.953514 0.594178 0.094746
H94   H     H_    0.014401 0.898118 0.654792 0.124977
H95   H     H_    0.667710 0.242372 0.106260 0.113233
H96   H     H_    0.954890 0.989287 0.648063 0.137884
H97   H     H_    0.647362 0.711885 0.416018 0.142446
H98   H     H_    0.610632 0.803517 0.457199 0.118698
H99   H     H_    0.633209 0.679235 0.479267 0.127294
H100  H     H_    0.355675 0.709369 0.586554 0.129211
H101  H     H_    0.391108 0.807025 0.547655 0.124730
H102  H     H_    0.372993 0.683022 0.523154 0.116083
H103  H     H_    0.147098 0.207984 0.414626 0.132486
H104  H     H_    0.110066 0.304357 0.453064 0.127665
H105  H     H_    0.129836 0.181284 0.478040 0.115385
H106  H     H_    0.653273 0.888646 0.125782 0.180980
H107  H     H_    0.912888 0.291401 0.585746 0.145036
H108  H     H_    0.902442 0.404891 0.546250 0.125381
H109  H     H_    0.926982 0.285252 0.520697 0.130914
H110  H     H_    0.658268 0.698643 0.587845 0.102008
H111  H     H_    0.590437 0.776182 0.592232 0.138858
H112  H     H_    0.609957 0.686770 0.640119 0.140599
H113  H     H_    0.351293 0.702078 0.413964 0.086257
H114  H     H_    0.414094 0.789488 0.405519 0.159672
H115  H     H_    0.396752 0.694125 0.359911 0.151538
H116  H     H_    0.146999 0.203912 0.584824 0.085784
O1    O     O_R   0.769900 0.064540 0.196060 -0.469386
O2    O     O_R   0.433710 0.069580 0.694600 -0.455020
O3    O     O_R   0.066290 0.569580 0.305400 -0.451745
O4    O     O_R   0.933710 0.569580 0.694600 -0.458399
O5    O     O_R   0.680760 0.993330 0.302620 -0.487296
O6    O     O_R   0.319240 0.993330 0.697380 -0.495377
O7    O     O_R   0.180760 0.493330 0.302620 -0.491771
O8    O     O_R   0.819240 0.493330 0.697380 -0.504588
O9    O     O_3   0.668770 0.168760 0.250420 -0.275443
O10   O     O_3   0.331230 0.168760 0.749580 -0.274021
O11   O     O_3   0.168770 0.668760 0.250420 -0.274203
O12   O     O_R   0.230100 0.064540 0.803940 -0.469591
O13   O     O_3   0.831230 0.668760 0.749580 -0.271515
O14   O     O_R   0.750800 0.274080 0.199250 -0.512944
O15   O     O_R   0.249200 0.274080 0.800750 -0.513017
O16   O     O_R   0.250800 0.774080 0.199250 -0.513083
O17   O     O_R   0.749200 0.774080 0.800750 -0.514215
O18   O     O_R   0.669990 0.371670 0.194150 -0.494997
O19   O     O_R   0.330010 0.371670 0.805850 -0.501153
O20   O     O_R   0.169990 0.871670 0.194150 -0.500842
O21   O     O_R   0.830010 0.871670 0.805850 -0.501205
O22   O     O_R   0.574600 0.238480 0.197800 -0.505609
O23   O     O_R   0.269900 0.564540 0.196060 -0.470004
O24   O     O_R   0.425400 0.238480 0.802200 -0.507751
O25   O     O_R   0.074600 0.738480 0.197800 -0.507225
O26   O     O_R   0.925400 0.738480 0.802200 -0.508170
O27   O     O_R   0.566130 0.068680 0.194240 -0.514515
O28   O     O_R   0.433870 0.068680 0.805760 -0.513790
O29   O     O_R   0.066130 0.568680 0.194240 -0.515483
O30   O     O_R   0.933870 0.568680 0.805760 -0.513026
O31   O     O_R   0.680610 0.992490 0.199570 -0.512757
O32   O     O_R   0.319390 0.992490 0.800430 -0.515527
O33   O     O_R   0.180610 0.492490 0.199570 -0.515404
O34   O     O_R   0.730100 0.564540 0.803940 -0.471012
O35   O     O_R   0.819390 0.492490 0.800430 -0.515613
O36   O     O_R   0.770060 0.065440 0.307230 -0.524797
O37   O     O_R   0.229940 0.065440 0.692770 -0.508902
O38   O     O_R   0.270060 0.565440 0.307230 -0.511983
O39   O     O_R   0.729940 0.565440 0.692770 -0.510400
O40   O     O_R   0.750960 0.274920 0.302300 -0.492275
O41   O     O_R   0.249040 0.274920 0.697700 -0.453160
O42   O     O_R   0.250960 0.774920 0.302300 -0.454181
O43   O     O_R   0.749040 0.774920 0.697700 -0.447686
O44   O     O_R   0.670160 0.372580 0.305320 -0.500232
O45   O     O_R   0.574760 0.239320 0.300850 -0.465345
O46   O     O_R   0.329840 0.372580 0.694680 -0.502616
O47   O     O_R   0.170160 0.872580 0.305320 -0.504266
O48   O     O_R   0.829840 0.872580 0.694680 -0.505775
O49   O     O_3   0.530753 0.354297 0.368774 -0.561212
O50   O     O_3   0.431619 0.344923 0.621156 -0.548729
O51   O     O_3   0.060552 0.848369 0.376927 -0.553169
O52   O     O_3   0.935885 0.844990 0.621350 -0.548388
O53   O     O_3   0.702385 0.780204 0.469124 -0.570307
O54   O     O_3   0.300395 0.776508 0.533295 -0.591684
O55   O     O_3   0.201102 0.277794 0.467867 -0.592613
O56   O     O_R   0.425240 0.239320 0.699150 -0.461449
O57   O     O_3   0.838447 0.286642 0.539340 -0.595597
O58   O     O_3   0.659282 0.819929 0.639676 -0.511010
O59   O     O_3   0.340622 0.819092 0.360271 -0.522079
O60   O     O_3   0.159445 0.317075 0.639891 -0.514293
O61   O     O_3   0.835949 0.386224 0.364901 -0.527436
O62   O     O_3   0.841596 0.028643 0.124040 -0.513800
O63   O     O_3   0.158444 0.028564 0.875931 -0.513831
O64   O     O_3   0.341604 0.528615 0.124049 -0.513898
O65   O     O_3   0.658439 0.528543 0.875926 -0.514074
O66   O     O_R   0.074760 0.739320 0.300850 -0.460197
O67   O     O_R   0.925240 0.739320 0.699150 -0.460648
O68   O     O_R   0.566290 0.069580 0.305400 -0.448834

loop_
_geom_bond_atom_site_label_1
_geom_bond_atom_site_label_2
_ccdc_geom_bond_type
C21   C26   A    
C34   C56   A    
C93   H101  S    
C153  C166  A    
C142  C146  A    
C112  C139  A    
C132  C141  A    
Cr8   O22   S    
C2    H61   S    
C152  C165  A    
C143  H71   S    
C111  C137  A    
C100  O62   S    
C51   O61   S    
C154  C158  A    
C98   H4    S    
C3    C189  A    
C113  C184  S    
C1    C167  S    
C93   H100  S    
C29   C33   A    
C79   C90   A    
C131  C140  A    
C136  O26   A    
C104  H19   S    
C57   C109  A    
C152  C156  A    
C116  O20   A    
C169  C174  A    
C133  O27   A    
C49   C62   A    
C25   C60   S    
C151  C155  A    
C69   O67   A    
C122  Cl3   S    
C94   O55   S    
C92   O53   S    
C99   H6    S    
C140  H13   S    
Cr9   O10   S    
C96   H110  S    
Cr11  O48   S    
C77   H40   S    
C80   C83   A    
C5    Cl8   S    
C91   H93   S    
C25   C29   A    
C107  H67   S    
C27   C31   A    
Cr6   O11   S    
C150  H78   S    
Cr4   O30   S    
C28   C32   A    
Cr10  O66   S    
Cr7   O43   S    
C47   C64   A    
C74   H29   S    
C99   O61   S    
C179  C188  A    
C15   H33   S    
C67   O66   A    
C17   C21   A    
C177  C186  A    
C4    C168  A    
C105  O15   A    
C69   C172  S    
C186  C190  A    
C19   C23   A    
C134  O28   A    
C26   H53   S    
C16   C20   A    
Cr1   O9    S    
C83   H44   S    
C68   C110  A    
C38   H38   S    
C65   O45   A    
C22   C27   A    
C149  C182  A    
C94   H104  S    
C154  C167  A    
C36   C44   A    
C127  O17   A    
C37   C45   A    
C12   H31   S    
C72   O38   A    
C121  Cl2   S    
C101  C106  A    
C43   C61   A    
C178  H27   S    
C70   O5    A    
C192  H25   S    
Cr11  O67   S    
C78   C79   A    
Cr12  O68   S    
C51   C64   A    
C1    O18   A    
C75   C138  A    
C22   C58   S    
C175  C179  A    
C53   C58   A    
C33   H60   S    
C119  C123  A    
C82   C85   A    
C6    Cl11  S    
C89   H90   S    
C139  H2    S    
C4    Cl9   S    
C52   C56   A    
C77   C82   A    
Cr3   O3    S    
C98   H116  S    
C36   H36   S    
C51   C55   A    
C132  Cl7   S    
Cr9   O56   S    
C19   O55   S    
C66   O2    A    
C35   C107  A    
C91   O52   S    
Cr6   O42   S    
C17   O53   S    
Cr5   O12   S    
C48   C52   A    
C129  C137  A    
C30   H57   S    
C102  H14   S    
C97   O59   S    
C157  H81   S    
C186  C187  S    
C31   H58   S    
C157  C162  A    
C143  C161  A    
C97   H113  S    
Cr2   O2    S    
C127  C164  S    
C88   H88   S    
C111  C181  S    
C183  O32   A    
C45   H42   S    
C81   C101  A    
C85   C86   A    
C23   C59   S    
C148  H77   S    
Cr9   O19   S    
C65   C168  S    
C185  O35   A    
C114  C185  S    
C180  C189  A    
C53   H49   S    
C13   C57   A    
C75   H1    S    
C105  C166  S    
C118  C122  A    
C147  C165  A    
C7    C172  A    
C46   C108  A    
C107  C108  A    
C173  C177  A    
C145  C150  A    
C73   O39   A    
C3    H24   S    
C95   H109  S    
C104  H18   S    
C50   O60   S    
C50   C63   A    
C54   C59   A    
C103  H15   S    
C99   H7    S    
C72   O7    A    
Cr12  O9    S    
C155  C159  A    
C114  C141  A    
C4    C190  A    
C11   C33   A    
C5    C191  A    
C39   O40   A    
C145  H74   S    
C89   H92   S    
Cr4   O13   S    
C69   O4    A    
C145  C163  A    
C146  C164  A    
C121  C125  A    
C146  H75   S    
C83   C84   A    
C8    C12   A    
C102  H12   S    
C23   C28   A    
C100  H10   S    
C37   C59   A    
C158  C163  A    
C97   H115  S    
C38   C60   A    
Cr4   O4    S    
C156  C161  A    
C26   C30   A    
C87   H85   S    
Cr1   O14   S    
C6    C192  A    
C98   O60   S    
C95   O57   S    
C96   H112  S    
C6    C170  A    
C147  H76   S    
Cr12  O31   S    
Cr10  O11   S    
C88   O50   S    
Cr8   O45   S    
C105  O19   A    
C34   C43   A    
C81   C86   A    
C134  O24   A    
C181  O1    A    
C95   H108  S    
C20   O57   S    
C57   C101  A    
C181  O31   A    
C73   O8    A    
C8    C70   S    
C188  C192  A    
Cr7   O34   S    
Cr9   O46   S    
C13   H65   S    
C117  O63   S    
Cr10  O20   S    
C118  O64   S    
C35   C79   A    
C66   O56   A    
C82   C106  A    
C42   O43   A    
C49   C53   A    
C136  C160  S    
C184  O33   A    
C176  C180  A    
C67   O3    A    
C151  C164  A    
C55   C60   A    
C85   H46   S    
C172  C176  A    
C10   C72   S    
C99   H5    S    
C175  O51   S    
Cr7   O39   S    
C144  H72   S    
C148  C166  A    
C66   C169  S    
C115  O62   S    
C142  C159  A    
C91   H96   S    
Cr3   O7    S    
C39   C64   S    
C104  O65   S    
C50   C54   A    
C40   C63   S    
C70   O36   A    
Cr4   O35   S    
C151  H62   S    
C3    C7    A    
C112  C117  A    
C119  O65   S    
C18   O54   S    
C20   C25   A    
C93   O54   S    
Cr5   O15   S    
C87   O49   S    
C135  O25   A    
Cr5   O37   S    
C158  H82   S    
C184  O23   A    
C92   H97   S    
C47   H43   S    
C12   C17   A    
C74   C149  A    
C34   H35   S    
C135  C171  S    
C130  Cl5   S    
Cr6   O23   S    
C174  C178  A    
C170  C175  A    
C41   O47   A    
C191  H22   S    
C92   H99   S    
C103  H17   S    
C18   C22   A    
C98   H3    S    
C41   C62   S    
C130  C139  A    
C112  C183  S    
C102  O63   S    
C67   C170  S    
C52   H48   S    
C55   H52   S    
C131  Cl6   S    
Cr6   O16   S    
Cr3   O29   S    
C11   C73   S    
C155  H79   S    
Cr7   O17   S    
C2    C138  A    
C9    C14   A    
C135  O29   A    
Cr1   O40   S    
C111  C115  A    
C11   C16   A    
Cr2   O10   S    
C178  C187  A    
C37   H37   S    
Cr12  O5    S    
C116  C165  S    
C39   O44   A    
C86   H47   S    
Cr8   O9    S    
C71   O37   A    
C91   H94   S    
C125  C161  S    
C9    C71   S    
C21   C56   S    
C182  H63   S    
C46   C90   A    
C41   O42   A    
C176  O52   S    
Cr11  O26   S    
C24   H64   S    
C185  O34   A    
Cr8   O44   S    
C71   O6    A    
C8    C30   A    
C120  Cl12  S    
C40   O41   A    
C32   H59   S    
Cr8   O18   S    
C109  C110  A    
C150  C167  A    
C124  C129  A    
C153  C157  A    
C24   C68   A    
C77   C160  A    
Cr12  O27   S    
C110  H68   S    
C74   C78   A    
C173  O49   S    
C65   O68   A    
C5    C169  A    
C94   H103  S    
C93   H102  S    
C174  O50   S    
C136  O30   A    
Cr1   O1    S    
C116  O16   A    
C14   C18   A    
C13   C171  A    
C152  H73   S    
C144  C148  A    
C123  C128  A    
Cr9   O24   S    
C2    C46   A    
C35   C182  A    
C143  C147  A    
C54   H50   S    
C123  Cl4   S    
C7    Cl10  S    
C36   C58   A    
C10   C15   A    
C89   H91   S    
C100  H8    S    
C124  C159  S    
C133  O22   A    
C89   O51   S    
Cr10  O47   S    
C117  C121  A    
C44   H41   S    
C15   C19   A    
Cr10  O25   S    
C125  C130  A    
Cr11  O21   S    
C96   H111  S    
C40   O46   A    
C75   C80   A    
C187  C191  A    
C179  H28   S    
C97   H114  S    
C109  H69   S    
C154  H95   S    
Cr3   O11   S    
C177  H26   S    
C88   H89   S    
C28   H55   S    
C103  O64   S    
Cr7   O13   S    
C88   H87   S    
C68   C106  A    
C128  C132  A    
C14   H32   S    
C168  C173  A    
C92   H98   S    
C156  H80   S    
C42   O48   A    
Cr5   O41   S    
C133  C149  S    
Cr2   O32   S    
C183  O12   A    
C16   H34   S    
C137  H106  S    
C95   H107  S    
C44   C62   A    
C45   C63   A    
C128  C163  S    
C188  C189  S    
C122  C126  A    
C76   C171  A    
C1    O14   A    
C10   C32   A    
Cr5   O10   S    
C104  H20   S    
C113  C140  A    
C42   C61   S    
C38   C47   A    
C142  H70   S    
C153  H84   S    
C48   O58   S    
Cr3   O33   S    
C108  H66   S    
Cr6   O38   S    
C43   H39   S    
C103  H16   S    
C127  O21   A    
C141  H21   S    
C144  C162  A    
C29   H56   S    
C190  H23   S    
C114  C119  A    
C76   C81   A    
C134  C138  S    
Cr1   O36   S    
C129  Cl1   S    
C24   C160  A    
C94   H105  S    
Cr2   O6    S    
Cr4   O8    S    
C87   H83   S    
C49   O59   S    
C48   C61   A    
C126  C131  A    
C102  H11   S    
Cr11  O13   S    
C80   C90   A    
C100  H9    S    
C84   H45   S    
C9    C31   A    
C113  C118  A    
C78   C84   A    
C27   H54   S    
C115  C120  A    
C76   H51   S    
C87   H86   S    
C96   O58   S    
C126  C162  S    
Cr2   O28   S    
C120  C124  A    
C180  H30   S    
