data_mof_unit_38008.cif
_audit_creation_date              2012-12-11T14:30:09-0500
_audit_creation_method            fapswitch 2.2
_symmetry_space_group_name_H-M    P1
_symmetry_Int_Tables_number       1
_space_group_crystal_system       triclinic
_cell_length_a                    12.786866
_cell_length_b                    12.815407
_cell_length_c                    26.917276
_cell_angle_alpha                 90.043071
_cell_angle_beta                  90.049101
_cell_angle_gamma                 120.006997
_cell_volume                      3819.68077606

loop_
_atom_site_label
_atom_site_type_symbol
_atom_type_description
_atom_site_fract_x
_atom_site_fract_y
_atom_site_fract_z
_atom_type_partial_charge
C1    C     C_R   0.559949 0.455676 0.822330 0.548038
C2    C     C_R   0.901101 0.444708 0.678794 0.553455
C3    C     C_R   0.544120 0.104055 0.822216 0.546125
C4    C     C_R   0.555182 0.456151 0.678722 0.553207
C5    C     C_R   0.896377 0.440381 0.822203 0.550579
C6    C     C_R   0.543257 0.098342 0.679002 0.553514
C7    C     C_R   0.455921 0.559112 0.322396 0.559929
C8    C     C_R   0.444042 0.898048 0.177700 0.563368
C9    C     C_R   0.103580 0.544464 0.322473 0.556059
C10   C     C_R   0.454311 0.555768 0.177801 0.563154
C11   C     C_R   0.440612 0.895824 0.322687 0.535385
C12   C     C_R   0.101213 0.545607 0.177870 0.562126
C13   C     C_R   0.960775 0.497188 0.977103 0.022818
C14   C     C_R   0.505570 0.975502 0.531027 0.021197
C15   C     C_R   0.503232 0.460180 0.977359 0.025039
C16   C     C_R   0.025264 0.530723 0.530708 0.023298
C17   C     C_R   0.535421 0.037573 0.976803 0.021724
C18   C     C_R   0.470158 0.493998 0.530419 0.022038
C19   C     C_R   0.496315 0.963694 0.478710 0.031367
C20   C     C_R   0.973138 0.510938 0.029022 0.020338
C21   C     C_R   0.468049 0.504758 0.478280 0.020095
C22   C     C_R   0.537072 0.024697 0.028699 0.028947
C23   C     C_R   0.038576 0.533542 0.478548 0.022411
C24   C     C_R   0.489163 0.459385 0.029251 0.020196
C25   C     C_R   0.054417 0.714908 0.966549 0.029079
C26   C     C_R   0.719727 0.042311 0.525691 0.004664
C27   C     C_R   0.285149 0.337208 0.966299 0.030423
C28   C     C_R   0.956884 0.676688 0.524228 -0.000785
C29   C     C_R   0.658057 0.942416 0.965431 0.043288
C30   C     C_R   0.323758 0.279870 0.523402 -0.000062
C31   C     C_R   0.713496 0.043795 0.473065 0.009140
C32   C     C_R   0.051583 0.726025 0.018854 0.018971
C33   C     C_R   0.331377 0.288461 0.470630 0.015846
C34   C     C_R   0.670196 0.940438 0.017651 -0.024407
C35   C     C_R   0.959041 0.670476 0.471473 0.010747
C36   C     C_R   0.272656 0.325690 0.018535 0.021693
C37   C     C_R   0.011843 0.580619 0.893030 0.051216
C38   C     C_R   0.620135 0.024956 0.608253 0.053784
C39   C     C_R   0.419892 0.428488 0.893162 0.047253
C40   C     C_R   0.971937 0.593848 0.607388 0.055634
C41   C     C_R   0.569203 0.989113 0.892427 0.040725
C42   C     C_R   0.406274 0.377260 0.606917 0.054157
C43   C     C_R   0.585259 0.993566 0.395415 -0.027796
C44   C     C_R   0.060693 0.638537 0.101199 0.053118
C45   C     C_R   0.422548 0.416789 0.394700 0.058312
C46   C     C_R   0.576186 0.936051 0.100666 0.024873
C47   C     C_R   0.998193 0.581848 0.395108 0.053007
C48   C     C_R   0.360940 0.423843 0.100740 0.054491
C49   C     C_R   0.035911 0.534420 0.130143 -0.001116
C50   C     C_R   0.467582 0.935875 0.374943 -0.018384
C51   C     C_R   0.465340 0.501948 0.130003 -0.002738
C52   C     C_R   0.065376 0.531768 0.374833 -0.015235
C53   C     C_R   0.497314 0.961698 0.129730 0.000250
C54   C     C_R   0.469620 0.533722 0.374652 -0.013978
C55   C     C_R   0.523588 0.028057 0.632705 -0.027686
C56   C     C_R   0.934158 0.464365 0.874163 -0.030197
C57   C     C_R   0.504567 0.474495 0.631989 -0.027388
C58   C     C_R   0.530035 0.066206 0.874003 -0.033144
C59   C     C_R   0.970531 0.495372 0.632207 -0.027366
C60   C     C_R   0.536454 0.468493 0.874396 -0.028099
C61   C     C_R   0.013652 0.599323 0.945290 -0.034177
C62   C     C_R   0.616998 0.014408 0.555285 -0.063580
C63   C     C_R   0.401140 0.411078 0.945334 -0.038770
C64   C     C_R   0.983618 0.601483 0.554393 -0.062101
C65   C     C_R   0.585211 0.985775 0.944642 -0.034288
C66   C     C_R   0.399036 0.381477 0.553872 -0.062921
C67   C     C_R   0.600581 0.002815 0.448536 -0.058033
C68   C     C_R   0.028465 0.626417 0.050034 -0.048585
C69   C     C_R   0.407916 0.401466 0.447545 -0.046595
C70   C     C_R   0.597039 0.968194 0.049503 -0.075251
C71   C     C_R   0.996459 0.594972 0.448025 -0.050451
C72   C     C_R   0.373055 0.400996 0.049945 -0.049320
C73   C     C_R   0.878144 0.365526 0.906342 -0.134991
C74   C     C_R   0.411456 0.976026 0.609414 -0.090937
C75   C     C_R   0.635482 0.511019 0.906698 -0.134200
C76   C     C_R   0.024996 0.437327 0.609353 -0.091771
C77   C     C_R   0.484822 0.119806 0.906336 -0.116760
C78   C     C_R   0.562752 0.586983 0.609271 -0.091648
C79   C     C_R   0.367723 0.898471 0.405925 -0.100655
C80   C     C_R   0.958580 0.420503 0.110356 -0.099212
C81   C     C_R   0.522724 0.633755 0.406210 -0.119682
C82   C     C_R   0.459583 0.037786 0.109989 -0.097104
C83   C     C_R   0.110882 0.476934 0.406190 -0.109410
C84   C     C_R   0.579474 0.537510 0.110592 -0.097241
C85   C     C_R   0.895130 0.380406 0.957140 0.039385
C86   C     C_R   0.400777 0.944036 0.559462 0.038036
C87   C     C_R   0.620334 0.512208 0.957562 0.040318
C88   C     C_R   0.057767 0.458815 0.559481 0.040032
C89   C     C_R   0.481920 0.101368 0.957040 0.034724
C90   C     C_R   0.541459 0.598326 0.559389 0.038444
C91   C     C_R   0.380925 0.913062 0.456768 0.033043
C92   C     C_R   0.927865 0.408173 0.059977 0.044158
C93   C     C_R   0.527982 0.620443 0.456917 0.032725
C94   C     C_R   0.476574 0.067360 0.059655 0.036100
C95   C     C_R   0.093307 0.472629 0.456967 0.036317
C96   C     C_R   0.592123 0.518265 0.060357 0.038996
C97   C     C_R   0.857524 0.293766 0.039450 -0.072449
C98   C     C_R   0.277868 0.873271 0.485969 -0.074713
C99   C     C_R   0.707139 0.564028 0.040012 -0.067221
C100  C     C_R   0.133552 0.410325 0.486455 -0.076528
C101  C     C_R   0.426112 0.132252 0.039170 -0.077282
C102  C     C_R   0.589439 0.722858 0.486573 -0.069927
C103  C     C_R   0.287468 0.888198 0.536883 -0.072789
C104  C     C_R   0.842005 0.279854 0.988349 -0.069667
C105  C     C_R   0.596767 0.712087 0.537383 -0.069885
C106  C     C_R   0.429406 0.149561 0.988225 -0.067322
C107  C     C_R   0.115718 0.403065 0.537272 -0.077232
C108  C     C_R   0.721033 0.561369 0.988930 -0.068518
Cr1   Cr    Cr6+3 0.487630 0.241180 0.750000 1.124624
Cr2   Cr    Cr6+3 0.753550 0.512370 0.750000 1.119127
Cr3   Cr    Cr6+3 0.758820 0.246450 0.750000 1.121903
Cr4   Cr    Cr6+3 0.241180 0.487630 0.250000 1.119014
Cr5   Cr    Cr6+3 0.512370 0.753550 0.250000 1.089969
Cr6   Cr    Cr6+3 0.246450 0.758820 0.250000 1.105629
H1    H     H_    0.932086 0.340973 0.132868 0.137531
H2    H     H_    0.277073 0.853059 0.390500 0.171024
H3    H     H_    0.659076 0.590644 0.133251 0.148377
H4    H     H_    0.161907 0.437466 0.390999 0.167118
H5    H     H_    0.405928 0.063627 0.132565 0.148318
H6    H     H_    0.559773 0.723918 0.391258 0.124846
H7    H     H_    0.333506 0.965263 0.629670 0.201468
H8    H     H_    0.819002 0.275728 0.891738 0.145495
H9    H     H_    0.628101 0.664989 0.630037 0.199404
H10   H     H_    0.452543 0.177764 0.891936 0.155826
H11   H     H_    0.037733 0.372041 0.630017 0.198238
H12   H     H_    0.725577 0.542754 0.892122 0.149199
H13   H     H_    0.814974 0.215499 0.063000 0.091169
H14   H     H_    0.189886 0.833826 0.469063 0.162990
H15   H     H_    0.786191 0.604398 0.063561 0.167177
H16   H     H_    0.174870 0.363499 0.469765 0.151356
H17   H     H_    0.381896 0.167359 0.062490 0.166372
H18   H     H_    0.635626 0.811053 0.470009 0.153405
H19   H     H_    0.206286 0.858669 0.558392 0.166848
H20   H     H_    0.790640 0.190423 0.973027 0.121381
H21   H     H_    0.647626 0.792741 0.559278 0.165777
H22   H     H_    0.387533 0.197351 0.972892 0.134283
H23   H     H_    0.145142 0.351723 0.558989 0.166031
H24   H     H_    0.810599 0.601397 0.973637 0.127703
O1    O     O_R   0.460870 0.120930 0.805240 -0.499142
O2    O     O_R   0.660060 0.539130 0.694760 -0.462909
O3    O     O_R   0.879070 0.339940 0.805240 -0.504599
O4    O     O_R   0.460870 0.120930 0.694760 -0.464223
O5    O     O_R   0.660060 0.539130 0.805240 -0.505552
O6    O     O_R   0.879070 0.339940 0.694760 -0.463009
O7    O     O_R   0.120930 0.460870 0.305240 -0.489292
O8    O     O_R   0.539130 0.660060 0.194760 -0.485503
O9    O     O_R   0.339940 0.879070 0.305240 -0.494651
O10   O     O_R   0.120930 0.460870 0.194760 -0.485298
O11   O     O_R   0.539130 0.660060 0.305240 -0.517716
O12   O     O_R   0.339940 0.879070 0.194760 -0.488147
O13   O     O_R   0.498910 0.350470 0.801870 -0.466326
O14   O     O_R   0.851560 0.501090 0.698130 -0.451404
O15   O     O_R   0.649530 0.148440 0.801870 -0.468175
O16   O     O_R   0.498910 0.350470 0.698130 -0.452105
O17   O     O_R   0.851560 0.501090 0.801870 -0.466550
O18   O     O_R   0.649530 0.148440 0.698130 -0.451556
O19   O     O_R   0.350470 0.498910 0.301870 -0.456274
O20   O     O_R   0.501090 0.851560 0.198130 -0.464898
O21   O     O_R   0.148440 0.649530 0.301870 -0.459449
O22   O     O_R   0.350470 0.498910 0.198130 -0.466092
O23   O     O_R   0.501090 0.851560 0.301870 -0.500701
O24   O     O_R   0.148440 0.649530 0.198130 -0.468082
O25   O     O_3   0.666667 0.333333 0.750000 -0.302047
O26   O     O_3   0.333333 0.666667 0.250000 -0.293362
C109  C     C_2   0.135097 0.761297 0.121263 0.630082
O27   O     O_2   0.232627 0.828303 0.102254 -0.509522
O28   O     O_R   0.090177 0.802659 0.159204 -0.651468
H25   H     H_    0.146315 0.890768 0.167398 0.345564
C110  C     C_2   0.687826 0.053580 0.360231 0.619953
O29   O     O_2   0.727385 0.159579 0.350076 -0.400728
O30   O     O_R   0.739126 0.991219 0.337949 -0.631198
H26   H     H_    0.701702 0.905052 0.349937 0.319529
C111  C     C_2   0.238304 0.381878 0.119590 0.626189
O31   O     O_2   0.177349 0.419398 0.100220 -0.513187
O32   O     O_R   0.189704 0.293153 0.156440 -0.647746
H27   H     H_    0.100998 0.263183 0.162698 0.346049
C112  C     C_2   0.912521 0.595942 0.362197 0.611801
O33   O     O_2   0.805709 0.547139 0.373562 -0.465908
O34   O     O_R   0.952482 0.664056 0.318678 -0.657999
H28   H     H_    0.884847 0.666372 0.299949 0.344234
C113  C     C_2   0.621058 0.859067 0.120583 0.618267
O35   O     O_2   0.582782 0.758771 0.103037 -0.497980
O36   O     O_R   0.711388 0.903381 0.156995 -0.654588
H29   H     H_    0.740893 0.845111 0.164912 0.356362
C114  C     C_2   0.413895 0.318934 0.361980 0.618185
O37   O     O_2   0.457106 0.257683 0.375967 -0.460075
O38   O     O_R   0.358526 0.297173 0.315393 -0.661782
H30   H     H_    0.359150 0.228283 0.297113 0.344528
C115  C     C_2   0.702055 0.000429 0.638991 0.599095
O39   O     O_2   0.679034 0.896419 0.644336 -0.558344
O40   O     O_R   0.803309 0.093932 0.662328 -0.617592
H31   H     H_    0.850770 0.064173 0.682088 0.341972
C116  C     C_2   0.103722 0.674558 0.859725 0.597210
O41   O     O_2   0.076242 0.692014 0.818326 -0.483301
O42   O     O_R   0.223428 0.742165 0.876002 -0.628011
H32   H     H_    0.278112 0.803327 0.850492 0.357143
C117  C     C_2   0.299902 0.293892 0.637256 0.600046
O43   O     O_2   0.217080 0.314622 0.642282 -0.559745
O44   O     O_R   0.294332 0.194005 0.660698 -0.617764
H33   H     H_    0.216968 0.145424 0.680228 0.341658
C118  C     C_2   0.571622 0.898698 0.858410 0.591727
O45   O     O_2   0.627554 0.929683 0.819313 -0.479377
O46   O     O_R   0.508308 0.776802 0.871547 -0.622797
H34   H     H_    0.516394 0.723268 0.845901 0.354938
C119  C     C_2   0.996259 0.700420 0.637879 0.599289
O47   O     O_2   0.100210 0.782737 0.642486 -0.559994
O48   O     O_R   0.902736 0.706966 0.661768 -0.617745
H35   H     H_    0.932407 0.784470 0.681267 0.340846
C120  C     C_2   0.325583 0.425973 0.859831 0.593398
O49   O     O_2   0.304336 0.376302 0.819321 -0.479701
O50   O     O_R   0.261615 0.482491 0.875172 -0.626152
H36   H     H_    0.199701 0.475206 0.849763 0.354093
C121  C     C_2   0.048741 0.831839 0.040188 0.623742
O51   O     O_2   0.125045 0.934417 0.028844 -0.420249
O52   O     O_R   0.960049 0.812470 0.075093 -0.674755
H37   H     H_    0.971501 0.889497 0.090371 0.380113
C122  C     C_2   0.825792 0.078894 0.445172 0.624949
O53   O     O_2   0.896337 0.185156 0.436619 -0.448719
O54   O     O_R   0.852168 0.990208 0.430447 -0.645093
H38   H     H_    0.930717 0.024805 0.411490 0.362247
C123  C     C_2   0.161155 0.222945 0.039712 0.634611
O55   O     O_2   0.061463 0.205175 0.027521 -0.433106
O56   O     O_R   0.171638 0.149748 0.075426 -0.672603
H39   H     H_    0.091381 0.091494 0.091045 0.371361
C124  C     C_2   0.936603 0.755129 0.441665 0.638676
O57   O     O_2   0.841516 0.755198 0.446203 -0.434494
O58   O     O_R   0.024653 0.834449 0.408525 -0.675391
H40   H     H_    0.997778 0.884786 0.389238 0.351579
C125  C     C_2   0.767489 0.919021 0.037322 0.643703
O59   O     O_2   0.770768 0.829341 0.024618 -0.390579
O60   O     O_R   0.854747 0.998578 0.070635 -0.662457
H41   H     H_    0.842064 0.066895 0.081178 0.310529
C126  C     C_2   0.246745 0.182139 0.440210 0.629330
O61   O     O_2   0.240772 0.084841 0.446524 -0.442614
O62   O     O_R   0.174845 0.194229 0.404113 -0.687602
H42   H     H_    0.128681 0.118835 0.383230 0.345886
C127  C     C_2   0.835444 0.069686 0.548646 0.618839
O63   O     O_2   0.870649 0.997355 0.544926 -0.426865
O64   O     O_R   0.903923 0.177455 0.574099 -0.664590
H43   H     H_    0.976145 0.180566 0.591113 0.367938
C128  C     C_2   0.076657 0.818540 0.934582 0.639503
O65   O     O_2   0.175836 0.910008 0.934530 -0.415128
O66   O     O_R   0.984454 0.809930 0.903912 -0.702763
H44   H     H_    0.010381 0.885758 0.883745 0.377363
C129  C     C_2   0.232537 0.164887 0.545545 0.628333
O67   O     O_2   0.125430 0.130918 0.540050 -0.439630
O68   O     O_R   0.268675 0.095299 0.572087 -0.659559
H45   H     H_    0.198050 0.024441 0.588909 0.368475
C130  C     C_2   0.736912 0.917290 0.932995 0.633869
O69   O     O_2   0.821340 0.999942 0.911079 -0.512270
O70   O     O_R   0.712224 0.798811 0.926772 -0.614174
H46   H     H_    0.768935 0.792417 0.902327 0.366186
C131  C     C_2   0.929801 0.765403 0.546714 0.628696
O71   O     O_2   0.000739 0.872875 0.541518 -0.433646
O72   O     O_R   0.823377 0.726449 0.573204 -0.659379
H47   H     H_    0.820639 0.795768 0.590034 0.368148
C132  C     C_2   0.181377 0.255631 0.934264 0.638973
O73   O     O_2   0.184313 0.175364 0.910812 -0.477049
O74   O     O_R   0.081935 0.272674 0.930351 -0.614772
H48   H     H_    0.019152 0.214738 0.906046 0.372686

loop_
_geom_bond_atom_site_label_1
_geom_bond_atom_site_label_2
_ccdc_geom_bond_type
C44   C49   A    
C4    O16   A    
O46   H34   S    
C80   C92   A    
C109  O27   D    
C82   C94   A    
C30   C129  S    
C18   C21   A    
C2    O6    A    
C110  O29   D    
C5    C56   S    
O64   H43   S    
O52   H37   S    
C3    O15   A    
C6    C55   S    
C97   H13   S    
C8    O20   A    
C50   C79   A    
C12   C49   S    
C43   C110  S    
O70   H46   S    
C121  O51   D    
C78   C90   A    
C31   C67   A    
C99   C108  A    
C20   C92   A    
C81   H6    S    
C77   C89   A    
C130  O69   D    
C123  O55   D    
C104  H20   S    
C83   H4    S    
Cr1   O13   S    
C102  H18   S    
C41   C58   A    
C132  O73   D    
Cr2   O14   S    
C24   C96   A    
C131  O71   D    
C100  H16   S    
C98   H14   S    
C114  O38   S    
C9    O21   A    
Cr3   O15   S    
C98   C103  A    
C14   C62   A    
C96   C99   A    
O72   H47   S    
C11   O23   A    
Cr4   O7    S    
C39   C120  S    
C102  C105  A    
C115  O40   S    
C128  O65   D    
C84   C96   A    
C117  O44   S    
Cr2   O17   S    
C58   C77   A    
C124  O58   S    
C7    O11   A    
C37   C56   A    
Cr6   O26   S    
C48   C51   A    
C87   C108  A    
O56   H39   S    
C94   C101  A    
Cr4   O10   S    
C84   H3    S    
C116  O42   S    
C89   C106  A    
O62   H42   S    
C19   C67   A    
Cr1   O4    S    
C119  O47   D    
Cr5   O20   S    
C6    O4    A    
C126  O61   D    
C34   C70   A    
C79   C91   A    
C13   C20   A    
C33   C69   A    
C32   C68   A    
Cr2   O2    S    
C25   C32   A    
C106  H22   S    
C35   C71   A    
C26   C31   A    
C109  O28   S    
C40   C59   A    
C111  O31   D    
C129  O67   D    
C4    C57   S    
C76   H11   S    
C55   C74   A    
C117  O43   D    
C9    C52   S    
C82   H5    S    
C48   C72   A    
Cr4   O26   S    
C86   C103  A    
C14   C19   A    
C42   C57   A    
C18   C66   A    
C92   C97   A    
C124  O57   D    
C111  O32   S    
C24   C72   A    
C2    O14   A    
C27   C132  S    
C16   C88   A    
C130  O70   S    
C35   C124  S    
Cr4   O19   S    
C38   C55   A    
C45   C69   A    
O48   H35   S    
C18   C90   A    
C23   C71   A    
Cr3   O25   S    
C28   C131  S    
C28   C35   A    
Cr1   O25   S    
C1    C60   S    
C47   C112  S    
O28   H25   S    
C131  O72   S    
C88   C107  A    
C99   H15   S    
C95   C100  A    
C41   C65   A    
O42   H32   S    
C112  O34   S    
C122  O53   D    
C113  O35   D    
C38   C62   A    
Cr5   O23   S    
C29   C34   A    
C11   O9    A    
C22   C94   A    
O40   H31   S    
C21   C69   A    
C53   C82   A    
C132  O74   S    
C37   C116  S    
Cr5   O8    S    
C107  H23   S    
C52   C83   A    
C8    O12   A    
O36   H29   S    
O50   H36   S    
C125  O59   D    
C1    O5    A    
Cr5   O11   S    
C4    O2    A    
C81   C93   A    
C5    O3    A    
O58   H40   S    
C118  O46   S    
C80   H1    S    
Cr2   O25   S    
C38   C115  S    
C83   C95   A    
C74   H7    S    
C120  O49   D    
C17   C89   A    
C115  O39   D    
C25   C61   A    
C74   C86   A    
C78   H9    S    
C126  O62   S    
O30   H26   S    
C14   C86   A    
C30   C66   A    
C85   C104  A    
C27   C63   A    
Cr3   O6    S    
C10   O8    A    
C29   C65   A    
C32   C121  S    
C101  H17   S    
C75   C87   A    
C15   C24   A    
C59   C76   A    
C123  O56   S    
C45   C54   A    
C73   H8    S    
C16   C23   A    
C11   C50   S    
C129  O68   S    
C44   C68   A    
C34   C125  S    
C3    O1    A    
C47   C71   A    
C41   C118  S    
O74   H48   S    
C10   O22   A    
O54   H38   S    
C33   C126  S    
C46   C113  S    
C15   C87   A    
C48   C111  S    
C110  O30   S    
C101  C106  A    
C76   C88   A    
C40   C119  S    
C100  C107  A    
C15   C63   A    
C56   C73   A    
Cr4   O22   S    
C30   C33   A    
C2    C59   S    
C93   C102  A    
C57   C78   A    
C20   C68   A    
C42   C117  S    
Cr1   O16   S    
C90   C105  A    
C8    C53   S    
Cr6   O9    S    
C37   C61   A    
O68   H45   S    
C43   C50   A    
C28   C64   A    
C47   C52   A    
C7    O19   A    
C25   C128  S    
C27   C36   A    
C122  O54   S    
C39   C63   A    
C60   C75   A    
C17   C65   A    
C17   C22   A    
C40   C64   A    
C49   C80   A    
C105  H21   S    
Cr1   O1    S    
C75   H12   S    
C10   C51   S    
C12   O10   A    
C127  O64   S    
C103  H19   S    
C121  O52   S    
C73   C85   A    
C125  O60   S    
O32   H27   S    
C5    O17   A    
C116  O41   D    
Cr5   O26   S    
C108  H24   S    
C26   C127  S    
C45   C114  S    
C114  O37   D    
C21   C93   A    
C39   C60   A    
C51   C84   A    
C46   C53   A    
C9    O7    A    
C120  O50   S    
C23   C95   A    
C1    O13   A    
C77   H10   S    
C44   C109  S    
C91   C98   A    
C26   C62   A    
Cr2   O5    S    
C127  O63   D    
Cr6   O21   S    
C46   C70   A    
C97   C104  A    
Cr6   O24   S    
Cr3   O3    S    
C12   O24   A    
O34   H28   S    
C3    C58   S    
C36   C72   A    
O44   H33   S    
Cr3   O18   S    
C13   C61   A    
C118  O45   D    
C43   C67   A    
C112  O33   D    
C13   C85   A    
O60   H41   S    
C42   C66   A    
Cr6   O12   S    
C19   C91   A    
O38   H30   S    
C16   C64   A    
C7    C54   S    
C128  O66   S    
C79   H2    S    
C119  O48   S    
C36   C123  S    
C22   C70   A    
C54   C81   A    
C6    O18   A    
O66   H44   S    
C113  O36   S    
C29   C130  S    
C31   C122  S    
