data_mof_unit_42912.cif
_audit_creation_date              2012-12-11T14:21:05-0500
_audit_creation_method            fapswitch 2.2
_symmetry_space_group_name_H-M    P1
_symmetry_Int_Tables_number       1
_space_group_crystal_system       triclinic
_cell_length_a                    11.603367
_cell_length_b                    11.526998
_cell_length_c                    19.553565
_cell_angle_alpha                 90.213066
_cell_angle_beta                  90.669809
_cell_angle_gamma                 59.6273
_cell_volume                      2256.22518341

loop_
_atom_site_label
_atom_site_type_symbol
_atom_type_description
_atom_site_fract_x
_atom_site_fract_y
_atom_site_fract_z
_atom_type_partial_charge
C1    C     C_R   0.640890 0.117138 0.599231 0.552558
C2    C     C_1   0.652728 0.682722 0.664199 0.002686
C3    C     C_1   0.125520 0.199285 0.859164 0.006649
C4    C     C_1   0.171750 0.170147 0.727680 -0.028149
C5    C     C_1   0.149403 0.182648 0.798896 -0.026833
C6    C     C_1   0.196110 0.160437 0.667443 0.003480
C7    C     C_1   0.677327 0.192608 0.860647 0.003495
C8    C     C_1   0.659243 0.167089 0.728881 -0.028389
C9    C     C_1   0.665084 0.181878 0.800150 -0.028656
C10   C     C_1   0.654267 0.148886 0.668552 0.004916
C11   C     C_R   0.665587 0.677894 0.189304 0.007579
C12   C     C_R   0.614163 0.743316 0.597929 0.550150
C13   C     C_R   0.535928 0.755450 0.213379 0.023859
C14   C     C_R   0.514550 0.751525 0.283505 0.028811
C15   C     C_R   0.756598 0.637205 0.303892 -0.185883
C16   C     C_R   0.775619 0.620926 0.234326 -0.159113
C17   C     C_R   0.426835 0.820590 0.167268 -0.066384
C18   C     C_R   0.299772 0.855486 0.187628 -0.071834
C19   C     C_R   0.278879 0.835199 0.255005 -0.068554
C20   C     C_R   0.382401 0.788927 0.302949 -0.036928
C21   C     C_R   0.627741 0.703896 0.329320 0.002480
C22   C     C_R   0.157819 0.189920 0.188487 0.011915
C23   C     C_R   0.241742 0.144975 0.598326 0.557393
C24   C     C_R   0.250796 0.228249 0.208164 -0.029558
C25   C     C_R   0.283184 0.223551 0.278199 -0.032701
C26   C     C_R   0.153404 0.117022 0.303411 -0.140204
C27   C     C_R   0.103026 0.144907 0.237628 -0.160361
C28   C     C_R   0.294264 0.291437 0.161633 -0.102967
C29   C     C_R   0.325062 0.386475 0.185284 0.274289
C30   C     C_R   0.331821 0.402648 0.255508 0.239075
C31   C     C_R   0.327275 0.311773 0.300635 -0.124206
C32   C     C_R   0.250533 0.147189 0.323484 0.020572
C33   C     C_R   0.737232 0.206308 0.207184 -0.018480
C34   C     C_R   0.643064 0.109574 0.400725 0.524689
C35   C     C_R   0.811944 0.071166 0.233351 0.035638
C36   C     C_R   0.760373 0.038450 0.289346 0.026275
C37   C     C_R   0.625081 0.277385 0.315659 -0.143061
C38   C     C_R   0.649894 0.309039 0.250665 -0.132082
C39   C     C_R   0.932693 0.965777 0.204719 -0.100733
C40   C     C_R   0.982908 0.831996 0.222116 -0.116693
C41   C     C_R   0.916002 0.799251 0.268787 -0.100620
C42   C     C_R   0.802589 0.900969 0.300104 -0.083370
C43   C     C_R   0.671960 0.143309 0.333524 -0.013516
C44   C     C_R   0.080881 0.231456 0.928417 0.538395
C45   C     C_R   0.610827 0.745002 0.400505 0.530131
C46   C     C_R   0.708467 0.546397 0.922985 0.546938
C47   C     C_R   0.707724 0.206915 0.930125 0.550588
C48   C     C_R   0.086402 0.233823 0.123902 0.520077
C49   C     C_R   0.683335 0.614007 0.123965 0.529527
C50   C     C_R   0.745787 0.235278 0.134437 0.547291
C51   C     C_R   0.299765 0.117612 0.393930 0.536875
C52   C     C_1   0.697630 0.580774 0.852041 0.002056
C53   C     C_1   0.673665 0.643885 0.722510 -0.027236
C54   C     C_1   0.688655 0.608110 0.792168 -0.028458
Cr1   Cr    Cr6+3 0.404720 0.198220 0.499960 1.033482
Cr2   Cr    Cr6+3 0.698290 0.897110 0.500380 1.032050
Cr3   Cr    Cr6+3 0.396970 0.904720 0.499610 1.030514
Cr4   Cr    Cr6+3 0.926180 0.151990 0.028120 1.015097
Cr5   Cr    Cr6+3 0.921330 0.451820 0.027470 1.045722
Cr6   Cr    Cr6+3 0.626260 0.446870 0.028710 1.100443
H1    H     H_    0.842441 0.596483 0.338132 0.133488
H2    H     H_    0.342835 0.326218 0.353242 0.199585
H3    H     H_    0.564962 0.357063 0.351118 0.182388
H4    H     H_    0.992504 0.983520 0.169322 0.142062
H5    H     H_    0.601934 0.413096 0.234399 0.198798
H6    H     H_    0.073304 0.753733 0.198823 0.188086
H7    H     H_    0.954604 0.694999 0.281790 0.137258
H8    H     H_    0.749103 0.870774 0.332838 0.161748
H9    H     H_    0.441599 0.834709 0.114002 0.125643
H10   H     H_    0.876524 0.557738 0.216012 0.155618
H11   H     H_    0.218528 0.895937 0.150792 0.119723
H12   H     H_    0.180892 0.859369 0.271478 0.134138
H13   H     H_    0.354747 0.772911 0.352696 0.189978
H14   H     H_    0.112381 0.076323 0.339276 0.137828
H15   H     H_    0.287556 0.281180 0.106911 0.163677
H16   H     H_    0.018000 0.134935 0.225688 0.111848
O1    O     O_R   0.267740 0.231960 0.575440 -0.497358
O2    O     O_R   0.685970 0.784660 0.430010 -0.516711
O3    O     O_R   0.502530 0.767000 0.423990 -0.537645
O4    O     O_R   0.288330 0.026350 0.429250 -0.505927
O5    O     O_3   0.499990 0.000020 0.499980 -0.276847
O6    O     O_R   0.821500 0.119340 0.952830 -0.496000
O7    O     O_R   0.037130 0.162530 0.957360 -0.496335
O8    O     O_R   0.056440 0.344740 0.951340 -0.502744
O9    O     O_R   0.797900 0.560360 0.957470 -0.485665
O10   O     O_R   0.596130 0.579390 0.952730 -0.494009
O11   O     O_R   0.639060 0.321160 0.958670 -0.492903
O12   O     O_R   0.527280 0.186640 0.570530 -0.490488
O13   O     O_R   0.821240 0.124200 0.104370 -0.523161
O14   O     O_R   0.036890 0.167040 0.097840 -0.537401
O15   O     O_R   0.056180 0.349610 0.102880 -0.507851
O16   O     O_R   0.797660 0.564870 0.097950 -0.502854
O17   O     O_R   0.595880 0.584250 0.104270 -0.480963
O18   O     O_R   0.638830 0.325670 0.099150 -0.427279
O19   O     O_3   0.824590 0.350230 0.028100 -0.308624
O20   O     O_R   0.728090 0.003450 0.576380 -0.497832
O21   O     O_R   0.682970 0.789190 0.570490 -0.488056
O22   O     O_R   0.499290 0.771880 0.575530 -0.498380
O23   O     O_R   0.285330 0.030870 0.569730 -0.485899
O24   O     O_R   0.270980 0.227080 0.423890 -0.521504
O25   O     O_R   0.530280 0.182120 0.430050 -0.527801
O26   O     O_R   0.731330 0.998570 0.424830 -0.517355
Cl1   Cl    Cl    0.336864 0.495209 0.126631 -0.558940
Cl2   Cl    Cl    0.330838 0.543817 0.289190 -0.686063

loop_
_geom_bond_atom_site_label_1
_geom_bond_atom_site_label_2
_ccdc_geom_bond_type
C25   C31   A    
C22   C48   S    
C26   C32   A    
C41   C42   A    
Cr3   O3    S    
C23   O23   A    
C35   C36   A    
Cr3   O4    S    
C44   O7    A    
C2    C12   S    
Cr2   O5    S    
C41   H7    S    
C53   C54   S    
C17   H9    S    
C39   H4    S    
C26   C27   A    
C29   C30   A    
C14   C21   A    
C28   C29   A    
Cr4   O6    S    
C30   C31   A    
Cr1   O1    S    
Cr3   O22   S    
C15   C16   A    
Cr3   O23   S    
C46   C52   S    
C18   H11   S    
Cr2   O2    S    
C29   Cl1   S    
C7    C9    T    
C18   C19   A    
C47   O6    A    
Cr1   O12   S    
C51   O4    A    
C33   C35   A    
C36   C42   A    
C19   C20   A    
C8    C9    S    
C48   O15   A    
Cr1   O24   S    
C45   O2    A    
Cr1   O5    S    
C12   O22   A    
C46   O9    A    
Cr6   O17   S    
C25   C32   A    
C40   H6    S    
C13   C14   A    
C42   H8    S    
C31   H2    S    
C19   H12   S    
Cr5   O19   S    
Cr2   O21   S    
C37   H3    S    
Cr6   O11   S    
C52   C54   T    
C21   C45   S    
C3    C44   S    
C34   O25   A    
C34   C43   S    
C14   C20   A    
C16   H10   S    
Cr5   O8    S    
C4    C6    T    
C39   C40   A    
Cr6   O10   S    
C50   O18   A    
Cr5   O15   S    
C3    C5    T    
C33   C50   S    
C23   O1    A    
C47   O11   A    
C37   C43   A    
C35   C39   A    
Cr4   O19   S    
Cr5   O9    S    
C32   C51   S    
C37   C38   A    
C11   C49   S    
C11   C16   A    
C50   O13   A    
C38   H5    S    
C17   C18   A    
C15   H1    S    
C45   O3    A    
C34   O26   A    
C24   C25   A    
Cr4   O14   S    
C12   O21   A    
C40   C41   A    
C22   C27   A    
C22   C24   A    
C49   O16   A    
C27   H16   S    
C51   O24   A    
Cr2   O20   S    
C1    C10   S    
C24   C28   A    
C4    C5    S    
C44   O8    A    
C2    C53   T    
Cr1   O25   S    
C33   C38   A    
C13   C17   A    
Cr2   O26   S    
Cr4   O7    S    
C11   C13   A    
C1    O12   A    
C1    O20   A    
C6    C23   S    
C26   H14   S    
C20   H13   S    
Cr3   O5    S    
Cr5   O16   S    
Cr4   O13   S    
Cr6   O19   S    
C15   C21   A    
C8    C10   T    
C30   Cl2   S    
C36   C43   A    
C48   O14   A    
C49   O17   A    
C28   H15   S    
C7    C47   S    
C46   O10   A    
Cr6   O18   S    
