data_mof_unit_17660.cif
_audit_creation_date              2013-03-05T15:46:11-0500
_audit_creation_method            fapswitch 2.2
_symmetry_space_group_name_H-M    P1
_symmetry_Int_Tables_number       1
_space_group_crystal_system       triclinic
_cell_length_a                    10.534005
_cell_length_b                    10.665902
_cell_length_c                    17.195034
_cell_angle_alpha                 80.42263
_cell_angle_beta                  89.483822
_cell_angle_gamma                 119.07868
_cell_volume                      1655.81530184

loop_
_atom_site_label
_atom_site_type_symbol
_atom_site_description
_atom_site_fract_x
_atom_site_fract_y
_atom_site_fract_z
_atom_type_partial_charge
O1    O     O_R   0.521780 0.757110 0.108900 -0.526695
O2    O     O_R   0.275160 0.783810 0.101120 -0.485036
C1    C     C_R   0.278420 0.888700 0.132637 0.558175
O3    O     O_R   0.237900 0.972600 0.090980 -0.505269
O4    O     O_R   0.511190 0.220540 0.061620 -0.531749
C2    C     C_R   0.636937 0.278236 0.087355 0.564545
O5    O     O_R   0.736920 0.257720 0.063840 -0.462056
O6    O     O_R   0.710450 0.984050 0.081720 -0.520188
C3    C     C_R   0.640418 0.858007 0.125335 0.535608
O7    O     O_R   0.524090 0.765520 0.933110 -0.505509
O8    O     O_R   0.277300 0.791600 0.938160 -0.431737
C4    C     C_R   0.214369 0.856976 0.903202 0.578982
O9    O     O_R   0.240210 0.981010 0.915190 -0.540297
O10   O     O_R   0.513330 0.228330 0.898660 -0.509931
C5    C     C_R   0.637426 0.284534 0.860791 0.552664
O11   O     O_R   0.739230 0.266130 0.888050 -0.489123
O12   O     O_R   0.712580 0.991850 0.918770 -0.508755
C6    C     C_R   0.647350 0.867230 0.899161 0.543612
Cr1   Cr    Cr6+3 0.402240 0.783890 0.019450 1.058766
Cr2   Cr    Cr6+3 0.382360 0.097900 0.991800 1.006789
Cr3   Cr    Cr6+3 0.715380 0.118170 0.988700 1.038246
O13   O     O_3   0.499990 0.999980 0.999980 -0.280512
C7    C     C_R   0.536244 0.319231 0.203674 -0.196495
H1    H     H_    0.439208 0.299119 0.174665 0.150350
C8    C     C_R   0.538474 0.329607 0.283671 0.206337
C9    C     C_R   0.658876 0.338417 0.322517 0.011119
C10   C     C_R   0.776313 0.338040 0.281253 0.221053
C11   C     C_R   0.778839 0.342004 0.200773 0.255614
C12   C     C_R   0.655651 0.327357 0.162135 -0.050694
C13   C     C_1   0.669144 0.846460 0.205201 -0.075252
C14   C     C_1   0.681234 0.837032 0.274407 -0.061057
C15   C     C_1   0.228189 0.855268 0.215383 -0.056398
C16   C     C_1   0.180151 0.836098 0.282981 -0.063209
C17   C     C_1   0.644230 0.323580 0.778079 -0.045771
C18   C     C_1   0.651209 0.345586 0.707669 -0.049292
C19   C     C_R   0.628607 0.715726 0.803747 -0.153358
H2    H     H_    0.579934 0.618158 0.849920 0.135477
C20   C     C_R   0.616530 0.700912 0.725800 -0.189799
H3    H     H_    0.566999 0.591498 0.713228 0.136733
C21   C     C_R   0.669389 0.824874 0.664865 0.022954
C22   C     C_R   0.744132 0.966434 0.682384 0.219253
C23   C     C_R   0.754983 0.979900 0.761620 -0.105828
H4    H     H_    0.802143 0.087970 0.775834 0.163349
C24   C     C_R   0.690241 0.854687 0.822080 -0.013827
C25   C     C_R   0.107195 0.906449 0.787072 -0.159682
H5    H     H_    0.095943 0.988377 0.811495 0.157366
C26   C     C_R   0.105113 0.913654 0.706766 0.239828
C27   C     C_R   0.114827 0.805813 0.672899 -0.020381
C28   C     C_R   0.127012 0.693685 0.721474 -0.178003
H6    H     H_    0.122092 0.605486 0.695986 0.143432
C29   C     C_R   0.146247 0.696775 0.802281 0.263615
C30   C     C_R   0.143568 0.810465 0.833005 -0.000697
O14   O     O_R   0.083770 0.911170 0.376030 -0.482756
O15   O     O_R   0.808770 0.880340 0.383890 -0.483459
C31   C     C_R   0.687296 0.808896 0.356779 0.560170
O16   O     O_R   0.584340 0.689460 0.394160 -0.517018
O17   O     O_R   0.614320 0.443940 0.423590 -0.468826
C32   C     C_R   0.685184 0.387577 0.397743 0.602054
O18   O     O_R   0.805020 0.410040 0.421340 -0.454860
O19   O     O_R   0.049240 0.685450 0.403290 -0.531079
C33   C     C_R   0.108714 0.812796 0.359890 0.541556
O20   O     O_R   0.077520 0.903010 0.551800 -0.453835
O21   O     O_R   0.802980 0.872780 0.546830 -0.437857
C34   C     C_R   0.677602 0.800186 0.585495 0.589944
O22   O     O_R   0.578090 0.681300 0.569920 -0.539059
O23   O     O_R   0.608530 0.436370 0.586530 -0.532032
C35   C     C_R   0.678623 0.382565 0.624649 0.562818
O24   O     O_R   0.798770 0.401880 0.597100 -0.433256
O25   O     O_R   0.043450 0.677890 0.566230 -0.515571
C36   C     C_R   0.085836 0.797676 0.590758 0.559105
Cr4   Cr    Cr6+3 0.936650 0.882420 0.465510 1.119270
Cr5   Cr    Cr6+3 0.605770 0.565620 0.493360 1.028409
Cr6   Cr    Cr6+3 0.921340 0.550490 0.496380 1.086126
O26   O     O_3   0.821250 0.666180 0.485090 -0.293694
O27   O     O_3   0.084045 0.022035 0.662874 -0.516720
C37   C     C_3   0.219110 0.153680 0.647463 -0.051656
H7    H     H_    0.304351 0.140496 0.616880 0.124991
H8    H     H_    0.256739 0.195200 0.702880 0.094074
H9    H     H_    0.204626 0.237719 0.607429 0.173364
O28   O     O_3   0.159373 0.589071 0.854110 -0.528113
C38   C     C_3   0.229487 0.527486 0.816778 -0.097634
H10   H     H_    0.272138 0.476224 0.862894 0.139666
H11   H     H_    0.324173 0.611405 0.773992 0.118326
H12   H     H_    0.150055 0.439759 0.787414 0.129338
O29   O     O_3   0.419507 0.317060 0.327229 -0.532133
C39   C     C_3   0.371572 0.411267 0.287853 -0.074387
H13   H     H_    0.463869 0.519913 0.258814 0.131780
H14   H     H_    0.309862 0.430945 0.332394 0.139936
H15   H     H_    0.295607 0.358915 0.244148 0.103907
O30   O     O_3   0.887682 0.328556 0.320230 -0.534548
C40   C     C_3   0.020198 0.463659 0.301567 -0.028972
H16   H     H_    0.003473 0.558388 0.280632 0.122369
H17   H     H_    0.093548 0.461257 0.256063 0.122668
H18   H     H_    0.078555 0.481755 0.355485 0.149475
O31   O     O_3   0.903903 0.361830 0.159549 -0.541093
C41   C     C_3   0.915534 0.233100 0.176771 -0.023601
H19   H     H_    0.810606 0.133128 0.201264 0.126395
H20   H     H_    0.997979 0.244712 0.218703 0.127691
H21   H     H_    0.954179 0.216390 0.121211 0.147682
N1    N     N_R   0.805675 0.096021 0.621263 0.092177
O32   O     O_R   0.921444 0.214203 0.631711 -0.339773
O33   O     O_R   0.740479 0.100369 0.557754 -0.328624

loop_
_geom_bond_atom_site_label_1
_geom_bond_atom_site_label_2
_geom_bond_distance
_ccdc_geom_bond_type
C31   O16   1.258658 A    
O11   Cr3   2.060775 S    
Cr6   O26   1.964820 S    
O31   C41   1.420132 S    
C37   H9    1.109101 S    
C38   H10   1.109286 S    
O30   C40   1.418049 S    
O4    Cr2   1.954611 S    
C25   H5    1.084376 S    
O8    Cr1   1.947518 S    
C9    C10   1.422597 A    
C11   O31   1.394743 S    
C7    C12   1.398959 A    
C19   H2    1.084094 S    
C37   H8    1.112585 S    
O29   C39   1.412786 S    
C20   H3    1.083969 S    
C39   H14   1.109202 S    
C5    O11   1.261484 A    
C41   H21   1.109205 S    
O19   Cr6   1.938754 S    
O20   C36   1.250962 A    
C10   O30   1.393802 S    
C17   C18   1.188839 T    
C22   C23   1.393543 A    
C29   O28   1.396051 S    
C4    C30   1.454357 S    
O14   C33   1.269074 A    
O23   Cr5   1.942363 S    
O15   Cr4   1.949413 S    
O6    C3    1.266691 A    
O16   Cr5   2.062105 S    
C41   H20   1.107213 S    
C7    H1    1.082287 S    
O25   Cr6   1.953342 S    
O18   Cr6   2.073133 S    
C5    C17   1.404774 S    
O23   C35   1.264740 A    
Cr3   O13   1.976174 S    
C1    C15   1.437272 S    
C23   C24   1.403343 A    
C8    O29   1.391443 S    
C38   H11   1.112264 S    
O12   C6    1.272046 A    
C25   C26   1.371155 A    
O1    Cr1   2.066719 S    
C29   C30   1.412963 A    
O10   Cr2   1.938267 S    
Cr1   O13   1.978542 S    
O1    C3    1.264948 A    
C37   H7    1.114198 S    
Cr5   O26   1.974812 S    
C40   H16   1.111126 S    
C39   H13   1.114011 S    
C25   C30   1.391528 A    
C28   C29   1.409474 A    
O24   Cr6   2.058120 S    
O5    Cr3   2.062324 S    
O12   Cr3   1.939877 S    
C35   O24   1.253774 A    
O19   C33   1.273354 A    
O27   C37   1.411949 S    
C6    C24   1.444205 S    
C40   H17   1.106756 S    
C26   C27   1.417332 A    
C18   C35   1.404031 S    
O7    Cr1   2.048646 S    
C41   H19   1.110246 S    
N1    O33   1.301535 A    
O6    Cr3   1.942244 S    
C22   N1    1.438261 S    
C8    C9    1.408524 A    
C9    C32   1.454578 S    
C3    C13   1.407174 S    
C21   C22   1.410838 A    
O21   Cr4   1.929885 S    
C19   C24   1.393360 A    
C23   H4    1.083741 S    
Cr2   O13   1.964220 S    
C1    O3    1.288234 A    
O14   Cr4   2.049691 S    
C38   H12   1.111016 S    
O15   C31   1.271435 A    
C11   C12   1.415189 A    
O9    Cr2   2.073477 S    
O2    Cr1   1.930996 S    
C27   C36   1.455520 S    
O28   C38   1.411520 S    
C39   H15   1.110438 S    
Cr4   O26   1.979778 S    
O8    C4    1.266505 A    
C2    O5    1.251568 A    
O22   Cr5   2.055158 S    
C21   C34   1.441875 S    
C15   C16   1.207760 T    
C19   C20   1.375339 A    
O2    C1    1.308127 A    
C32   O18   1.250260 A    
C26   O27   1.384628 S    
C34   O22   1.266688 A    
C40   H18   1.108686 S    
C20   C21   1.403179 A    
C13   C14   1.190702 T    
O17   C32   1.278788 A    
O4    C2    1.279829 A    
O7    C6    1.268850 A    
C27   C28   1.401122 A    
N1    O32   1.301335 A    
O20   Cr4   2.069575 S    
C7    C8    1.397721 A    
O17   Cr5   1.939463 S    
O25   C36   1.279755 A    
O21   C34   1.266789 A    
O3    Cr2   2.056254 S    
C2    C12   1.447452 S    
C4    O9    1.268244 A    
C16   C33   1.438007 S    
C28   H6    1.081633 S    
C10   C11   1.377079 A    
O10   C5    1.259077 A    
C14   C31   1.406807 S    
