data_mof_unit_59072.cif
_audit_creation_date              2012-10-26T20:03:24-0400
_audit_creation_method            fapswitch 2.2
_symmetry_space_group_name_H-M    P1
_symmetry_Int_Tables_number       1
_space_group_crystal_system       triclinic
_cell_length_a                    10.676706
_cell_length_b                    12.483706
_cell_length_c                    13.053086
_cell_angle_alpha                 117.196241
_cell_angle_beta                  75.133019
_cell_angle_gamma                 101.387361
_cell_volume                      1489.11914741

loop_
_atom_site_label
_atom_site_type_symbol
_atom_type_description
_atom_site_fract_x
_atom_site_fract_y
_atom_site_fract_z
_atom_type_partial_charge
C1    C     C_R   0.514746 0.855041 0.284753 0.627962
C2    C     C_R   0.493631 0.566456 0.006895 0.002304
C3    C     C_R   0.455332 0.654602 0.122004 -0.044546
C4    C     C_R   0.739512 0.001529 0.501762 0.575826
C5    C     C_R   0.460216 0.441815 0.982262 0.032504
C6    C     C_R   0.365748 0.410342 0.065382 0.008846
C7    C     C_R   0.297076 0.502134 0.163828 -0.002522
C8    C     C_R   0.345988 0.624140 0.194937 0.244730
C9    C     C_R   0.520712 0.347018 0.879675 0.040140
C10   C     C_R   0.367519 0.197724 0.928803 -0.037122
C11   C     C_R   0.520273 0.773062 0.157516 0.032285
C12   C     C_3   0.030658 0.091031 0.605323 -0.043425
C13   C     C_R   0.719735 0.353239 0.334728 -0.084866
C14   C     C_R   0.304908 0.749977 0.628035 0.403634
C15   C     C_R   0.242038 0.638287 0.624687 0.213273
C16   C     C_R   0.480633 0.145201 0.715592 0.519134
C17   C     C_R   0.306310 0.535093 0.555370 -0.126425
C18   C     C_R   0.440029 0.541252 0.507981 -0.065878
C19   C     C_R   0.492850 0.651572 0.499274 0.097132
C20   C     C_R   0.519754 0.440720 0.459861 -0.014663
C21   C     C_R   0.638842 0.446811 0.382888 -0.002855
C22   C     C_R   0.675587 0.546394 0.354209 -0.040873
C23   C     C_3   0.924108 0.984864 0.596054 -0.030198
C24   C     C_R   0.606627 0.648473 0.416543 -0.070976
C25   C     C_R   0.491457 0.338262 0.489254 0.121373
C26   C     C_R   0.686736 0.253960 0.360287 0.367103
C27   C     C_R   0.259868 0.000821 0.501773 0.582587
C28   C     C_3   0.968407 0.917076 0.405405 0.234302
C29   C     C_3   0.016684 0.896735 0.495167 0.251107
C30   C     C_3   0.123143 0.001733 0.503999 0.047069
C31   C     C_3   0.074097 0.022450 0.413536 -0.016606
C32   C     C_3   0.981155 0.111681 0.514796 -0.030134
C33   C     C_3   0.661789 0.363437 0.822605 -0.327909
C34   C     C_3   0.875346 0.005040 0.505220 0.044232
C35   C     C_3   0.702065 0.761240 0.857695 -0.409229
C36   C     C_3   0.788992 0.546702 0.257506 -0.412940
C37   C     C_3   0.371446 0.334190 0.579498 -0.312125
C38   C     C_3   0.157514 0.041835 0.308641 -0.371858
C39   C     C_3   0.962860 0.235499 0.527845 -0.359249
C40   C     C_3   0.064683 0.189060 0.720629 -0.395477
C41   C     C_3   0.839478 0.962424 0.698823 -0.386447
C42   C     C_3   0.296666 0.073286 0.897041 -0.353913
C43   C     C_3   0.161721 0.474113 0.224031 -0.400916
C44   C     C_3   0.296081 0.251060 0.145806 -0.401632
C45   C     C_R   0.339067 0.287246 0.044807 0.015606
C46   C     C_R   0.457238 0.228920 0.843185 -0.006640
C47   C     C_R   0.599113 0.809056 0.071217 0.205085
C48   C     C_R   0.613273 0.726243 0.950762 -0.006449
C49   C     C_R   0.552315 0.606967 0.919055 0.226568
Cu1   Cu    Cu3+1 0.529830 0.098270 0.475420 0.956552
Cu2   Cu    Cu3+1 0.470170 0.901730 0.524580 0.986610
H1    H     H_    0.811169 0.355317 0.275566 0.129131
H2    H     H_    0.797219 0.803543 0.884351 0.147298
H3    H     H_    0.725424 0.682380 0.771968 0.159639
H4    H     H_    0.656154 0.825728 0.845159 0.112030
H5    H     H_    0.239629 0.689721 0.349882 0.372427
H6    H     H_    0.726616 0.090246 0.303001 0.407758
H7    H     H_    0.792937 0.623997 0.236404 0.181494
H8    H     H_    0.880728 0.552527 0.285033 0.135055
H9    H     H_    0.779846 0.463148 0.175673 0.128752
H10   H     H_    0.370186 0.280367 0.624580 0.200198
H11   H     H_    0.358301 0.424368 0.654191 0.130686
H12   H     H_    0.247090 0.451143 0.537960 0.135116
H13   H     H_    0.286190 0.294086 0.536156 0.093717
H14   H     H_    0.146626 0.831185 0.687178 0.330710
H15   H     H_    0.012180 0.781777 0.257489 0.344197
H16   H     H_    0.100948 0.700941 0.757011 0.323016
H17   H     H_    0.093840 0.048256 0.256893 0.157463
H18   H     H_    0.222378 0.126911 0.339360 0.136790
H19   H     H_    0.217478 0.964728 0.252303 0.157069
H20   H     H_    0.055111 0.294735 0.540236 0.128019
H21   H     H_    0.935062 0.226184 0.447837 0.194962
H22   H     H_    0.885772 0.277249 0.605136 0.144239
H23   H     H_    0.641412 0.722296 0.393800 0.195898
H24   H     H_    0.976067 0.233385 0.778728 0.137432
H25   H     H_    0.103506 0.148272 0.764479 0.131167
H26   H     H_    0.138629 0.257995 0.704137 0.131236
H27   H     H_    0.902222 0.953608 0.749939 0.139210
H28   H     H_    0.779471 0.039245 0.756429 0.126741
H29   H     H_    0.774612 0.877716 0.665676 0.149071
H30   H     H_    0.240270 0.056593 0.830098 0.184973
H31   H     H_    0.366684 0.004699 0.864902 0.181803
H32   H     H_    0.224482 0.063511 0.970810 0.119782
H33   H     H_    0.097406 0.541731 0.239593 0.159084
H34   H     H_    0.949218 0.736274 0.477269 0.327327
H35   H     H_    0.114894 0.385931 0.168316 0.136135
H36   H     H_    0.164854 0.476633 0.309479 0.135978
H37   H     H_    0.316368 0.326854 0.229548 0.139723
H38   H     H_    0.190936 0.219310 0.156195 0.129766
H39   H     H_    0.352551 0.177171 0.129543 0.139693
H40   H     H_    0.714560 0.288232 0.808960 0.084496
H41   H     H_    0.670124 0.363269 0.736160 0.209843
H42   H     H_    0.713151 0.448101 0.879419 0.135822
H43   H     H_    0.683641 0.949930 0.042855 0.328612
H44   H     H_    0.532700 0.582570 0.765609 0.324254
N1    N     N_R   0.575030 0.246270 0.438190 -0.233000
N2    N     N_R   0.425760 0.754330 0.561190 -0.237583
O1    O     O_R   0.537510 0.972500 0.318130 -0.469301
O2    O     O_3   0.661316 0.924915 0.107566 -0.689858
O3    O     O_3   0.537446 0.532199 0.804882 -0.724171
O4    O     O_3   0.276646 0.715494 0.286016 -0.683526
O5    O     O_3   0.772776 0.166688 0.304698 -0.710774
O6    O     O_3   0.241130 0.853001 0.686278 -0.698951
O7    O     O_3   0.934012 0.826547 0.301158 -0.723146
O8    O     O_3   0.117325 0.625411 0.684445 -0.720085
O9    O     O_R   0.487140 0.806530 0.359650 -0.503151
O10   O     O_R   0.708330 0.082950 0.479220 -0.508965
O11   O     O_R   0.657960 0.916980 0.520740 -0.533122
O12   O     O_R   0.512860 0.193470 0.640350 -0.517715
O13   O     O_R   0.462490 0.027500 0.681870 -0.474070
O14   O     O_R   0.342040 0.083020 0.479260 -0.544047
O15   O     O_R   0.291670 0.917050 0.520780 -0.405285
O16   O     O_3   0.034981 0.784206 0.484941 -0.701152

loop_
_geom_bond_atom_site_label_1
_geom_bond_atom_site_label_2
_ccdc_geom_bond_type
Cu2   N2    S    
C38   H19   S    
Cu2   O15   S    
C6    C45   A    
C35   H2    S    
C11   C47   A    
C42   H31   S    
C36   H8    S    
C24   H23   S    
C41   H29   S    
C37   H11   S    
C19   N2    A    
C16   O13   A    
C7    C8    A    
H6    O5    S    
C4    O11   A    
C12   C23   S    
C23   C29   S    
C28   C29   S    
H5    O4    S    
C36   H7    S    
C33   H40   S    
C30   C31   S    
C10   C42   S    
C20   C25   A    
C47   O2    S    
C18   C19   A    
C32   C39   S    
C25   C37   S    
C47   C48   A    
Cu2   O11   S    
C1    C11   S    
C10   C46   A    
C39   H21   S    
C7    C43   S    
C8    O4    S    
C1    O9    A    
C38   H18   S    
C28   C34   S    
C9    C46   A    
C21   C22   A    
C12   C32   S    
C35   H3    S    
C9    C33   S    
C43   H33   S    
C42   H30   S    
C35   C48   S    
C16   O12   A    
C17   C18   A    
C26   N1    A    
C4    O10   A    
C4    C34   S    
Cu1   O1    S    
C35   H4    S    
H15   O7    S    
C3    C8    A    
C33   H41   S    
C16   C46   S    
C41   H27   S    
H44   O3    S    
H16   O8    S    
Cu1   O12   S    
C40   H25   S    
C32   C34   S    
C12   C40   S    
C5    C9    A    
C29   C30   S    
C2    C49   A    
C13   H1    S    
C28   O7    S    
C31   C32   S    
C23   C34   S    
C10   C45   A    
Cu1   Cu2   S    
C13   C21   A    
C48   C49   A    
C38   H17   S    
C27   O15   A    
Cu2   O13   S    
Cu1   O10   S    
C22   C24   A    
C13   C26   A    
C2    C5    A    
H14   O6    S    
C37   H13   S    
C44   H39   S    
C44   C45   S    
C14   N2    A    
C15   C17   A    
C29   O16   S    
C12   C30   S    
C40   H26   S    
C43   H35   S    
C28   C31   S    
C42   H32   S    
C36   H9    S    
C33   H42   S    
C1    O1    A    
C41   H28   S    
C37   H10   S    
C40   H24   S    
C6    C7    A    
C22   C36   S    
C23   C41   S    
C31   C38   S    
C43   H36   S    
C15   O8    S    
H34   O16   S    
C2    C3    A    
C26   O5    S    
C49   O3    S    
Cu1   N1    S    
C14   O6    S    
C5    C6    A    
H43   O2    S    
Cu2   O9    S    
Cu1   O14   S    
C19   C24   A    
C18   C20   A    
C39   H22   S    
C3    C11   A    
C27   O14   A    
C20   C21   A    
C25   N1    A    
C39   H20   S    
C14   C15   A    
C44   H37   S    
C17   H12   S    
C44   H38   S    
C27   C30   S    
