data_mof_unit_13438.cif
_audit_creation_date              2012-12-10T17:58:19-0500
_audit_creation_method            fapswitch 2.2
_symmetry_space_group_name_H-M    P1
_symmetry_Int_Tables_number       1
_space_group_crystal_system       triclinic
_cell_length_a                    9.522641
_cell_length_b                    10.833781
_cell_length_c                    15.449501
_cell_angle_alpha                 89.850898
_cell_angle_beta                  74.582038
_cell_angle_gamma                 90.000417
_cell_volume                      1536.5009179

loop_
_atom_site_label
_atom_site_type_symbol
_atom_type_description
_atom_site_fract_x
_atom_site_fract_y
_atom_site_fract_z
_atom_type_partial_charge
C1    C     C_R   0.999939 0.262080 0.500058 0.790710
C2    C     C_R   0.000061 0.737919 0.499943 0.790690
C3    C     C_R   0.586630 0.516756 0.094579 0.703687
C4    C     C_R   0.413403 0.483079 0.905427 0.703656
C5    C     C_R   0.728694 0.546927 0.048978 -0.284608
C6    C     C_R   0.271331 0.452931 0.951027 -0.284571
C7    C     C_R   0.872175 0.063837 0.500474 -0.164897
C8    C     C_R   0.127825 0.936163 0.499526 -0.164916
C9    C     C_R   0.872230 0.936133 0.500386 -0.172934
C10   C     C_R   0.127770 0.063867 0.499615 -0.172930
C11   C     C_R   0.000046 0.871775 0.499934 -0.017179
C12   C     C_R   0.999954 0.128224 0.500066 -0.017179
C13   C     C_R   0.549215 0.426501 0.558116 0.046454
C14   C     C_R   0.450785 0.573499 0.441884 0.046481
C15   C     C_R   0.400408 0.426637 0.558160 -0.009874
C16   C     C_R   0.599592 0.573363 0.441840 -0.009870
C17   C     C_R   0.918409 0.500061 0.672217 0.853061
C18   C     C_R   0.081592 0.499937 0.327782 0.853036
C19   C     C_R   0.873364 0.508481 0.770417 -0.190689
C20   C     C_R   0.126643 0.491494 0.229582 -0.190688
C21   C     C_R   0.918062 0.570931 0.910728 -0.171574
C22   C     C_R   0.081932 0.429032 0.089274 -0.171579
C23   C     C_R   0.966745 0.557282 0.817971 -0.269860
C24   C     C_R   0.033239 0.442727 0.182027 -0.269867
C25   C     C_R   0.731111 0.474486 0.816263 0.651406
C26   C     C_R   0.268923 0.525421 0.183737 0.651408
C27   C     C_R   0.673372 0.506381 0.907093 -0.015713
C28   C     C_R   0.326654 0.493496 0.092911 -0.015729
C29   C     C_R   0.772783 0.544313 0.955682 -0.014116
C30   C     C_R   0.227232 0.455584 0.044322 -0.014102
C31   C     C_R   0.522282 0.496163 0.952202 -0.127353
C32   C     C_R   0.477749 0.503681 0.047803 -0.127356
Cu1   Cu    Cu3+1 0.140660 0.500020 0.500000 0.986569
Cu2   Cu    Cu3+1 0.859340 0.499980 0.500000 0.986568
H1    H     H_    0.807026 0.564481 0.087135 0.170517
H2    H     H_    0.192998 0.435377 0.912868 0.170534
H3    H     H_    0.922435 0.416965 0.216246 0.201772
H4    H     H_    0.077527 0.583100 0.783748 0.201747
H5    H     H_    0.993436 0.603337 0.947297 0.164597
H6    H     H_    0.006543 0.396648 0.052705 0.164586
H7    H     H_    0.772221 0.111848 0.500869 0.154513
H8    H     H_    0.227778 0.888152 0.499132 0.154507
H9    H     H_    0.772326 0.888098 0.500694 0.154903
H10   H     H_    0.227674 0.111902 0.499306 0.154907
H11   H     H_    0.585087 0.367338 0.604540 0.179510
H12   H     H_    0.414913 0.632662 0.395460 0.179480
H13   H     H_    0.324194 0.367789 0.604694 0.135594
H14   H     H_    0.675806 0.632211 0.395306 0.135580
N1    N     N_R   0.352080 0.500030 0.499980 -0.181166
N2    N     N_R   0.647920 0.499970 0.500020 -0.181169
O1    O     O_R   0.118740 0.319660 0.500000 -0.593459
O2    O     O_R   0.881260 0.680340 0.500000 -0.593462
O3    O     O_R   0.881170 0.319630 0.500010 -0.590664
O4    O     O_R   0.118830 0.680370 0.499990 -0.590679
O5    O     O_R   0.055570 0.500030 0.629830 -0.594589
O6    O     O_R   0.944430 0.499970 0.370170 -0.594586
O7    O     O_R   0.818000 0.500000 0.629840 -0.520798
O8    O     O_R   0.182000 0.500000 0.370160 -0.520776
F1    F     F_    0.341917 0.603182 0.225327 -0.638169
F2    F     F_    0.658157 0.396688 0.774666 -0.638156
F3    F     F_    0.561655 0.490023 0.183207 -0.635598
F4    F     F_    0.438383 0.509799 0.816800 -0.635618

loop_
_geom_bond_atom_site_label_1
_geom_bond_atom_site_label_2
_ccdc_geom_bond_type
C21   C29   A    
Cu1   O5    S    
Cu2   O7    S    
C19   C23   A    
Cu2   O6    S    
Cu1   O8    S    
C25   F2    S    
C18   O6    A    
C27   C29   A    
C23   H4    S    
C9    C11   A    
C26   F1    S    
C17   O5    A    
C26   C28   A    
C31   C32   A    
C21   H5    S    
C15   H13   S    
C8    H8    S    
C4    F4    S    
C22   H6    S    
C16   H14   S    
C28   C30   A    
Cu1   Cu2   S    
C3    C5    A    
C14   H12   S    
C15   N1    A    
C13   H11   S    
C1    O1    A    
C7    C12   A    
C1    C12   S    
C2    O2    A    
Cu2   O3    S    
C8    C11   A    
C2    C11   S    
C10   C12   A    
C4    C6    A    
C17   C19   S    
C6    H2    S    
C24   H3    S    
C5    C29   A    
C13   C15   A    
C21   C23   A    
C3    C32   A    
C19   C25   A    
C22   C24   A    
C9    H9    S    
C4    C31   A    
Cu2   N2    S    
C3    F3    S    
C10   H10   S    
C13   N2    A    
C14   N1    A    
C5    H1    S    
C28   C32   A    
C27   C31   A    
C18   C20   S    
C8    C10   A    
C2    O4    A    
C17   O7    A    
Cu1   O4    S    
C7    C9    A    
C1    O3    A    
Cu2   O2    S    
C22   C30   A    
C6    C30   A    
C14   C16   A    
Cu1   N1    S    
C18   O8    A    
Cu1   O1    S    
C20   C24   A    
C7    H7    S    
C16   N2    A    
C20   C26   A    
C25   C27   A    
