data_mof_unit_12304.cif
_audit_creation_date              2012-12-11T15:53:50-0500
_audit_creation_method            fapswitch 2.2
_symmetry_space_group_name_H-M    P1
_symmetry_Int_Tables_number       1
_space_group_crystal_system       triclinic
_cell_length_a                    10.646447
_cell_length_b                    10.701548
_cell_length_c                    16.979211
_cell_angle_alpha                 80.451551
_cell_angle_beta                  99.404902
_cell_angle_gamma                 118.836085
_cell_volume                      1663.34325726

loop_
_atom_site_label
_atom_site_type_symbol
_atom_type_description
_atom_site_fract_x
_atom_site_fract_y
_atom_site_fract_z
_atom_type_partial_charge
C1    C     C_R   0.384899 0.285013 0.631905 0.538616
C2    C     C_R   0.393441 0.830831 0.673890 -0.135545
C3    C     C_R   0.376615 0.852915 0.749649 -0.151932
C4    C     C_3   0.127095 0.458996 0.793086 -0.249505
C5    C     C_3   0.146475 0.434680 0.711323 -0.254344
C6    C     C_R   0.314264 0.693211 0.646618 0.014429
C7    C     C_1   0.773079 0.630019 0.712276 -0.038602
C8    C     C_1   0.819229 0.669085 0.778049 -0.036987
C9    C     C_1   0.365506 0.234448 0.714400 -0.062630
C10   C     C_1   0.334115 0.187512 0.781697 -0.055342
C11   C     C_1   0.369668 0.636466 0.274859 -0.049445
C12   C     C_R   0.369262 0.654873 0.585997 0.540790
C13   C     C_1   0.342654 0.654566 0.204237 -0.052062
C14   C     C_R   0.868267 0.685172 0.167708 0.023791
C15   C     C_R   0.916706 0.604260 0.224861 0.041258
C16   C     C_R   0.907981 0.598805 0.304735 0.027376
C17   C     C_R   0.831020 0.781733 0.275280 -0.166905
C18   C     C_R   0.839005 0.785323 0.193753 -0.164759
C19   C     C_3   0.884442 0.451637 0.229469 -0.268657
C20   C     C_3   0.874076 0.443696 0.318192 -0.269302
C21   C     C_R   0.849767 0.675914 0.330020 0.019127
C22   C     C_R   0.338834 0.185396 0.154507 0.018337
C23   C     C_R   0.720768 0.587355 0.633300 0.540969
C24   C     C_R   0.262264 0.245476 0.178694 0.015600
C25   C     C_R   0.266481 0.255029 0.258312 0.023356
C26   C     C_R   0.445542 0.174115 0.291314 -0.158901
C27   C     C_R   0.443079 0.165035 0.210071 -0.160805
C28   C     C_3   0.107091 0.214026 0.164353 -0.268356
C29   C     C_3   0.113668 0.225085 0.252824 -0.267623
C30   C     C_R   0.345708 0.205814 0.316288 0.023710
C31   C     C_R   0.885196 0.698914 0.857225 0.546416
C32   C     C_R   0.281654 0.751202 0.882645 0.569454
C33   C     C_R   0.286849 0.118998 0.858512 0.540827
C34   C     C_R   0.353640 0.231428 0.397644 0.552987
C35   C     C_R   0.892140 0.693264 0.085898 0.549903
C36   C     C_R   0.316304 0.697233 0.122691 0.561647
C37   C     C_R   0.288303 0.112168 0.083191 0.554000
C38   C     C_R   0.403440 0.625278 0.358896 0.569352
C39   C     C_R   0.776007 0.624890 0.401462 0.555855
C40   C     C_R   0.279684 0.738125 0.798152 0.005842
C41   C     C_R   0.180034 0.613484 0.762397 0.027213
C42   C     C_R   0.197350 0.591082 0.687869 0.021810
Cr1   Cr    Cr6+3 0.608440 0.389080 0.519680 1.006530
Cr2   Cr    Cr6+3 0.288640 0.400090 0.490760 1.004314
Cr3   Cr    Cr6+3 0.602940 0.710800 0.489510 1.012616
Cr4   Cr    Cr6+3 0.052530 0.947560 0.964210 1.017764
Cr5   Cr    Cr6+3 0.059970 0.626800 0.992920 1.006207
Cr6   Cr    Cr6+3 0.373320 0.938440 0.995370 1.012129
H1    H     H_    0.779968 0.384665 0.195763 0.140145
H2    H     H_    0.763363 0.369009 0.334752 0.160828
H3    H     H_    0.961136 0.427466 0.356694 0.150204
H4    H     H_    0.519607 0.149664 0.334440 0.131495
H5    H     H_    0.510388 0.125903 0.192818 0.140879
H6    H     H_    0.031140 0.104072 0.148058 0.164118
H7    H     H_    0.092841 0.301363 0.125198 0.141914
H8    H     H_    0.105348 0.319146 0.265327 0.141742
H9    H     H_    0.044815 0.121662 0.286712 0.145679
H10   H     H_    0.447575 0.955410 0.772711 0.141680
H11   H     H_    0.012425 0.406142 0.805741 0.153782
H12   H     H_    0.201674 0.441087 0.842087 0.153429
H13   H     H_    0.232637 0.403827 0.713353 0.143337
H14   H     H_    0.793498 0.849495 0.293389 0.138319
H15   H     H_    0.815321 0.860410 0.151281 0.128503
H16   H     H_    0.977973 0.442300 0.216168 0.145637
O1    O     O_R   0.754020 0.497590 0.609930 -0.503356
O2    O     O_R   0.295080 0.533620 0.397890 -0.500809
O3    O     O_R   0.485280 0.746620 0.388440 -0.505825
O4    O     O_R   0.720550 0.696220 0.420010 -0.517536
O5    O     O_3   0.500010 0.499990 0.499980 -0.302677
O6    O     O_R   0.163320 0.092900 0.874450 -0.505066
O7    O     O_R   0.934650 0.822080 0.882840 -0.487919
O8    O     O_R   0.915520 0.604140 0.893670 -0.522377
O9    O     O_R   0.191760 0.638110 0.923230 -0.503722
O10   O     O_R   0.406180 0.826930 0.920660 -0.513816
O11   O     O_R   0.358620 0.062870 0.901950 -0.518737
O12   O     O_R   0.481420 0.271390 0.600630 -0.496947
O13   O     O_R   0.163910 0.085460 0.050210 -0.522723
O14   O     O_R   0.935200 0.815170 0.045770 -0.501950
O15   O     O_R   0.916120 0.596690 0.069430 -0.519688
O16   O     O_R   0.192310 0.631200 0.086170 -0.501366
O17   O     O_R   0.406770 0.819480 0.096420 -0.508058
O18   O     O_R   0.359170 0.055960 0.064880 -0.505852
O19   O     O_3   0.161940 0.837600 0.984160 -0.267975
O20   O     O_R   0.263810 0.254550 0.589590 -0.496434
O21   O     O_R   0.300820 0.531200 0.560890 -0.510438
O22   O     O_R   0.491480 0.744020 0.564270 -0.521366
O23   O     O_R   0.726290 0.693800 0.583010 -0.483670
O24   O     O_R   0.747830 0.500190 0.434090 -0.517781
O25   O     O_R   0.475680 0.273800 0.437630 -0.502741
O26   O     O_R   0.257620 0.257160 0.413750 -0.518747
H17   H     H_    0.479121 0.916784 0.641189 0.150393
H18   H     H_    0.043142 0.367386 0.676922 0.154970

loop_
_geom_bond_atom_site_label_1
_geom_bond_atom_site_label_2
_ccdc_geom_bond_type
C5    C42   S    
C16   C21   A    
C39   O4    A    
C14   C18   A    
Cr2   O2    S    
C19   C20   S    
Cr5   O15   S    
C7    C8    T    
C1    O20   A    
C15   C19   S    
C26   C27   A    
Cr1   O25   S    
C12   O21   A    
Cr1   O24   S    
C39   O24   A    
C28   C29   S    
Cr3   O23   S    
C20   H3    S    
C6    C12   S    
C18   H15   S    
C4    C41   S    
C15   C16   A    
Cr1   O12   S    
Cr6   O17   S    
C41   C42   A    
C20   H2    S    
C33   O11   A    
C38   O2    A    
Cr3   O3    S    
Cr5   O19   S    
C9    C10   T    
C19   H16   S    
Cr1   O1    S    
C31   O7    A    
Cr1   O5    S    
C23   O23   A    
C8    C31   S    
Cr6   O11   S    
C2    C6    A    
Cr5   O16   S    
C28   H7    S    
C25   C29   S    
C30   C34   S    
Cr3   O5    S    
Cr6   O10   S    
C1    C9    S    
C24   C25   A    
Cr5   O9    S    
C13   C36   S    
C36   O16   A    
C14   C35   S    
Cr4   O14   S    
C28   H6    S    
C22   C37   S    
C37   O13   A    
C17   C21   A    
C11   C38   S    
C34   O26   A    
C26   H4    S    
C17   H14   S    
C19   H1    S    
C21   C39   S    
C36   O17   A    
C16   C20   S    
C4    H12   S    
Cr3   O4    S    
C17   C18   A    
C5    H13   S    
Cr2   O5    S    
Cr4   O7    S    
C33   O6    A    
C40   C41   A    
C29   H9    S    
C3    C40   A    
C26   C30   A    
C22   C27   A    
C22   C24   A    
C37   O18   A    
Cr2   O21   S    
C32   O9    A    
Cr2   O26   S    
C25   C30   A    
C31   O8    A    
C1    O12   A    
C24   C28   S    
C4    C5    S    
Cr2   O20   S    
Cr4   O13   S    
C27   H5    S    
C29   H8    S    
C35   O14   A    
Cr6   O19   S    
C12   O22   A    
C23   O1    A    
C2    C3    A    
C34   O25   A    
C32   O10   A    
C11   C13   T    
C7    C23   S    
C4    H11   S    
C35   O15   A    
Cr6   O18   S    
Cr3   O22   S    
C10   C33   S    
C32   C40   S    
C2    H17   S    
Cr5   O8    S    
Cr4   O6    S    
C5    H18   S    
Cr4   O19   S    
C3    H10   S    
C38   O3    A    
C6    C42   A    
C14   C15   A    
