data_mof_unit_19731.cif
_audit_creation_date              2012-12-11T15:30:32-0500
_audit_creation_method            fapswitch 2.2
_symmetry_space_group_name_H-M    P1
_symmetry_Int_Tables_number       1
_space_group_crystal_system       triclinic
_cell_length_a                    7.006374
_cell_length_b                    20.473858
_cell_length_c                    24.385002
_cell_angle_alpha                 89.769742
_cell_angle_beta                  91.066707
_cell_angle_gamma                 88.973718
_cell_volume                      3496.76735549

loop_
_atom_site_label
_atom_site_type_symbol
_atom_type_description
_atom_site_fract_x
_atom_site_fract_y
_atom_site_fract_z
_atom_type_partial_charge
O1    O     O_R   0.507310 0.423620 0.460450 -0.530812
O2    O     O_R   0.170760 0.556060 0.437190 -0.531213
O3    O     O_R   0.004040 0.576380 0.539550 -0.542939
C1    C     C_R   0.337054 0.576105 0.421287 0.744066
O4    O     O_R   0.177350 0.422870 0.454070 -0.531437
O5    O     O_R   0.010680 0.442240 0.556560 -0.540724
C2    C     C_R   0.346306 0.398972 0.443747 0.806397
O6    O     O_R   0.500670 0.557760 0.443440 -0.528357
O7    O     O_3   0.340380 0.506510 0.533610 -0.381266
V1    V     V_3+5 0.064130 0.498790 0.493770 1.547759
O8    O     O_R   0.681170 0.443940 0.562810 -0.536389
C3    C     C_R   0.851785 0.424133 0.578576 0.716641
O9    O     O_R   0.674570 0.577130 0.545930 -0.536443
C4    C     C_R   0.842428 0.600939 0.556631 0.704037
V2    V     V_3+5 0.564560 0.501210 0.506230 1.544405
O10   O     O_3   0.838170 0.493490 0.466390 -0.357893
C5    C     C_R   0.971710 0.836924 0.912398 -0.197184
C6    C     C_R   0.844068 0.661709 0.589059 -0.081504
C7    C     C_R   0.952986 0.719004 0.911581 -0.055559
C8    C     C_R   0.965384 0.776876 0.941016 0.268849
C9    C     C_R   0.963777 0.837215 0.854260 0.303973
C10   C     C_R   0.923588 0.778314 0.824540 -0.049625
C11   C     C_R   0.931574 0.718537 0.854102 -0.088147
C12   C     C_R   0.876372 0.776216 0.767022 0.040133
C13   C     C_R   0.875453 0.715247 0.738158 -0.067380
C14   C     C_R   0.875999 0.656744 0.769794 0.265603
C15   C     C_R   0.912576 0.658426 0.826875 0.358319
C16   C     C_R   0.804681 0.832058 0.738989 -0.047107
C17   C     C_R   0.761456 0.831048 0.683247 -0.174623
C18   C     C_R   0.789515 0.774367 0.652847 0.100507
C19   C     C_R   0.853092 0.715860 0.679259 0.131782
C20   C     C_R   0.748613 0.775420 0.596288 -0.114757
C21   C     C_R   0.770206 0.719073 0.565102 -0.139682
C22   C     C_R   0.893855 0.661092 0.645290 -0.132115
H1    H     H_    0.964059 0.617686 0.661604 0.166421
H2    H     H_    0.729110 0.720182 0.522040 0.146757
H3    H     H_    0.705192 0.875213 0.663764 0.155386
H4    H     H_    0.954824 0.673777 0.934824 0.206493
H5    H     H_    0.765929 0.876125 0.760421 0.189129
H6    H     H_    0.695061 0.819651 0.576344 0.157365
C23   C     C_3   0.719706 0.237853 0.788781 0.600822
C24   C     C_3   0.065868 0.265913 0.800234 0.175785
C25   C     C_3   0.043581 0.316058 0.752166 -0.316394
H7    H     H_    0.033706 0.292056 0.839164 0.161864
H8    H     H_    0.998326 0.364326 0.768789 0.196728
H9    H     H_    0.183275 0.324374 0.732807 0.197857
C26   C     C_1   0.865912 0.378845 0.624312 -0.109363
C27   C     C_3   0.926383 0.208020 0.791899 0.001608
C28   C     C_3   0.699840 0.286974 0.738290 0.054388
C29   C     C_3   0.894946 0.292655 0.708603 -0.032130
C30   C     C_3   0.960864 0.223449 0.687514 0.661430
C31   C     C_3   0.974936 0.173932 0.736762 -0.461546
C32   C     C_1   0.878489 0.340411 0.662298 0.161162
C33   C     C_1   0.944791 0.160158 0.838150 0.107456
C34   C     C_1   0.958153 0.121515 0.875965 -0.092023
H10   H     H_    0.880712 0.131586 0.729754 0.161696
H11   H     H_    0.121154 0.151999 0.740137 0.252234
H12   H     H_    0.591656 0.269155 0.708089 0.133139
C35   C     C_3   0.597638 0.704582 0.273474 0.626399
C36   C     C_3   0.253719 0.693751 0.241147 -0.448347
C37   C     C_3   0.299634 0.740750 0.192473 0.144159
H13   H     H_    0.673773 0.726449 0.187619 0.153028
H14   H     H_    0.100522 0.698206 0.251872 0.261456
H15   H     H_    0.274008 0.642245 0.227945 0.221175
H16   H     H_    0.366891 0.710525 0.159755 0.117815
C38   C     C_1   0.483367 0.878503 0.124853 -0.087778
C39   C     C_3   0.382700 0.708900 0.292165 -0.137453
C40   C     C_3   0.631558 0.754026 0.224858 0.035025
C41   C     C_3   0.446087 0.794157 0.210397 -0.090707
C42   C     C_3   0.379952 0.831918 0.263674 0.700042
C43   C     C_3   0.322081 0.780485 0.309007 0.036937
C44   C     C_1   0.473259 0.840501 0.163273 0.237545
C45   C     C_1   0.352435 0.660836 0.337707 0.237270
C46   C     C_1   0.341134 0.621957 0.375467 -0.064837
H17   H     H_    0.163626 0.781431 0.310982 0.226032
C47   C     C_R   0.473094 0.161292 0.089281 -0.163904
C48   C     C_R   0.353874 0.338651 0.411056 -0.208467
C49   C     C_R   0.565620 0.274013 0.098592 -0.139818
C50   C     C_R   0.527639 0.220430 0.065477 0.305606
C51   C     C_R   0.446364 0.157293 0.146464 0.244639
C52   C     C_R   0.460220 0.214884 0.179722 -0.010625
C53   C     C_R   0.538489 0.271048 0.155308 -0.021017
C54   C     C_R   0.405839 0.218911 0.236186 -0.001746
C55   C     C_R   0.456298 0.274737 0.268363 0.068324
C56   C     C_R   0.579712 0.320788 0.245064 0.428722
C57   C     C_R   0.602971 0.322072 0.188142 -0.224678
C58   C     C_R   0.297601 0.170162 0.261139 -0.168251
C59   C     C_R   0.268058 0.170031 0.317246 -0.075320
C60   C     C_R   0.318651 0.223573 0.349557 -0.035040
C61   C     C_R   0.392179 0.280066 0.323902 -0.017996
C62   C     C_R   0.285511 0.223334 0.406488 0.426509
C63   C     C_R   0.310590 0.280023 0.436885 -0.245880
C64   C     C_R   0.385333 0.339885 0.354058 0.397606
H18   H     H_    0.683119 0.361099 0.169813 0.144511
H19   H     H_    0.284098 0.279325 0.480549 0.186277
H20   H     H_    0.195396 0.128781 0.334539 0.204573
H21   H     H_    0.620654 0.317846 0.079984 0.177075
H22   H     H_    0.233974 0.131101 0.238047 0.194292
O11   O     O_R   0.323590 0.942280 0.056590 -0.535124
O12   O     O_R   0.647030 0.077140 0.045940 -0.535138
O13   O     O_R   0.813570 0.057750 0.943430 -0.524633
C65   C     C_R   0.478265 0.101230 0.056071 0.847007
O14   O     O_R   0.653510 0.943950 0.062820 -0.536696
O15   O     O_R   0.820100 0.923600 0.960440 -0.545209
C66   C     C_R   0.487240 0.923867 0.078693 0.714820
O16   O     O_R   0.317060 0.076430 0.039590 -0.535521
O17   O     O_3   0.483830 0.993520 0.966410 -0.370458
V3    V     V_3+5 0.760140 0.001200 0.006230 1.560979
O18   O     O_R   0.149560 0.922820 0.954030 -0.528681
C67   C     C_R   0.981161 0.899136 0.943237 0.752964
O19   O     O_R   0.143080 0.056020 0.937150 -0.533101
C68   C     C_R   0.972465 0.075958 0.921490 0.765102
V4    V     V_3+5 0.259690 0.998730 0.993720 1.570082
O20   O     O_3   0.986120 0.006480 0.033580 -0.373838
O21   O     O_3   0.922623 0.601567 0.857790 -0.617009
H23   H     H_    0.960205 0.564570 0.834058 0.353314
O22   O     O_3   0.639886 0.349530 0.755574 -0.603659
H24   H     H_    0.499233 0.348618 0.759232 0.324022
O23   O     O_3   0.689033 0.271246 0.838489 -0.596812
H25   H     H_    0.553487 0.285346 0.839584 0.360947
O24   O     O_3   0.254366 0.242610 0.803247 -0.621704
H26   H     H_    0.274502 0.223769 0.840549 0.327183
O25   O     O_3   0.836348 0.201154 0.645782 -0.586947
H27   H     H_    0.717282 0.185801 0.662359 0.285071
O26   O     O_3   0.586559 0.187039 0.784775 -0.614015
H28   H     H_    0.583960 0.169985 0.746865 0.282114
Cl1   Cl    Cl    0.191637 0.227968 0.656557 -0.583581
Cl2   Cl    Cl    0.652474 0.623461 0.249241 -0.592822
O27   O     O_3   0.133658 0.769354 0.169365 -0.564086
H29   H     H_    0.062896 0.733914 0.150690 0.335866
Cl3   Cl    Cl    0.385160 0.801837 0.378601 -0.584688
O28   O     O_3   0.521926 0.875344 0.281745 -0.557805
H30   H     H_    0.604702 0.855007 0.310350 0.360987
O29   O     O_3   0.725305 0.713438 0.318074 -0.589529
H31   H     H_    0.704296 0.757266 0.333570 0.336942
Cl4   Cl    Cl    0.828988 0.804846 0.236626 -0.541840
Cl5   Cl    Cl    0.183909 0.886349 0.248101 -0.410248
Cl6   Cl    Cl    0.359794 0.416726 0.320496 -0.584255
Cl7   Cl    Cl    0.566933 0.227123 0.994472 -0.624178
O30   O     O_3   0.433929 0.095518 0.168663 -0.642189
H32   H     H_    0.514112 0.094342 0.202610 0.317034
O31   O     O_3   0.688884 0.360191 0.278666 -0.601241
H33   H     H_    0.770969 0.387958 0.255877 0.331490
Cl8   Cl    Cl    0.210614 0.153207 0.441794 -0.507748
O32   O     O_3   0.975824 0.771583 0.997595 -0.631413
H34   H     H_    0.990815 0.815019 0.014501 0.286927
Cl9   Cl    Cl    0.043008 0.908985 0.821310 -0.669145
Cl10  Cl    Cl    0.771929 0.584319 0.743961 -0.646274

loop_
_geom_bond_atom_site_label_1
_geom_bond_atom_site_label_2
_ccdc_geom_bond_type
C13   C19   A    
C54   C58   A    
C58   C59   A    
C59   H20   S    
C48   C63   A    
C34   C68   S    
C30   O25   S    
C45   C46   T    
C4    C6    S    
C50   Cl7   S    
C7    C8    A    
C47   C50   A    
C1    O6    A    
C5    C67   S    
C21   H2    S    
O32   H34   S    
O25   H27   S    
C56   C57   A    
O13   C68   A    
C27   C33   S    
C14   C15   A    
C55   C61   A    
C36   H14   S    
C9    Cl9   S    
C16   C17   A    
O27   H29   S    
O5    C3    A    
C18   C19   A    
V2    O10   S    
C6    C21   A    
C5    C8    A    
C22   H1    S    
V3    O20   S    
O17   V4    S    
C64   Cl6   S    
C57   H18   S    
C35   C39   S    
O8    V2    S    
C28   O22   S    
O19   C68   A    
C36   C39   S    
C8    O32   S    
C40   C41   S    
O17   V3    S    
C42   C43   S    
C39   C45   S    
C11   C15   A    
C60   C62   A    
C12   C16   A    
O7    V1    S    
C1    C46   S    
O18   V4    S    
C2    C48   S    
C58   H22   S    
O13   V3    S    
C9    C10   A    
C24   H7    S    
C3    C26   S    
C23   C28   S    
C52   C54   A    
C52   C53   A    
C47   C65   S    
O11   C66   A    
C38   C44   T    
O12   V3    S    
C29   C32   S    
O16   V4    S    
C30   C31   S    
C18   C20   A    
C23   O26   S    
C40   Cl4   S    
C12   C13   A    
O14   C66   A    
O18   C67   A    
C62   C63   A    
O4    C2    A    
C49   C50   A    
O28   H30   S    
C16   H5    S    
C35   Cl2   S    
C51   O30   S    
C63   H19   S    
C5    C9    A    
C28   H12   S    
C36   C37   S    
C23   O23   S    
C62   Cl8   S    
C41   C44   S    
O2    C1    A    
O5    V1    S    
C17   C18   A    
C7    H4    S    
C35   C40   S    
C25   H8    S    
C49   C53   A    
C54   C55   A    
O23   H25   S    
C49   H21   S    
C42   O28   S    
C29   C30   S    
C19   C22   A    
O19   V4    S    
C24   C27   S    
C55   C56   A    
C14   Cl10  S    
C6    C22   A    
O24   H26   S    
O14   V3    S    
O3    C4    A    
O1    V2    S    
O12   C65   A    
O6    V2    S    
O9    V2    S    
O26   H28   S    
C10   C12   A    
C24   C25   S    
C38   C66   S    
O2    V1    S    
O15   V3    S    
O15   C67   A    
C61   C64   A    
V4    O20   S    
C37   C41   S    
C33   C34   T    
O1    C2    A    
C47   C51   A    
C51   C52   A    
C56   O31   S    
O11   V4    S    
O8    C3    A    
C25   C29   S    
O29   H31   S    
C37   O27   S    
C35   O29   S    
C26   C32   T    
C36   H15   S    
C30   Cl1   S    
C20   C21   A    
C13   C14   A    
O4    V1    S    
O3    V1    S    
C53   C57   A    
O22   H24   S    
C43   H17   S    
C31   H10   S    
O30   H32   S    
C48   C64   A    
C23   C27   S    
C65   O16   A    
C39   C43   S    
H13   C40   S    
C20   H6    S    
O7    V2    S    
C41   C42   S    
C25   H9    S    
C31   H11   S    
C43   Cl3   S    
C37   H16   S    
C7    C11   A    
C27   C31   S    
C59   C60   A    
C42   Cl5   S    
C28   C29   S    
C17   H3    S    
O31   H33   S    
C10   C11   A    
V1    O10   S    
C60   C61   A    
O9    C4    A    
O21   H23   S    
C24   O24   S    
C15   O21   S    
