data_mof_unit_61131.cif
_audit_creation_date              2013-03-05T16:36:59-0500
_audit_creation_method            fapswitch 2.2
_symmetry_space_group_name_H-M    P1
_symmetry_Int_Tables_number       1
_space_group_crystal_system       orthorhombic
_cell_length_a                    36.242107
_cell_length_b                    25.69491
_cell_length_c                    25.679668
_cell_angle_alpha                 90.0
_cell_angle_beta                  90.0
_cell_angle_gamma                 90.0
_cell_volume                      23913.8743892

loop_
_atom_site_label
_atom_site_type_symbol
_atom_site_description
_atom_site_fract_x
_atom_site_fract_y
_atom_site_fract_z
_atom_type_partial_charge
Zn1   Zn    Zn3+2 0.719300 0.249980 0.438970 1.002045
Zn2   Zn    Zn3+2 0.280700 0.249980 0.438970 1.002505
Zn3   Zn    Zn3+2 0.280700 0.249980 0.561030 1.001984
Zn4   Zn    Zn3+2 0.719300 0.249980 0.561030 1.002415
Zn5   Zn    Zn3+2 0.219300 0.749980 0.938970 1.002528
Zn6   Zn    Zn3+2 0.780700 0.749980 0.938970 1.002118
Zn7   Zn    Zn3+2 0.780700 0.749980 0.061030 1.002517
Zn8   Zn    Zn3+2 0.219300 0.749980 0.061030 1.002028
Zn9   Zn    Zn3+2 0.780720 0.311020 0.500000 0.986134
Zn10  Zn    Zn3+2 0.219280 0.311020 0.500000 0.986142
Zn11  Zn    Zn3+2 0.280720 0.811020 0.000000 0.986120
Zn12  Zn    Zn3+2 0.719280 0.811020 0.000000 0.986049
Zn13  Zn    Zn3+2 0.780730 0.188950 0.500000 1.040617
Zn14  Zn    Zn3+2 0.219270 0.188950 0.500000 1.040530
Zn15  Zn    Zn3+2 0.280730 0.688950 0.000000 1.040491
Zn16  Zn    Zn3+2 0.719270 0.688950 0.000000 1.040544
O1    O     O_3   0.750020 0.249980 0.500000 -0.497758
O2    O     O_3   0.249980 0.249980 0.500000 -0.497748
O3    O     O_3   0.250020 0.749980 0.000000 -0.497750
O4    O     O_3   0.749980 0.749980 0.000000 -0.497761
O5    O     O_R   0.728520 0.310110 0.602800 -0.616645
O6    O     O_R   0.271480 0.310110 0.602800 -0.616905
O7    O     O_R   0.271480 0.310110 0.397200 -0.616665
O8    O     O_R   0.728520 0.310110 0.397200 -0.616785
O9    O     O_R   0.228520 0.810110 0.102800 -0.616858
O10   O     O_R   0.771480 0.810110 0.102800 -0.616708
O11   O     O_R   0.771480 0.810110 0.897200 -0.616910
O12   O     O_R   0.228520 0.810110 0.897200 -0.616636
O13   O     O_R   0.728520 0.189860 0.397190 -0.639428
O14   O     O_R   0.271480 0.189860 0.397190 -0.639204
O15   O     O_R   0.271480 0.189860 0.602810 -0.639598
O16   O     O_R   0.728520 0.189860 0.602810 -0.639082
O17   O     O_R   0.228520 0.689860 0.897190 -0.639159
O18   O     O_R   0.771480 0.689860 0.897190 -0.639566
O19   O     O_R   0.771480 0.689860 0.102810 -0.639318
O20   O     O_R   0.228520 0.689860 0.102810 -0.639540
O21   O     O_R   0.771490 0.352810 0.439870 -0.639972
O22   O     O_R   0.228510 0.352810 0.439870 -0.639770
O23   O     O_R   0.228510 0.352810 0.560130 -0.639901
O24   O     O_R   0.771490 0.352810 0.560130 -0.639859
O25   O     O_R   0.271490 0.852810 0.939870 -0.639800
O26   O     O_R   0.728510 0.852810 0.939870 -0.639857
O27   O     O_R   0.728510 0.852810 0.060130 -0.639783
O28   O     O_R   0.271490 0.852810 0.060130 -0.639934
O29   O     O_R   0.771530 0.147160 0.560090 -0.609111
O30   O     O_R   0.228470 0.147160 0.560090 -0.609236
O31   O     O_R   0.228470 0.147160 0.439910 -0.608971
O32   O     O_R   0.771530 0.147160 0.439910 -0.609242
O33   O     O_R   0.271530 0.647160 0.060090 -0.609290
O34   O     O_R   0.728470 0.647160 0.060090 -0.608863
O35   O     O_R   0.728470 0.647160 0.939910 -0.609114
O36   O     O_R   0.271530 0.647160 0.939910 -0.609030
O37   O     O_R   0.832000 0.292700 0.500000 -0.644733
O38   O     O_R   0.168000 0.292700 0.500000 -0.644800
O39   O     O_R   0.332000 0.792700 0.000000 -0.644804
O40   O     O_R   0.668000 0.792700 0.000000 -0.644808
O41   O     O_R   0.668030 0.249990 0.542720 -0.632426
O42   O     O_R   0.331970 0.249990 0.542720 -0.631826
O43   O     O_R   0.331970 0.249990 0.457280 -0.632386
O44   O     O_R   0.668030 0.249990 0.457280 -0.631970
O45   O     O_R   0.168030 0.749990 0.042720 -0.631835
O46   O     O_R   0.831970 0.749990 0.042720 -0.632231
O47   O     O_R   0.831970 0.749990 0.957280 -0.631861
O48   O     O_R   0.168030 0.749990 0.957280 -0.632396
O49   O     O_R   0.832010 0.207260 0.500000 -0.608337
O50   O     O_R   0.167990 0.207260 0.500000 -0.608406
O51   O     O_R   0.332010 0.707260 0.000000 -0.608379
O52   O     O_R   0.667990 0.707260 0.000000 -0.608548
C1    C     C_R   0.749994 0.349062 0.599080 0.821339
C2    C     C_R   0.250005 0.349061 0.599081 0.821061
C3    C     C_R   0.250006 0.349062 0.400920 0.821429
C4    C     C_R   0.749994 0.349061 0.400919 0.821057
C5    C     C_R   0.249994 0.849061 0.099081 0.821057
C6    C     C_R   0.750006 0.849062 0.099080 0.821341
C7    C     C_R   0.750006 0.849061 0.900919 0.821074
C8    C     C_R   0.249994 0.849062 0.900920 0.821430
C9    C     C_R   0.750023 0.150911 0.400948 0.816282
C10   C     C_R   0.249977 0.150911 0.400949 0.816792
C11   C     C_R   0.249977 0.150911 0.599051 0.816151
C12   C     C_R   0.750023 0.150911 0.599051 0.816755
C13   C     C_R   0.250023 0.650911 0.900949 0.816795
C14   C     C_R   0.749977 0.650911 0.900948 0.816277
C15   C     C_R   0.749977 0.650911 0.099051 0.816738
C16   C     C_R   0.250023 0.650911 0.099051 0.816149
C17   C     C_R   0.849527 0.249973 0.500000 0.827504
C18   C     C_R   0.150473 0.249973 0.500000 0.827322
C19   C     C_R   0.349527 0.749974 0.000000 0.827363
C20   C     C_R   0.650473 0.749974 0.000000 0.827136
C21   C     C_R   0.650297 0.249994 0.500000 0.827994
C22   C     C_R   0.349703 0.249994 0.500000 0.828220
C23   C     C_R   0.150297 0.749994 0.000000 0.828176
C24   C     C_R   0.849703 0.749994 0.000000 0.828355
C25   C     C_3   0.521430 0.221763 0.548948 -0.380242
C26   C     C_3   0.478569 0.221763 0.548948 -0.379973
C27   C     C_3   0.478569 0.221762 0.451052 -0.380273
C28   C     C_3   0.521430 0.221762 0.451052 -0.379999
C29   C     C_3   0.021430 0.721763 0.048948 -0.379946
C30   C     C_3   0.978569 0.721763 0.048948 -0.380156
C31   C     C_3   0.978569 0.721763 0.951052 -0.379945
C32   C     C_3   0.021430 0.721763 0.951052 -0.380246
H1    H     H_    0.468328 0.180937 0.549871 0.173982
H2    H     H_    0.531672 0.180937 0.549871 0.173960
H3    H     H_    0.531672 0.180936 0.450130 0.173956
H4    H     H_    0.468328 0.180936 0.450129 0.173957
H5    H     H_    0.968328 0.680937 0.049871 0.174047
H6    H     H_    0.031672 0.680937 0.049871 0.174026
H7    H     H_    0.031672 0.680937 0.950129 0.174003
H8    H     H_    0.968328 0.680937 0.950129 0.174063
H9    H     H_    0.531672 0.241376 0.415214 0.182547
H10   H     H_    0.468328 0.241376 0.415214 0.182444
H11   H     H_    0.468328 0.241378 0.584786 0.182618
H12   H     H_    0.531672 0.241378 0.584786 0.182439
H13   H     H_    0.031672 0.741377 0.915214 0.182476
H14   H     H_    0.968328 0.741377 0.915214 0.182618
H15   H     H_    0.968328 0.741378 0.084787 0.182565
H16   H     H_    0.031672 0.741378 0.084787 0.182673
C33   C     C_1   0.389400 0.250000 0.500000 -0.119148
C34   C     C_1   0.610600 0.250000 0.500000 -0.119312
C35   C     C_1   0.889400 0.750000 0.000000 -0.119016
C36   C     C_1   0.110600 0.750000 0.000000 -0.119124
C37   C     C_3   0.536498 0.250005 0.500000 0.318821
C38   C     C_3   0.463502 0.250005 0.500000 0.318721
C39   C     C_3   0.036498 0.750006 0.000000 0.318595
C40   C     C_3   0.963502 0.750006 0.000000 0.318522
C41   C     C_3   0.478569 0.306491 0.499999 -0.377317
C42   C     C_3   0.521430 0.306491 0.499999 -0.377507
C43   C     C_3   0.978569 0.806492 0.000000 -0.377271
C44   C     C_3   0.021430 0.806492 0.000000 -0.377314
C45   C     C_1   0.422737 0.250004 0.500000 -0.107974
C46   C     C_1   0.577263 0.250004 0.500000 -0.108103
C47   C     C_1   0.922737 0.750004 0.000000 -0.107834
C48   C     C_1   0.077263 0.750004 0.000000 -0.107922
H17   H     H_    0.531672 0.327703 0.534915 0.180898
H18   H     H_    0.468328 0.327703 0.534915 0.181213
H19   H     H_    0.468328 0.327703 0.465083 0.180932
H20   H     H_    0.531672 0.327703 0.465083 0.181088
H21   H     H_    0.031672 0.827703 0.034916 0.181291
H22   H     H_    0.968328 0.827704 0.034916 0.181117
H23   H     H_    0.968328 0.827703 0.965084 0.181221
H24   H     H_    0.031672 0.827703 0.965084 0.180986
H25   H     H_    0.707414 0.074780 0.242953 0.191902
H26   H     H_    0.296010 0.070906 0.246832 0.191538
H27   H     H_    0.291375 0.075998 0.758266 0.191922
H28   H     H_    0.704336 0.071330 0.753593 0.191663
H29   H     H_    0.203652 0.570484 0.747254 0.191514
H30   H     H_    0.790622 0.576720 0.741010 0.192023
H31   H     H_    0.794891 0.572249 0.254513 0.191676
H32   H     H_    0.208423 0.575800 0.258068 0.191943
C49   C     C_R   0.224078 0.501232 0.710248 -0.254762
C50   C     C_R   0.772724 0.504715 0.706761 -0.254843
C51   C     C_R   0.775108 0.502218 0.290739 -0.254820
C52   C     C_R   0.226743 0.504201 0.292724 -0.254766
C53   C     C_R   0.726180 0.003632 0.207845 -0.254731
C54   C     C_R   0.275733 0.001468 0.210012 -0.254801
C55   C     C_R   0.273144 0.004312 0.792835 -0.254808
C56   C     C_R   0.724461 0.001705 0.790225 -0.254709
H33   H     H_    0.203657 0.502684 0.679467 0.189446
H34   H     H_    0.790617 0.508921 0.673222 0.189759
H35   H     H_    0.794886 0.504450 0.322301 0.189523
H36   H     H_    0.208428 0.508000 0.325856 0.189759
H37   H     H_    0.707419 0.006980 0.175165 0.189723
H38   H     H_    0.296005 0.003106 0.179044 0.189447
H39   H     H_    0.291370 0.008199 0.826054 0.189739
H40   H     H_    0.704341 0.003531 0.821380 0.189532
C57   C     C_R   0.250296 0.461190 0.711595 -0.088034
C58   C     C_R   0.749750 0.461139 0.711647 -0.088228
C59   C     C_R   0.749716 0.461176 0.288390 -0.088117
C60   C     C_R   0.250257 0.461147 0.288361 -0.088182
C61   C     C_R   0.750266 0.961155 0.211630 -0.088188
C62   C     C_R   0.249706 0.961187 0.211599 -0.088064
C63   C     C_R   0.249744 0.961145 0.788359 -0.088187
C64   C     C_R   0.750291 0.961183 0.788397 -0.088087
C65   C     C_R   0.276579 0.459800 0.751689 0.569716
C66   C     C_R   0.726722 0.456205 0.755289 0.569866
C67   C     C_R   0.724262 0.458783 0.247292 0.569770
C68   C     C_R   0.273828 0.456736 0.245243 0.569800
C69   C     C_R   0.774411 0.957325 0.254168 0.569805
C70   C     C_R   0.223616 0.959557 0.251933 0.569768
C71   C     C_R   0.226288 0.956622 0.745128 0.569837
C72   C     C_R   0.776184 0.959312 0.747822 0.569711
C73   C     C_R   0.774408 0.995872 0.292708 0.577257
C74   C     C_R   0.223619 0.998105 0.290473 0.577699
C75   C     C_R   0.226291 0.995169 0.706588 0.577178
C76   C     C_R   0.776181 0.997860 0.709282 0.577553
C77   C     C_R   0.276576 0.498348 0.790229 0.577648
C78   C     C_R   0.726725 0.494752 0.793829 0.577271
C79   C     C_R   0.724265 0.497330 0.208751 0.577691
C80   C     C_R   0.273825 0.495284 0.206702 0.577129
C81   C     C_R   0.750260 0.038378 0.288839 -0.091675
C82   C     C_R   0.249712 0.038410 0.288807 -0.091546
C83   C     C_R   0.249750 0.038368 0.711150 -0.091663
C84   C     C_R   0.750285 0.038406 0.711189 -0.091577
C85   C     C_R   0.250291 0.538413 0.788804 -0.091502
C86   C     C_R   0.749757 0.538362 0.788856 -0.091741
C87   C     C_R   0.749722 0.538399 0.211181 -0.091641
C88   C     C_R   0.250251 0.538369 0.211152 -0.091656
C89   C     C_R   0.726177 0.042125 0.246331 -0.253376
C90   C     C_R   0.275736 0.039961 0.248498 -0.253317
C91   C     C_R   0.273147 0.042804 0.754349 -0.253520
C92   C     C_R   0.724458 0.040198 0.751740 -0.253162
C93   C     C_R   0.224075 0.539725 0.748734 -0.253284
C94   C     C_R   0.772727 0.543208 0.745247 -0.253441
C95   C     C_R   0.775111 0.540711 0.252253 -0.253339
C96   C     C_R   0.226740 0.542694 0.254239 -0.253464
C97   C     C_1   0.250136 0.421663 0.671835 0.083948
C98   C     C_1   0.749889 0.421638 0.671860 0.084054
C99   C     C_1   0.749871 0.421656 0.328158 0.083957
C100  C     C_1   0.250115 0.421642 0.328143 0.084081
C101  C     C_1   0.750120 0.921646 0.171852 0.084080
C102  C     C_1   0.249866 0.921662 0.171836 0.083954
C103  C     C_1   0.249885 0.921641 0.828143 0.084079
C104  C     C_1   0.750132 0.921660 0.828162 0.083977
C105  C     C_1   0.750109 0.078162 0.328342 0.089218
C106  C     C_1   0.249876 0.078178 0.328327 0.089641
C107  C     C_1   0.249896 0.078156 0.671652 0.089067
C108  C     C_1   0.750122 0.078176 0.671671 0.089634
C109  C     C_1   0.250125 0.578179 0.828325 0.089636
C110  C     C_1   0.749899 0.578153 0.828351 0.089194
C111  C     C_1   0.749881 0.578172 0.171667 0.089608
C112  C     C_1   0.250105 0.578157 0.171653 0.089074
C113  C     C_1   0.750038 0.111414 0.361467 -0.101689
C114  C     C_1   0.249956 0.111420 0.361460 -0.101207
C115  C     C_1   0.249965 0.111412 0.638531 -0.101852
C116  C     C_1   0.750043 0.111420 0.638539 -0.101223
C117  C     C_1   0.250044 0.611421 0.861460 -0.101218
C118  C     C_1   0.749966 0.611410 0.861470 -0.101700
C119  C     C_1   0.749959 0.611418 0.138537 -0.101223
C120  C     C_1   0.250036 0.611412 0.138532 -0.101851
C121  C     C_1   0.250049 0.388532 0.638589 -0.113654
C122  C     C_1   0.749961 0.388522 0.638600 -0.113471
C123  C     C_1   0.749954 0.388530 0.361408 -0.113628
C124  C     C_1   0.250041 0.388524 0.361402 -0.113437
C125  C     C_1   0.750042 0.888526 0.138596 -0.113457
C126  C     C_1   0.249951 0.888532 0.138590 -0.113642
C127  C     C_1   0.249960 0.888523 0.861402 -0.113436
C128  C     C_1   0.750048 0.888531 0.861409 -0.113624
H41   H     H_    0.966154 0.331692 0.500086 0.169150
H42   H     H_    0.033846 0.331692 0.500086 0.169132
H43   H     H_    0.466154 0.831692 0.000038 0.169113
H44   H     H_    0.533845 0.831692 0.000038 0.169108
C129  C     C_R   0.019192 0.294923 0.500046 -0.214186
C130  C     C_R   0.980808 0.294923 0.500046 -0.214136
C131  C     C_R   0.519192 0.794923 0.000020 -0.214294
C132  C     C_R   0.480808 0.794923 0.000020 -0.214280
C133  C     C_R   0.038521 0.247860 0.499996 0.022640
C134  C     C_R   0.961479 0.247860 0.499996 0.022627
C135  C     C_R   0.538521 0.747860 0.999998 0.022690
C136  C     C_R   0.461479 0.747860 0.999998 0.022659
C137  C     C_R   0.019415 0.200169 0.499944 0.243665
C138  C     C_R   0.980585 0.200169 0.499944 0.243705
C139  C     C_R   0.519415 0.700169 0.999975 0.243590
C140  C     C_R   0.480585 0.700169 0.999975 0.243702
C141  C     C_1   0.078042 0.249159 0.499998 0.029099
C142  C     C_1   0.921958 0.249159 0.499997 0.029178
C143  C     C_1   0.578042 0.749159 0.999999 0.028969
C144  C     C_1   0.421958 0.749159 0.999999 0.029064
C145  C     C_1   0.888845 0.249829 0.499999 -0.094163
C146  C     C_1   0.111154 0.249829 0.499999 -0.094257
C147  C     C_1   0.388845 0.749829 0.999999 -0.094268
C148  C     C_1   0.611155 0.749829 0.999999 -0.094400
F1    F     F_    0.302140 0.421204 0.753446 -0.599666
F2    F     F_    0.704324 0.414163 0.760495 -0.599524
F3    F     F_    0.699506 0.419210 0.244559 -0.599543
F4    F     F_    0.296754 0.415203 0.240546 -0.599632
F5    F     F_    0.797894 0.916355 0.258301 -0.599587
F6    F     F_    0.198241 0.920727 0.253923 -0.599572
F7    F     F_    0.203474 0.914979 0.740322 -0.599570
F8    F     F_    0.801367 0.920247 0.745597 -0.599676
F9    F     F_    0.797888 0.991777 0.333709 -0.589640
F10   F     F_    0.198246 0.996150 0.329331 -0.589166
F11   F     F_    0.203479 0.990401 0.664913 -0.589748
F12   F     F_    0.801362 0.995670 0.670189 -0.589336
F13   F     F_    0.302135 0.496626 0.828854 -0.589264
F14   F     F_    0.704329 0.489585 0.835904 -0.589628
F15   F     F_    0.699511 0.494633 0.169150 -0.589133
F16   F     F_    0.296749 0.490625 0.165137 -0.589819
Br1   Br    Br    0.046365 0.135482 0.499873 -0.341902
Br2   Br    Br    0.953634 0.135482 0.499874 -0.341693
Br3   Br    Br    0.546365 0.635482 0.999945 -0.342590
Br4   Br    Br    0.453634 0.635481 0.999944 -0.342108

loop_
_geom_bond_atom_site_label_1
_geom_bond_atom_site_label_2
_geom_bond_distance
_ccdc_geom_bond_type
C41   H18   1.113010 S    
Zn6   O47   1.916701 S    
C80   F16   1.357876 S    
H28   C92   1.083497 S    
C52   H36   1.083499 S    
C25   C26   1.553369 S    
C4    C123  1.434561 S    
C49   C93   1.398217 A    
C39   C48   1.477424 S    
Zn2   O2    1.922442 S    
C85   C109  1.440164 S    
Zn14  O2    1.922989 S    
C97   C121  1.205643 T    
C27   C28   1.553369 S    
Zn16  O35   1.909278 S    
C8    C127  1.434560 S    
C37   C46   1.477428 S    
C99   C123  1.205644 T    
C12   C116  1.434551 S    
C31   H14   1.113010 S    
C87   C111  1.440166 S    
C29   C30   1.553369 S    
C30   H15   1.113011 S    
Zn11  O39   1.917186 S    
C139  C140  1.407288 A    
Zn14  O30   1.909276 S    
C81   C105  1.440164 S    
C15   C119  1.434553 S    
O44   C21   1.271432 A    
Zn15  O33   1.909276 S    
C30   C40   1.550731 S    
C31   H8    1.113005 S    
C14   C118  1.434553 S    
H42   C129  1.083792 S    
C112  C120  1.205639 T    
O26   C7    1.271485 A    
C130  C134  1.397528 A    
Zn7   O10   1.910324 S    
O41   C21   1.271430 A    
H41   C130  1.083792 S    
C62   C70   1.403089 A    
C55   C63   1.400950 A    
C129  C133  1.397528 A    
C53   C89   1.398217 A    
C138  Br2   1.927871 S    
O33   C16   1.271954 A    
C84   C108  1.440166 S    
C24   C35   1.438699 S    
C25   C37   1.550734 S    
Zn12  O27   1.910297 S    
C77   F13   1.357876 S    
C86   C94   1.400943 A    
O30   C11   1.271955 A    
C54   C90   1.398213 A    
C110  C118  1.205639 T    
O40   C20   1.268377 A    
C87   C95   1.400944 A    
C57   C65   1.403088 A    
C131  C132  1.391135 A    
C50   C58   1.400951 A    
C144  C147  1.200186 T    
C71   F7    1.357873 S    
C26   H11   1.113009 S    
C85   C93   1.400943 A    
C54   C62   1.400950 A    
Zn3   O2    1.922440 S    
C129  C130  1.391135 A    
Zn8   O20   1.910261 S    
C58   C98   1.440170 S    
C18   C146  1.424990 S    
Zn12  O26   1.910299 S    
C106  C114  1.205641 T    
C67   F3    1.357871 S    
O22   C3    1.271485 A    
C105  C113  1.205639 T    
C141  C146  1.200186 T    
C68   F4    1.357873 S    
C50   H34   1.083502 S    
C31   C32   1.553369 S    
C42   H17   1.113009 S    
C103  C127  1.205644 T    
C53   H37   1.083499 S    
C139  Br3   1.927872 S    
Zn5   O17   1.910261 S    
O47   C24   1.271432 A    
Zn16  O34   1.909276 S    
C35   C47   1.208189 T    
C3    C124  1.434560 S    
C76   C84   1.403095 A    
H43   C132  1.083790 S    
Zn16  O52   1.917123 S    
C43   H22   1.113009 S    
C88   C96   1.400942 A    
C33   C45   1.208189 T    
C38   C45   1.477428 S    
C65   F1    1.357871 S    
C82   C90   1.400943 A    
Zn8   O45   1.916701 S    
C57   C97   1.440168 S    
C83   C107  1.440164 S    
C41   H19   1.113009 S    
O27   C6    1.271485 A    
C84   C92   1.400943 A    
C61   C101  1.440168 S    
O39   C19   1.268376 A    
Zn8   O9    1.910324 S    
H26   C90   1.083499 S    
C81   C89   1.400943 A    
C63   C71   1.403086 A    
C56   C92   1.398215 A    
O9    C5    1.271432 A    
C73   C81   1.403095 A    
O11   C7    1.271430 A    
C70   F6    1.357871 S    
C61   C69   1.403085 A    
C98   C122  1.205641 T    
C52   C60   1.400952 A    
C78   C86   1.403095 A    
O34   C15   1.271957 A    
C68   C80   1.400196 A    
C73   F9    1.357875 S    
C51   C59   1.400948 A    
O8    C4    1.271430 A    
Zn14  O50   1.917123 S    
Zn10  O2    1.922986 S    
C58   C66   1.403084 A    
Zn8   O3    1.922440 S    
C75   F11   1.357876 S    
O24   C1    1.271485 A    
C76   F12   1.357877 S    
C71   C75   1.400198 A    
O7    C3    1.271430 A    
Zn11  O28   1.910297 S    
C49   C57   1.400950 A    
C26   H1    1.113006 S    
Zn4   O1    1.922440 S    
Zn1   O44   1.916701 S    
C19   C147  1.424990 S    
C108  C116  1.205639 T    
O38   C18   1.268377 A    
O19   C15   1.272094 A    
Zn2   O43   1.916701 S    
C11   C115  1.434555 S    
Zn13  O49   1.917123 S    
C134  C142  1.432720 S    
C142  C145  1.200186 T    
C55   H39   1.083499 S    
C133  C141  1.432720 S    
C56   C64   1.400952 A    
H44   C131  1.083790 S    
Zn6   O18   1.910261 S    
C40   C47   1.477428 S    
O5    C1    1.271430 A    
Zn10  O23   1.910297 S    
C6    C125  1.434561 S    
O43   C22   1.271432 A    
C59   C99   1.440166 S    
O32   C9    1.271955 A    
C72   F8    1.357871 S    
Zn15  O3    1.922989 S    
C44   H21   1.113009 S    
C22   C33   1.438699 S    
Zn7   O46   1.916701 S    
Zn9   O24   1.910297 S    
Zn15  O51   1.917123 S    
C34   C46   1.208189 T    
C69   F5    1.357872 S    
O16   C12   1.272097 A    
Zn5   O12   1.910324 S    
C63   C103  1.440168 S    
Zn6   O11   1.910324 S    
C62   C102  1.440168 S    
C135  C143  1.432724 S    
C136  C144  1.432720 S    
Zn16  O4    1.922989 S    
Zn11  O3    1.922986 S    
Zn12  O4    1.922986 S    
Zn9   O21   1.910299 S    
C60   C100  1.440168 S    
C137  C138  1.407292 A    
C7    C128  1.434561 S    
Zn4   O16   1.910261 S    
Zn15  O36   1.909278 S    
C29   H16   1.113011 S    
Zn3   O15   1.910261 S    
C30   H5    1.113007 S    
O35   C14   1.271954 A    
C80   C88   1.403095 A    
C5    C126  1.434561 S    
Zn12  O40   1.917183 S    
C13   C117  1.434553 S    
O42   C22   1.271430 A    
C40   C43   1.550733 S    
C29   H6    1.113004 S    
C28   C37   1.550731 S    
C27   C38   1.550733 S    
C9    C113  1.434555 S    
C74   F10   1.357878 S    
H25   C89   1.083497 S    
C10   C114  1.434551 S    
C136  C140  1.407530 A    
C82   C106  1.440164 S    
C41   C42   1.553369 S    
O52   C20   1.267907 A    
O21   C4    1.271485 A    
Zn9   O37   1.917186 S    
Zn2   O14   1.910261 S    
Zn1   O13   1.910261 S    
C43   C44   1.553373 S    
O12   C8    1.271432 A    
C26   C38   1.550732 S    
C72   C76   1.400196 A    
C55   C91   1.398217 A    
C27   H4    1.113005 S    
H32   C96   1.083499 S    
C59   C67   1.403090 A    
C134  C138  1.407531 A    
C104  C128  1.205645 T    
Zn9   O1    1.922986 S    
C60   C68   1.403085 A    
C133  C137  1.407531 A    
C143  C148  1.200186 T    
O51   C19   1.267907 A    
C32   H7    1.113004 S    
O18   C14   1.272097 A    
O6    C2    1.271432 A    
C88   C112  1.440164 S    
C42   H20   1.113008 S    
C79   C87   1.403094 A    
C36   C48   1.208192 T    
O48   C23   1.271432 A    
Zn7   O19   1.910261 S    
C54   H38   1.083502 S    
C32   H13   1.113009 S    
C75   C83   1.403093 A    
C83   C91   1.400943 A    
C64   C104  1.440166 S    
C27   H10   1.113010 S    
C107  C115  1.205639 T    
C25   H2    1.113003 S    
O50   C18   1.267907 A    
Zn13  O32   1.909278 S    
O37   C17   1.268376 A    
C78   F14   1.357877 S    
O49   C17   1.267907 A    
Zn14  O31   1.909278 S    
Zn5   O3    1.922442 S    
C135  C139  1.407530 A    
C70   C74   1.400196 A    
H27   C91   1.083502 S    
C28   H9    1.113008 S    
Zn1   O1    1.922442 S    
C51   C95   1.398215 A    
O36   C13   1.271955 A    
Zn10  O22   1.910299 S    
C65   C77   1.400196 A    
C32   C39   1.550730 S    
C111  C119  1.205637 T    
C38   C41   1.550733 S    
H31   C95   1.083498 S    
C56   H40   1.083500 S    
C44   H24   1.113007 S    
C2    C121  1.434561 S    
C37   C42   1.550733 S    
H30   C94   1.083499 S    
C16   C120  1.434553 S    
C1    C122  1.434562 S    
C66   C78   1.400196 A    
O25   C8    1.271483 A    
Zn13  O29   1.909276 S    
Zn4   O5    1.910324 S    
H29   C93   1.083497 S    
C64   C72   1.403088 A    
C39   C44   1.550732 S    
C109  C117  1.205641 T    
O17   C13   1.272095 A    
Zn6   O4    1.922442 S    
O20   C16   1.272097 A    
C69   C73   1.400198 A    
O10   C6    1.271432 A    
O23   C2    1.271483 A    
C137  Br1   1.927871 S    
Zn11  O25   1.910299 S    
O29   C12   1.271954 A    
C86   C110  1.440163 S    
C102  C126  1.205643 T    
C140  Br4   1.927873 S    
O28   C5    1.271483 A    
Zn10  O38   1.917183 S    
C131  C135  1.397527 A    
C101  C125  1.205642 T    
C20   C148  1.424990 S    
C25   H12   1.113008 S    
O15   C11   1.272095 A    
Zn13  O1    1.922989 S    
O14   C10   1.272097 A    
Zn3   O42   1.916701 S    
C132  C136  1.397529 A    
O13   C9    1.272095 A    
C21   C34   1.438699 S    
Zn5   O48   1.916701 S    
Zn1   O8    1.910324 S    
C29   C39   1.550732 S    
Zn7   O4    1.922440 S    
C28   H3    1.113008 S    
C53   C61   1.400951 A    
Zn2   O7    1.910324 S    
C50   C94   1.398215 A    
C23   C36   1.438699 S    
C52   C96   1.398215 A    
Zn3   O6    1.910324 S    
C77   C85   1.403095 A    
C100  C124  1.205644 T    
C74   C82   1.403096 A    
O31   C10   1.271954 A    
C17   C145  1.424990 S    
C66   F2    1.357874 S    
O46   C24   1.271430 A    
C49   H33   1.083499 S    
C43   H23   1.113007 S    
C67   C79   1.400195 A    
O45   C23   1.271430 A    
Zn4   O41   1.916701 S    
C51   H35   1.083500 S    
C31   C40   1.550731 S    
C79   F15   1.357880 S    
