data_mof_unit_45501.cif
_audit_creation_date              2012-12-11T14:08:32-0500
_audit_creation_method            fapswitch 2.2
_symmetry_space_group_name_H-M    P1
_symmetry_Int_Tables_number       1
_space_group_crystal_system       triclinic
_cell_length_a                    28.180973
_cell_length_b                    7.180555
_cell_length_c                    17.27615
_cell_angle_alpha                 89.917046
_cell_angle_beta                  101.796376
_cell_angle_gamma                 90.031202
_cell_volume                      3422.07947724

loop_
_atom_site_label
_atom_site_type_symbol
_atom_type_description
_atom_site_fract_x
_atom_site_fract_y
_atom_site_fract_z
_atom_type_partial_charge
O1    O     O_R   0.000700 0.436510 0.857920 -0.517621
O2    O     O_R   0.999300 0.563490 0.142080 -0.517612
O3    O     O_R   0.999300 0.936510 0.642080 -0.517818
O4    O     O_R   0.000700 0.063490 0.357920 -0.517860
O5    O     O_R   0.930080 0.766380 0.721890 -0.548376
O6    O     O_R   0.069920 0.233620 0.278110 -0.548372
O7    O     O_R   0.069920 0.266380 0.778110 -0.548286
O8    O     O_R   0.930080 0.733620 0.221890 -0.548233
C1    C     C_R   0.910563 0.597619 0.708863 0.725491
C2    C     C_R   0.089437 0.402382 0.291119 0.725507
C3    C     C_R   0.089445 0.097627 0.791104 0.724822
C4    C     C_R   0.910555 0.902378 0.208937 0.724780
O9    O     O_R   0.996180 0.766230 0.862310 -0.527106
O10   O     O_R   0.003820 0.233770 0.137690 -0.527064
O11   O     O_R   0.003820 0.266230 0.637690 -0.527121
O12   O     O_R   0.996180 0.733770 0.362310 -0.527113
O13   O     O_R   0.065870 0.936460 0.783500 -0.542018
O14   O     O_R   0.934130 0.063540 0.216500 -0.542012
O15   O     O_R   0.934130 0.436460 0.716500 -0.541349
O16   O     O_R   0.065870 0.563540 0.283500 -0.541309
C5    C     C_R   0.998904 0.595911 0.894401 0.679072
C6    C     C_R   0.001099 0.404089 0.105600 0.679218
C7    C     C_R   0.001128 0.096021 0.605577 0.677708
C8    C     C_R   0.998871 0.903979 0.394422 0.677611
O17   O     O_3   0.022790 0.603020 0.723980 -0.374969
O18   O     O_3   0.977210 0.396980 0.276020 -0.375040
O19   O     O_3   0.977210 0.103020 0.776020 -0.374310
O20   O     O_3   0.022790 0.896980 0.223980 -0.374266
V1    V     V_3+5 0.995770 0.877900 0.754830 1.445293
V2    V     V_3+5 0.004230 0.122100 0.245170 1.445372
V3    V     V_3+5 0.004230 0.377900 0.745170 1.445720
V4    V     V_3+5 0.995770 0.622100 0.254830 1.445828
C9    C     C_2   0.995476 0.081613 0.518212 0.125344
C10   C     C_2   0.004522 0.918382 0.481788 0.125362
C11   C     C_2   0.004566 0.581530 0.981731 0.124553
C12   C     C_2   0.995442 0.418469 0.018271 0.124360
C13   C     C_R   0.684366 0.018265 0.032112 0.627434
C14   C     C_R   0.315661 0.987525 0.969218 0.624691
C15   C     C_R   0.318797 0.361253 0.463381 0.657315
C16   C     C_R   0.681347 0.636124 0.535662 0.656478
O21   O     O_2   0.714617 0.075307 0.985541 -0.500628
O22   O     O_2   0.285441 0.935710 0.016697 -0.502164
O23   O     O_2   0.291450 0.270212 0.506880 -0.500263
O24   O     O_2   0.708797 0.724772 0.491632 -0.500778
N1    N     N_R   0.702986 0.944953 0.105277 -0.540336
N2    N     N_R   0.297011 0.055503 0.895099 -0.540091
N3    N     N_R   0.297139 0.443221 0.393395 -0.542158
N4    N     N_R   0.702895 0.556703 0.606264 -0.541916
C17   C     C_R   0.672920 0.884941 0.153283 0.661490
C18   C     C_R   0.327050 0.110292 0.846166 0.663666
C19   C     C_R   0.324161 0.538434 0.348836 0.632291
C20   C     C_R   0.675780 0.464006 0.651420 0.632752
C21   C     C_R   0.782695 0.095820 0.147765 -0.160602
C22   C     C_R   0.217156 0.904346 0.855073 -0.160547
C23   C     C_R   0.216681 0.592970 0.364283 -0.155131
C24   C     C_R   0.783309 0.406792 0.636016 -0.156056
C25   C     C_R   0.833051 0.085915 0.172913 -0.202406
C26   C     C_R   0.166808 0.914136 0.829794 -0.202309
C27   C     C_R   0.166296 0.583498 0.339388 -0.199544
C28   C     C_R   0.833689 0.416283 0.660995 -0.199434
C29   C     C_R   0.828694 0.749083 0.168126 -0.284613
C30   C     C_R   0.171443 0.251006 0.829642 -0.284706
C31   C     C_R   0.171952 0.251058 0.319414 -0.286944
C32   C     C_R   0.828071 0.749140 0.679920 -0.286731
C33   C     C_R   0.778252 0.759348 0.142730 0.685078
C34   C     C_R   0.221884 0.240865 0.855079 0.684763
C35   C     C_R   0.222442 0.260860 0.344133 0.687202
C36   C     C_R   0.777587 0.739319 0.655081 0.686831
C37   C     C_R   0.754907 0.933039 0.132338 0.254828
C38   C     C_R   0.245086 0.067216 0.868022 0.255187
C39   C     C_R   0.245151 0.432067 0.366997 0.250968
C40   C     C_R   0.754871 0.567894 0.632719 0.251958
C41   C     C_R   0.602266 0.972138 0.053122 -0.045362
C42   C     C_R   0.397734 0.028488 0.947288 -0.045260
C43   C     C_R   0.397834 0.470655 0.446005 -0.047119
C44   C     C_R   0.602213 0.529180 0.553604 -0.046822
C45   C     C_R   0.633844 0.033372 0.004848 -0.041206
C46   C     C_R   0.366184 0.972434 0.996492 -0.040471
C47   C     C_R   0.369383 0.373016 0.490748 -0.049899
C48   C     C_R   0.630765 0.624268 0.508250 -0.049616
C49   C     C_R   0.614458 0.108500 0.930511 -0.108136
C50   C     C_R   0.385604 0.903084 0.071868 -0.108697
C51   C     C_R   0.391870 0.289893 0.561934 -0.118353
C52   C     C_R   0.608394 0.704447 0.436351 -0.118669
C53   C     C_R   0.622169 0.896957 0.128065 -0.048563
C54   C     C_R   0.377802 0.098440 0.871406 -0.049120
C55   C     C_R   0.374825 0.553982 0.374290 -0.041595
C56   C     C_R   0.625118 0.448443 0.625950 -0.041553
C57   C     C_R   0.856826 0.912328 0.183361 -0.137599
C58   C     C_R   0.143172 0.087696 0.816809 -0.137490
C59   C     C_R   0.143162 0.412276 0.316739 -0.138466
C60   C     C_R   0.856840 0.587719 0.683173 -0.138293
H1    H     H_    0.845639 0.613099 0.175144 0.150448
H2    H     H_    0.154621 0.387012 0.820592 0.150602
H3    H     H_    0.155531 0.117056 0.302157 0.155349
H4    H     H_    0.844501 0.883323 0.696784 0.155037
H5    H     H_    0.637884 0.157495 0.892249 0.180305
H6    H     H_    0.362210 0.859731 0.111145 0.180069
H7    H     H_    0.370911 0.213543 0.597496 0.176297
H8    H     H_    0.629466 0.777959 0.400109 0.176588
C61   C     C_R   0.480302 0.073250 0.923459 0.039373
C62   C     C_R   0.519684 0.925176 0.076558 0.039444
C63   C     C_R   0.522789 0.416942 0.573140 0.037003
C64   C     C_R   0.477215 0.583986 0.426724 0.037066
C65   C     C_R   0.468422 0.941581 0.050432 0.035557
C66   C     C_R   0.531590 0.061348 0.950395 0.035515
C67   C     C_R   0.528495 0.597632 0.453455 0.037646
C68   C     C_R   0.471599 0.401020 0.545861 0.037601
C69   C     C_R   0.449046 0.014409 0.973848 0.068281
C70   C     C_R   0.550954 0.986255 0.026571 0.068426
C71   C     C_R   0.550937 0.514570 0.526626 0.067623
C72   C     C_R   0.449112 0.485233 0.472969 0.067662
C73   C     C_R   0.458853 0.141794 0.847352 -0.167265
C74   C     C_R   0.541090 0.849067 0.151306 -0.168268
C75   C     C_R   0.547146 0.338620 0.645817 -0.171734
C76   C     C_R   0.452708 0.666133 0.354969 -0.172590
C77   C     C_R   0.408810 0.153978 0.822128 -0.125870
C78   C     C_R   0.591128 0.835731 0.176323 -0.126912
C79   C     C_R   0.597097 0.354153 0.671409 -0.115836
C80   C     C_R   0.402734 0.651151 0.329518 -0.115712
O25   O     O_2   0.307926 0.174490 0.773001 -0.499378
O26   O     O_2   0.692017 0.815420 0.225536 -0.500339
O27   O     O_2   0.697693 0.387871 0.721020 -0.495181
O28   O     O_2   0.302155 0.617047 0.279822 -0.494689
C81   C     C_R   0.564568 0.122539 0.903796 -0.171952
C82   C     C_R   0.435488 0.887964 0.098391 -0.171604
C83   C     C_R   0.441751 0.303163 0.588960 -0.172287
C84   C     C_R   0.558494 0.691661 0.409435 -0.172310
H9    H     H_    0.146491 0.785224 0.820639 0.153332
H10   H     H_    0.853264 0.214756 0.184054 0.153680
H11   H     H_    0.854444 0.289018 0.662364 0.150773
H12   H     H_    0.145519 0.710593 0.338469 0.150654
H13   H     H_    0.234565 0.769631 0.864698 0.218080
H14   H     H_    0.765168 0.230551 0.140181 0.217948
H15   H     H_    0.766314 0.273846 0.618675 0.208608
H16   H     H_    0.233658 0.725752 0.382014 0.208169
H17   H     H_    0.394504 0.207484 0.763314 0.160059
H18   H     H_    0.605403 0.776567 0.234123 0.160121
H19   H     H_    0.613706 0.291242 0.727453 0.163826
H20   H     H_    0.386013 0.716910 0.274162 0.164011
H21   H     H_    0.479568 0.186672 0.804915 0.108863
H22   H     H_    0.520330 0.796811 0.192421 0.109850
H23   H     H_    0.528832 0.264094 0.685142 0.109360
H24   H     H_    0.470875 0.744397 0.316543 0.109820
H25   H     H_    0.553276 0.183642 0.846094 0.113997
H26   H     H_    0.446823 0.834275 0.157424 0.113373
H27   H     H_    0.455574 0.233845 0.644173 0.113364
H28   H     H_    0.544818 0.757203 0.353308 0.113169
O29   O     O_3   0.979725 0.239453 0.473891 -0.541261
C85   C     C_3   0.929228 0.259113 0.468748 0.130772
H29   H     H_    0.919221 0.252456 0.527881 0.093268
H30   H     H_    0.909337 0.148079 0.430291 0.098308
C86   C     C_3   0.912741 0.447674 0.432872 -0.623187
H31   H     H_    0.919276 0.457579 0.371881 0.227163
H32   H     H_    0.873348 0.465579 0.430665 0.164413
H33   H     H_    0.932758 0.560838 0.469452 0.232686
O30   O     O_3   0.020267 0.760534 0.526107 -0.541284
C87   C     C_3   0.070763 0.740832 0.531245 0.130794
H34   H     H_    0.090660 0.851817 0.569723 0.098651
H35   H     H_    0.080772 0.747540 0.472115 0.093085
C88   C     C_3   0.087237 0.552223 0.567085 -0.622636
H36   H     H_    0.067218 0.439110 0.530476 0.232550
H37   H     H_    0.126630 0.534299 0.569299 0.164589
H38   H     H_    0.080694 0.542250 0.628070 0.227255
O31   O     O_3   0.020295 0.739392 0.025896 -0.542204
C89   C     C_3   0.070788 0.759300 0.031025 0.131330
H39   H     H_    0.080772 0.753212 0.971875 0.097036
H40   H     H_    0.090695 0.648042 0.069434 0.102287
C90   C     C_3   0.087269 0.947640 0.066966 -0.615432
H41   H     H_    0.126663 0.965732 0.069192 0.172851
H42   H     H_    0.067253 0.061020 0.030419 0.230575
H43   H     H_    0.080727 0.956998 0.127955 0.226390
O32   O     O_3   0.979720 0.260598 0.974108 -0.542291
C91   C     C_3   0.929224 0.240713 0.968944 0.131441
H44   H     H_    0.909328 0.351908 0.930481 0.102528
H45   H     H_    0.919219 0.246929 0.028076 0.097656
C92   C     C_3   0.912754 0.052309 0.933059 -0.615267
H46   H     H_    0.932759 0.938992 0.969661 0.230565
H47   H     H_    0.873355 0.034241 0.930800 0.172965
H48   H     H_    0.919319 0.042819 0.872086 0.226372
F1    F     F_    0.752135 0.600189 0.127066 -0.680316
F2    F     F_    0.248143 0.400209 0.868235 -0.681422
F3    F     F_    0.249321 0.103805 0.345217 -0.667687
F4    F     F_    0.750721 0.896568 0.653379 -0.669038

loop_
_geom_bond_atom_site_label_1
_geom_bond_atom_site_label_2
_ccdc_geom_bond_type
C52   C84   A    
C89   H40   S    
O1    C5    A    
O31   C89   S    
C23   C27   A    
O19   V1    S    
O13   V1    S    
C90   H41   S    
O3    C7    A    
C11   C12   D    
C48   C52   A    
C21   C37   A    
C24   H15   S    
C42   C69   A    
C88   H36   S    
C82   H26   S    
O4    V2    S    
C41   C70   A    
C9    O29   S    
C33   F1    S    
O32   C91   S    
O7    C3    A    
C66   C81   A    
C43   C72   A    
O30   C87   S    
C25   C57   A    
C65   C82   A    
C32   C36   A    
C63   C71   A    
O10   V2    S    
C67   C84   A    
C14   O22   S    
N4    C20   A    
C22   C26   A    
O4    C8    A    
C20   O27   S    
C29   H1    S    
C26   H9    S    
C61   C69   A    
C23   H16   S    
C31   H3    S    
O1    V3    S    
C61   C73   A    
C28   H11   S    
C62   C65   A    
O2    V4    S    
O3    V1    S    
C46   C50   A    
C91   H44   S    
C50   C82   A    
C87   C88   S    
C64   C76   A    
C1    O15   A    
C36   F4    S    
C68   C83   A    
C2    O16   A    
C24   C40   A    
C85   C86   S    
O2    C6    A    
C16   C48   A    
C63   C68   A    
C80   H20   S    
C45   C49   A    
C86   H32   S    
C44   C56   A    
C36   C40   A    
C68   C72   A    
O11   C7    A    
C34   F2    S    
O15   V3    S    
C12   O32   S    
O12   C8    A    
C76   H24   S    
C87   H35   S    
C19   O28   S    
C50   H6    S    
C31   C59   A    
C18   O25   S    
N4    C40   S    
C1    C60   S    
C88   H37   S    
C29   C57   A    
O5    V1    S    
C28   C60   A    
C31   C35   A    
C27   H12   S    
O7    V3    S    
C30   C34   A    
N1    C37   S    
O8    V4    S    
C17   C53   A    
C4    C57   S    
C20   C56   A    
C32   H4    S    
C19   C55   A    
C64   C72   A    
C21   C25   A    
O18   V4    S    
C84   H28   S    
N3    C19   A    
C14   C46   A    
C7    C9    S    
C22   H13   S    
C13   C45   A    
C8    C10   S    
C76   C80   A    
C86   H33   S    
C15   C47   A    
C63   C75   A    
N2    C38   S    
O5    C1    A    
C62   C74   A    
C25   H10   S    
C22   C38   A    
N1    C17   A    
O8    C4    A    
C92   H48   S    
N3    C39   S    
C9    C10   D    
O9    C5    A    
C27   C59   A    
C42   C54   A    
C56   C79   A    
C26   C58   A    
C91   C92   S    
C41   C53   A    
C74   C78   A    
C35   F3    S    
C73   C77   A    
C43   C55   A    
O6    V2    S    
C2    C59   S    
C75   C79   A    
C30   H2    S    
C89   H39   S    
C90   H43   S    
C85   H30   S    
C62   C70   A    
C32   C60   A    
C13   N1    A    
C74   H22   S    
C88   H38   S    
C15   N3    A    
O16   V4    S    
O9    V1    S    
C61   C66   A    
C16   N4    A    
C65   C69   A    
C3    O13   A    
C49   C81   A    
C67   C71   A    
O17   V3    S    
C77   H17   S    
C21   H14   S    
C44   C48   A    
C51   C83   A    
O6    C2    A    
C52   H8    S    
C15   O23   S    
O11   V3    S    
C5    C11   S    
O12   V4    S    
C6    C12   S    
N2    C18   A    
C79   H19   S    
O10   C6    A    
O20   V2    S    
C55   C80   A    
C81   H25   S    
O29   C85   S    
C47   C51   A    
C3    C58   S    
C87   H34   S    
C49   H5    S    
C44   C71   A    
C33   C37   A    
C17   O26   S    
C30   C58   A    
C11   O31   S    
C92   H47   S    
C54   C77   A    
C35   C39   A    
C73   H21   S    
C75   H23   S    
C13   O21   S    
C53   C78   A    
C91   H45   S    
C14   N2    A    
C18   C54   A    
O14   V2    S    
C10   O30   S    
C29   C33   A    
C16   O24   S    
C24   C28   A    
C34   C38   A    
C89   C90   S    
C66   C70   A    
C92   H46   S    
C42   C46   A    
C4    O14   A    
C41   C45   A    
C85   H29   S    
C51   H7    S    
C86   H31   S    
C78   H18   S    
C43   C47   A    
C64   C67   A    
C23   C39   A    
C83   H27   S    
C90   H42   S    
