data_mof_unit_10999.cif
_audit_creation_date              2012-12-10T20:49:48-0500
_audit_creation_method            fapswitch 2.2
_symmetry_space_group_name_H-M    P1
_symmetry_Int_Tables_number       1
_space_group_crystal_system       triclinic
_cell_length_a                    8.092977
_cell_length_b                    8.921255
_cell_length_c                    16.945191
_cell_angle_alpha                 89.986658
_cell_angle_beta                  87.095571
_cell_angle_gamma                 90.046522
_cell_volume                      1221.8624932

loop_
_atom_site_label
_atom_site_type_symbol
_atom_type_description
_atom_site_fract_x
_atom_site_fract_y
_atom_site_fract_z
_atom_type_partial_charge
Br1   Br    Br    0.205038 0.676591 0.099914 -0.511885
Br2   Br    Br    0.826838 0.525225 0.906166 -0.515495
C1    C     C_R   0.500071 0.782074 0.499903 0.946037
C2    C     C_R   0.398602 0.577745 0.225573 -0.264631
C3    C     C_R   0.636695 0.455032 0.853290 0.297150
C4    C     C_R   0.383569 0.569454 0.144889 0.273496
C5    C     C_R   0.519244 0.358127 0.889581 0.088717
C6    C     C_R   0.494206 0.479837 0.099761 0.093331
C7    C     C_R   0.387011 0.303626 0.848205 -0.193107
C8    C     C_R   0.624248 0.405277 0.135029 -0.187284
C9    C     C_R   0.367005 0.350008 0.770671 -0.021133
C10   C     C_R   0.639392 0.412388 0.216361 -0.024336
C11   C     C_2   0.512063 0.345162 0.974661 -0.197710
C12   C     C_R   0.500007 0.217964 0.499816 0.931593
C13   C     C_2   0.479281 0.470695 0.015133 -0.084372
C14   C     C_R   0.771356 0.324027 0.252128 0.118784
C15   C     C_R   0.938450 0.359427 0.234970 -0.121907
C16   C     C_R   0.063081 0.278225 0.270048 -0.113823
C17   C     C_R   0.021777 0.160832 0.322043 -0.099442
C18   C     C_R   0.855798 0.123611 0.338556 -0.104609
C19   C     C_R   0.730823 0.204377 0.303522 -0.107286
C20   C     C_R   0.236870 0.277929 0.725869 0.127456
C21   C     C_R   0.078449 0.341315 0.724695 -0.089861
C22   C     C_R   0.956156 0.272035 0.681995 -0.130825
C23   C     C_1   0.500212 0.934846 0.499677 -0.230982
C24   C     C_R   0.991363 0.139794 0.640271 -0.104257
C25   C     C_R   0.148829 0.075902 0.641575 -0.106481
C26   C     C_R   0.271391 0.144539 0.684346 -0.145922
C27   C     C_1   0.500121 0.065243 0.499626 -0.234066
C28   C     C_R   0.480391 0.493405 0.652900 0.878643
C29   C     C_R   0.519734 0.499948 0.347062 0.874752
C30   C     C_R   0.479082 0.455899 0.736186 -0.123779
C31   C     C_R   0.523338 0.498165 0.261759 -0.125536
C32   C     C_R   0.613647 0.505993 0.777804 -0.281522
H1    H     H_    0.297217 0.228722 0.877049 0.176919
H2    H     H_    0.823938 0.032347 0.378611 0.139356
H3    H     H_    0.602647 0.174568 0.316798 0.103761
H4    H     H_    0.050304 0.444302 0.756341 0.167408
H5    H     H_    0.834096 0.320600 0.681176 0.161939
H6    H     H_    0.896564 0.086780 0.607074 0.138105
H7    H     H_    0.175961 0.973333 0.609384 0.144413
H8    H     H_    0.393204 0.094402 0.684826 0.121779
H9    H     H_    0.713001 0.340187 0.099340 0.177893
H10   H     H_    0.703781 0.582683 0.750744 0.183700
H11   H     H_    0.310295 0.644677 0.260504 0.186776
H12   H     H_    0.446255 0.572263 0.984003 0.205795
H13   H     H_    0.535888 0.238721 0.003025 0.170505
H14   H     H_    0.971848 0.450817 0.195248 0.181999
H15   H     H_    0.191664 0.306375 0.257064 0.149370
H16   H     H_    0.118385 0.098508 0.349364 0.135089
N1    N     N_1   0.926360 0.500000 0.499990 -0.035098
N2    N     N_1   0.073640 0.500000 0.500010 -0.031655
O1    O     O_R   0.363150 0.714660 0.500000 -0.621929
O2    O     O_R   0.636850 0.285340 0.500000 -0.623217
O3    O     O_R   0.636850 0.714660 0.500000 -0.617533
O4    O     O_R   0.363150 0.285340 0.500000 -0.609378
O5    O     O_R   0.346950 0.500000 0.615800 -0.607799
O6    O     O_R   0.653050 0.500000 0.384200 -0.601021
O7    O     O_R   0.620700 0.500000 0.615800 -0.638302
O8    O     O_R   0.379300 0.500000 0.384200 -0.627946
Zn1   Zn    Zn3+2 0.317220 0.500000 0.500010 0.982741
Zn2   Zn    Zn3+2 0.682780 0.500000 0.499990 0.976616

loop_
_geom_bond_atom_site_label_1
_geom_bond_atom_site_label_2
_ccdc_geom_bond_type
C29   O8    A    
O6    Zn2   S    
C12   O4    A    
C21   C22   A    
C29   C31   S    
O5    Zn1   S    
C14   C19   A    
C21   H4    S    
C7    C9    A    
C25   H7    S    
C9    C20   S    
C1    O3    A    
C17   C18   A    
C15   H14   S    
C5    C11   S    
N2    Zn1   S    
C3    C32   A    
C15   C16   A    
C8    H9    S    
C19   H3    S    
N1    N2    T    
C20   C26   A    
C28   O7    A    
C28   C30   S    
C1    O1    A    
C17   H16   S    
C24   H6    S    
C24   C25   A    
C14   C15   A    
N1    Zn2   S    
C8    C10   A    
C29   O6    A    
C2    C4    A    
C12   O2    A    
C22   C24   A    
C9    C30   A    
C6    C13   S    
C3    C5    A    
C2    H11   S    
C11   C13   D    
C23   C27   T    
C7    H1    S    
Br2   C3    S    
C12   C27   S    
Br1   C4    S    
C18   H2    S    
O3    Zn2   S    
C5    C7    A    
C1    C23   S    
C22   H5    S    
C32   H10   S    
C18   C19   A    
C6    C8    A    
C16   C17   A    
C26   H8    S    
C25   C26   A    
C11   H13   S    
O4    Zn1   S    
O8    Zn1   S    
O7    Zn2   S    
C4    C6    A    
O2    Zn2   S    
C13   H12   S    
C10   C31   A    
C2    C31   A    
O1    Zn1   S    
C20   C21   A    
C10   C14   S    
C16   H15   S    
C28   O5    A    
C30   C32   A    
