data_mof_unit_21818.cif
_audit_creation_date              2013-03-05T16:49:24-0500
_audit_creation_method            fapswitch 2.2
_symmetry_space_group_name_H-M    P1
_symmetry_Int_Tables_number       1
_space_group_crystal_system       triclinic
_cell_length_a                    10.78071
_cell_length_b                    16.104198
_cell_length_c                    17.306663
_cell_angle_alpha                 95.435971
_cell_angle_beta                  91.316475
_cell_angle_gamma                 92.405801
_cell_volume                      2987.44402813

loop_
_atom_site_label
_atom_site_type_symbol
_atom_site_description
_atom_site_fract_x
_atom_site_fract_y
_atom_site_fract_z
_atom_type_partial_charge
O1    O     O_R   0.494030 0.420280 0.382610 -0.554972
O2    O     O_R   0.505970 0.579720 0.617390 -0.551120
O3    O     O_R   0.504770 0.563150 0.389400 -0.581551
O4    O     O_R   0.495230 0.436850 0.610600 -0.582013
C1    C     C_R   0.497977 0.490057 0.349948 0.822084
C2    C     C_R   0.501660 0.509898 0.650028 0.821470
O5    O     O_R   0.314270 0.428570 0.496610 -0.551356
O6    O     O_R   0.685730 0.571430 0.503390 -0.552561
O7    O     O_R   0.325020 0.571440 0.503400 -0.526444
O8    O     O_R   0.674980 0.428560 0.496600 -0.525563
C3    C     C_R   0.262825 0.500342 0.501641 0.801164
C4    C     C_R   0.737232 0.499703 0.498746 0.797381
Cu1   Cu    Cu3+1 0.493640 0.415410 0.495980 1.021858
Cu2   Cu    Cu3+1 0.506360 0.584590 0.504020 1.025028
C5    C     C_R   0.251503 0.662005 0.725291 0.484409
C6    C     C_R   0.754432 0.335542 0.274651 0.493219
C7    C     C_R   0.184361 0.602854 0.673003 -0.352583
C8    C     C_R   0.811579 0.396526 0.329714 -0.351099
H1    H     H_    0.171415 0.538639 0.685802 0.152097
H2    H     H_    0.814486 0.461834 0.319538 0.145168
C9    C     C_R   0.135398 0.626023 0.602805 0.042853
C10   C     C_R   0.866335 0.373285 0.398255 0.053160
C11   C     C_R   0.155030 0.707988 0.583645 -0.142445
C12   C     C_R   0.862060 0.289239 0.412982 -0.160885
H3    H     H_    0.118763 0.726297 0.529194 0.203915
H4    H     H_    0.905427 0.270418 0.465259 0.200039
C13   C     C_R   0.225947 0.765780 0.633306 -0.302938
C14   C     C_R   0.800899 0.229138 0.360590 -0.312544
H5    H     H_    0.244225 0.828265 0.617028 0.209257
H6    H     H_    0.798538 0.164370 0.372583 0.209130
C15   C     C_R   0.274136 0.743264 0.703890 0.480022
C16   C     C_R   0.744340 0.252186 0.292285 0.488675
C17   C     C_R   0.938833 0.562240 0.544545 -0.232570
C18   C     C_R   0.061325 0.437848 0.456717 -0.237836
H7    H     H_    0.891075 0.609217 0.580174 0.189468
H8    H     H_    0.109191 0.390954 0.421168 0.183548
C19   C     C_R   0.871268 0.499481 0.497886 -0.075220
C20   C     C_R   0.128833 0.500654 0.502996 -0.072948
C21   C     C_R   0.932650 0.436870 0.453141 0.052905
C22   C     C_R   0.067631 0.563088 0.548025 0.049229
C23   C     C_R   0.490718 0.487579 0.265589 -0.134836
C24   C     C_R   0.508744 0.512056 0.734310 -0.141774
C25   C     C_R   0.530872 0.557995 0.229887 -0.339949
C26   C     C_R   0.465449 0.442286 0.769852 -0.313697
C27   C     C_R   0.517521 0.559765 0.149524 0.465896
C28   C     C_R   0.481692 0.439456 0.849378 0.451971
C29   C     C_R   0.462531 0.489340 0.105149 -0.057293
C30   C     C_R   0.535507 0.509593 0.894821 -0.062311
C31   C     C_R   0.423157 0.418093 0.140563 0.462426
C32   C     C_R   0.577662 0.580366 0.859636 0.470518
C33   C     C_R   0.436075 0.418041 0.221062 -0.201395
C34   C     C_R   0.565697 0.580638 0.779102 -0.198534
C35   C     C_2   0.450165 0.488168 0.020766 -0.088119
C36   C     C_2   0.546904 0.510290 0.979113 -0.135556
H9    H     H_    0.569567 0.612492 0.264959 0.168177
H10   H     H_    0.421011 0.388846 0.735799 0.181019
H11   H     H_    0.601330 0.634126 0.751839 0.176768
H12   H     H_    0.401653 0.364290 0.248626 0.178011
H13   H     H_    0.634628 0.532498 0.007436 0.183823
H14   H     H_    0.362518 0.465583 0.992507 0.199304
N1    N     N_R   0.515930 0.711660 0.510070 -0.265278
N2    N     N_R   0.484070 0.288340 0.489930 -0.264284
C37   C     C_R   0.430119 0.747866 0.465747 0.484811
C38   C     C_R   0.570106 0.251960 0.533873 0.497468
C39   C     C_R   0.421516 0.835299 0.472491 0.172877
C40   C     C_R   0.578024 0.164596 0.527278 0.182230
C41   C     C_R   0.507706 0.884759 0.520721 -0.095564
C42   C     C_R   0.490769 0.115303 0.479805 -0.099003
C43   C     C_R   0.596245 0.846115 0.563772 -0.384254
C44   C     C_R   0.402053 0.154050 0.436954 -0.434312
C45   C     C_R   0.598583 0.757830 0.559277 0.637571
C46   C     C_R   0.399773 0.242510 0.441550 0.617529
C47   C     C_2   0.503511 0.976979 0.530512 -0.012997
C48   C     C_2   0.495077 0.023113 0.469867 -0.029950
H15   H     H_    0.489110 0.992875 0.411140 0.178901
H16   H     H_    0.509714 0.007335 0.589205 0.184705
H17   H     H_    0.662195 0.885509 0.600127 0.198568
H18   H     H_    0.337884 0.114268 0.399669 0.202085
O9    O     O_3   0.349299 0.799873 0.750439 -0.578496
C49   C     C_3   0.273547 0.846306 0.802150 -0.317383
H19   H     H_    0.222927 0.805329 0.840380 0.174330
H20   H     H_    0.206931 0.882713 0.770397 0.165830
H21   H     H_    0.333722 0.891468 0.840048 0.191937
O10   O     O_3   0.688142 0.192459 0.238593 -0.558455
C50   C     C_3   0.576149 0.162824 0.268825 -0.321921
H22   H     H_    0.515400 0.214980 0.287266 0.165394
H23   H     H_    0.594122 0.124493 0.317710 0.175558
H24   H     H_    0.524863 0.122028 0.222467 0.190125
O11   O     O_3   0.366112 0.350375 0.096477 -0.587422
C51   C     C_3   0.449328 0.284999 0.089568 -0.208841
H25   H     H_    0.538967 0.305306 0.064967 0.176555
H26   H     H_    0.407331 0.233431 0.049043 0.173811
H27   H     H_    0.465887 0.259758 0.146305 0.180871
O12   O     O_3   0.635650 0.647618 0.903825 -0.603256
C52   C     C_3   0.551447 0.712224 0.913520 -0.218904
H28   H     H_    0.595431 0.764154 0.952780 0.171955
H29   H     H_    0.464791 0.691097 0.941102 0.192891
H30   H     H_    0.529234 0.737285 0.857332 0.201040
O13   O     O_3   0.441479 0.368601 0.882432 -0.567793
C53   C     C_3   0.540694 0.314400 0.883534 -0.295602
H31   H     H_    0.620147 0.343142 0.920325 0.152066
H32   H     H_    0.571677 0.295276 0.823841 0.149682
H33   H     H_    0.508260 0.257008 0.909106 0.190867
O14   O     O_3   0.543586 0.632235 0.114031 -0.571141
C54   C     C_3   0.664556 0.665323 0.134482 -0.311243
H34   H     H_    0.733678 0.615931 0.136173 0.137228
H35   H     H_    0.664834 0.704703 0.190737 0.166509
H36   H     H_    0.694506 0.706294 0.089711 0.208067
O15   O     O_3   0.340949 0.697232 0.423326 -0.549972
C55   C     C_3   0.351074 0.703872 0.342873 -0.183602
H37   H     H_    0.442526 0.730404 0.325670 0.129238
H38   H     H_    0.274559 0.740700 0.322283 0.209089
H39   H     H_    0.336887 0.640638 0.311890 0.167443
O16   O     O_3   0.659826 0.302263 0.576089 -0.540121
C56   C     C_3   0.648011 0.296758 0.656606 -0.212621
H40   H     H_    0.722257 0.258634 0.678068 0.208051
H41   H     H_    0.555157 0.272241 0.673494 0.125679
H42   H     H_    0.664277 0.360081 0.687122 0.163397
O17   O     O_3   0.319286 0.286828 0.398072 -0.551596
C57   C     C_3   0.231942 0.236719 0.350606 -0.378449
H43   H     H_    0.172169 0.278271 0.320040 0.193091
H44   H     H_    0.170147 0.199299 0.386007 0.191838
H45   H     H_    0.278747 0.196833 0.305132 0.162804
O18   O     O_3   0.684369 0.714756 0.599775 -0.550657
C58   C     C_3   0.732516 0.760053 0.668449 -0.366777
H46   H     H_    0.780043 0.716256 0.703731 0.184997
H47   H     H_    0.657715 0.788158 0.704289 0.185981
H48   H     H_    0.803858 0.807907 0.654821 0.181528
N3    N     N_R   0.683000 0.127574 0.560372 0.131000
O19   O     O_R   0.769464 0.098767 0.515394 -0.360346
O20   O     O_R   0.682674 0.110531 0.632343 -0.410535
N4    N     N_R   0.317364 0.872228 0.438274 0.128762
O21   O     O_R   0.319411 0.888710 0.366167 -0.411295
O22   O     O_R   0.230750 0.902308 0.482434 -0.358504
O23   O     O_3   0.304537 0.642143 0.794774 -0.580329
C59   C     C_3   0.223011 0.591657 0.834933 -0.358295
H49   H     H_    0.226074 0.525174 0.811575 0.184565
H50   H     H_    0.126098 0.613088 0.834003 0.160812
H51   H     H_    0.255186 0.595653 0.896575 0.190870
O24   O     O_3   0.699027 0.355193 0.205834 -0.573734
C60   C     C_3   0.776226 0.410091 0.167390 -0.341749
H52   H     H_    0.874803 0.391891 0.167316 0.170243
H53   H     H_    0.768824 0.475454 0.193008 0.160117
H54   H     H_    0.743350 0.407641 0.105963 0.179828

loop_
_geom_bond_atom_site_label_1
_geom_bond_atom_site_label_2
_geom_bond_distance
_ccdc_geom_bond_type
C40   C42   1.402938 A    
C28   O13   1.382294 S    
C37   C39   1.408932 A    
C13   H5    1.081833 S    
C47   C48   1.345675 D    
C43   H17   1.081579 S    
C52   H28   1.109115 S    
C31   C33   1.397011 A    
O16   C56   1.412975 S    
C52   H30   1.112486 S    
O23   C59   1.411266 S    
C29   C31   1.405914 A    
O2    C2    1.304882 A    
C35   C36   1.336507 D    
C30   C36   1.460095 S    
C54   H35   1.110313 S    
O1    C1    1.304410 A    
C12   H4    1.083235 S    
C60   H53   1.109598 S    
C44   H18   1.081365 S    
C42   C48   1.481117 S    
C56   H40   1.107416 S    
O4    Cu1   1.980582 S    
N1    C37   1.371727 A    
C27   C29   1.408950 A    
C4    C19   1.445573 S    
C43   C45   1.417823 A    
C55   H37   1.116008 S    
N2    C38   1.370968 A    
C17   H7    1.084675 S    
Cu1   N2    2.037250 S    
C57   H44   1.112356 S    
N4    O21   1.300702 A    
C39   C41   1.403857 A    
C58   H48   1.110901 S    
C32   C34   1.397219 A    
C41   C47   1.481443 S    
C11   C13   1.395682 A    
C18   H8    1.083699 S    
C57   H45   1.111863 S    
C29   C35   1.461676 S    
C40   N3    1.433823 S    
N1    C45   1.364403 A    
C30   C32   1.406088 A    
C8    C10   1.402181 A    
Cu1   Cu2   2.712387 S    
C23   C25   1.399627 A    
C6    O24   1.389229 S    
C24   C26   1.399574 A    
C59   H51   1.109361 S    
O14   C54   1.412332 S    
C35   H14   1.086519 S    
C26   C28   1.388702 A    
C36   H13   1.086123 S    
C50   H23   1.111665 S    
C16   O10   1.382591 S    
C54   H36   1.109243 S    
C28   C30   1.409477 A    
C17   C22   1.387900 A    
C38   O16   1.383907 S    
C48   H15   1.083909 S    
C13   C15   1.401498 A    
C18   C21   1.386534 A    
C45   O18   1.394252 S    
C14   C16   1.405714 A    
O24   C60   1.411408 S    
C49   H20   1.113442 S    
C60   H54   1.109470 S    
C32   O12   1.383077 S    
C56   H41   1.116019 S    
C50   H22   1.114121 S    
Cu2   N1    2.037247 S    
C53   H33   1.108992 S    
C17   C19   1.400236 A    
C41   C43   1.399476 A    
C38   C40   1.407090 A    
C37   O15   1.384333 S    
C3    C20   1.445473 S    
O5    C3    1.299258 A    
O7    Cu2   1.957225 S    
C27   O14   1.390893 S    
O7    C3    1.299805 A    
C26   H10   1.083418 S    
C51   H26   1.109065 S    
O13   C53   1.409581 S    
O6    C4    1.298972 A    
C56   H42   1.108283 S    
C53   H32   1.112615 S    
N2    C46   1.365033 A    
C33   H12   1.083501 S    
O10   C50   1.409701 S    
C5    C15   1.406537 A    
C25   C27   1.398055 A    
C55   H39   1.107982 S    
O3    Cu2   1.980584 S    
O8    C4    1.300248 A    
C59   H50   1.114229 S    
C9    C11   1.399917 A    
C58   H46   1.109229 S    
C47   H16   1.084121 S    
C10   C12   1.399900 A    
O4    C2    1.301221 A    
O1    Cu1   1.971127 S    
C39   N4    1.434350 S    
C57   H43   1.109264 S    
C51   H27   1.111276 S    
C49   H21   1.109253 S    
N3    O19   1.300488 A    
C50   H24   1.109172 S    
C25   H9    1.081372 S    
C5    C7    1.413846 A    
C1    C23   1.456942 S    
O6    Cu2   1.954306 S    
C18   C20   1.397171 A    
C6    C8    1.413198 A    
C12   C14   1.395123 A    
C31   O11   1.383513 S    
C49   H19   1.113609 S    
O3    C1    1.302044 A    
O8    Cu1   1.957227 S    
O17   C57   1.409871 S    
C52   H29   1.113985 S    
C15   O9    1.380406 S    
C6    C16   1.404927 A    
C54   H34   1.114473 S    
C14   H6    1.081995 S    
C19   C21   1.409206 A    
O15   C55   1.412895 S    
C20   C22   1.408702 A    
C51   H25   1.113941 S    
C9    C22   1.477747 S    
C10   C21   1.478171 S    
C46   O17   1.397227 S    
C53   H31   1.113182 S    
C7    H1    1.081977 S    
C8    H2    1.082014 S    
C11   H3    1.083173 S    
O12   C52   1.409932 S    
O2    Cu2   1.971125 S    
C55   H38   1.107590 S    
C34   H11   1.081527 S    
O9    C49   1.408930 S    
O5    Cu1   1.954304 S    
C5    O23   1.389925 S    
N4    O22   1.300492 A    
C2    C24   1.455936 S    
C58   H47   1.113700 S    
C42   C44   1.399741 A    
C59   H49   1.110134 S    
C44   C46   1.420529 A    
O11   C51   1.409943 S    
C60   H52   1.114196 S    
C23   C33   1.398275 A    
C24   C34   1.398826 A    
O18   C58   1.410569 S    
N3    O20   1.300646 A    
C7    C9    1.402420 A    
