data_mof_unit_43850.cif
_audit_creation_date              2012-12-10T17:29:21-0500
_audit_creation_method            fapswitch 2.2
_symmetry_space_group_name_H-M    P1
_symmetry_Int_Tables_number       1
_space_group_crystal_system       triclinic
_cell_length_a                    12.170147
_cell_length_b                    12.977651
_cell_length_c                    13.295162
_cell_angle_alpha                 87.342906
_cell_angle_beta                  112.95236
_cell_angle_gamma                 91.058423
_cell_volume                      1931.51248666

loop_
_atom_site_label
_atom_site_type_symbol
_atom_type_description
_atom_site_fract_x
_atom_site_fract_y
_atom_site_fract_z
_atom_type_partial_charge
C1    C     C_R   0.478838 0.299486 0.498472 0.976974
C2    C     C_R   0.602520 0.466897 0.828015 -0.179233
C3    C     C_R   0.545173 0.807604 0.538373 -0.359453
C4    C     C_R   0.565025 0.486162 0.707983 0.938428
C5    C     C_R   0.467281 0.187541 0.502212 -0.175872
C6    C     C_R   0.349650 0.031163 0.476076 0.501855
C7    C     C_R   0.354854 0.138248 0.474415 -0.182664
C8    C     C_R   0.572106 0.128540 0.538083 -0.129479
C9    C     C_R   0.567738 0.021294 0.549170 -0.103022
C10   C     C_R   0.455248 0.973442 0.520027 -0.105430
C11   C     C_R   0.449565 0.867423 0.534380 0.442325
C12   C     C_R   0.540056 0.502672 0.974200 -0.130386
C13   C     C_R   0.660179 0.852378 0.573802 0.399378
C14   C     C_R   0.672152 0.959758 0.586101 -0.088575
C15   C     C_R   0.022795 0.625201 0.443118 0.355049
C16   C     C_R   0.524573 0.699043 0.512090 0.932566
C17   C     C_R   0.136584 0.609592 0.437853 -0.079876
C18   C     C_R   0.145771 0.440355 0.513983 -0.002145
C19   C     C_R   0.027998 0.450788 0.514322 -0.016370
C20   C     C_R   0.968547 0.545827 0.482463 -0.157240
C21   C     C_R   0.854937 0.559549 0.488603 0.024090
C22   C     C_R   0.853542 0.386592 0.548645 -0.111594
C23   C     C_R   0.513214 0.465158 0.870746 -0.134518
C24   C     C_R   0.969801 0.369247 0.548290 0.515639
C25   C     C_R   0.433686 0.500617 0.291518 0.895903
C26   C     C_R   0.241060 0.521470 0.983623 -0.090964
C27   C     C_R   0.393344 0.499336 0.170809 -0.245094
C28   C     C_R   0.723439 0.468180 0.903327 -0.231185
C29   C     C_R   0.749381 0.511874 0.006128 0.422965
C30   C     C_R   0.653734 0.543586 0.031526 0.422373
C31   C     C_2   0.176799 0.496694 0.136363 1.041271
C32   C     C_3   0.796192 0.750892 0.706674 -0.149339
C33   C     C_3   0.212704 0.981791 0.313463 -0.141122
C34   C     C_R   0.450677 0.500937 0.016325 -0.008026
C35   C     C_2   0.792119 0.004052 0.644920 0.882676
C36   C     C_2   0.239229 0.192722 0.441354 0.969406
C37   C     C_3   0.889852 0.726646 0.306880 -0.198710
C38   C     C_3   0.989315 0.208363 0.640055 -0.127490
C39   C     C_2   0.177727 0.691763 0.379705 1.050317
C40   C     C_3   0.199816 0.609346 0.720357 -0.312804
C41   C     C_2   0.113887 0.536564 0.908986 1.005158
C42   C     C_2   0.577186 0.405830 0.184787 0.929658
C43   C     C_2   0.815134 0.405117 0.885952 1.003399
C44   C     C_3   0.632461 0.710266 0.063578 -0.336317
C45   C     C_R   0.330280 0.505163 0.943034 -0.105735
C46   C     C_3   0.891175 0.482643 0.179539 -0.161579
C47   C     C_2   0.368951 0.335577 0.752333 0.942388
C48   C     C_3   0.369008 0.827749 0.658782 -0.210181
C49   C     C_R   0.305303 0.480397 0.833894 0.506056
C50   C     C_R   0.395034 0.433224 0.811583 -0.055961
C51   C     C_R   0.479179 0.481146 0.127505 0.051902
C52   C     C_R   0.272996 0.516578 0.098046 -0.126495
H1    H     H_    0.657321 0.166635 0.557342 0.181369
H2    H     H_    0.120466 0.952495 0.271913 0.212787
H3    H     H_    0.274301 0.929508 0.296512 0.131188
H4    H     H_    0.895255 0.091107 0.768985 0.333023
H5    H     H_    0.120535 0.292988 0.338678 0.326589
H6    H     H_    0.932641 0.703536 0.251078 0.174775
H7    H     H_    0.859564 0.807601 0.283842 0.199672
H8    H     H_    0.809800 0.678786 0.294967 0.191661
H9    H     H_    0.990243 0.248887 0.712431 0.177024
H10   H     H_    0.052775 0.142969 0.670872 0.219653
H11   H     H_    0.900400 0.175442 0.592529 0.155417
H12   H     H_    0.809748 0.633044 0.465542 0.206230
H13   H     H_    0.252744 0.731439 0.272571 0.319286
H14   H     H_    0.256046 0.622327 0.672273 0.182075
H15   H     H_    0.231651 0.659403 0.792145 0.142569
H16   H     H_    0.107654 0.634762 0.669926 0.220665
H17   H     H_    0.969669 0.482226 0.786668 0.341989
H18   H     H_    0.629389 0.257130 0.205917 0.341555
H19   H     H_    0.976310 0.335908 0.954182 0.361316
H20   H     H_    0.645839 0.765457 0.128560 0.189725
H21   H     H_    0.535523 0.710434 0.010678 0.169584
H22   H     H_    0.685317 0.738393 0.015764 0.173089
H23   H     H_    0.805121 0.324699 0.569677 0.154474
H24   H     H_    0.986114 0.494059 0.232372 0.161870
H25   H     H_    0.872711 0.398317 0.173454 0.152100
H26   H     H_    0.843677 0.518659 0.224368 0.210254
H27   H     H_    0.256591 0.216055 0.699442 0.367163
H28   H     H_    0.284418 0.805586 0.666869 0.192577
H29   H     H_    0.390752 0.907169 0.689276 0.158606
H30   H     H_    0.439622 0.772668 0.710457 0.111947
H31   H     H_    0.193125 0.368625 0.541685 0.211982
H32   H     H_    0.083477 0.384185 0.177143 0.351589
H33   H     H_    0.873565 0.699126 0.724146 0.209861
H34   H     H_    0.724330 0.704005 0.718511 0.114163
H35   H     H_    0.824996 0.812968 0.766551 0.157597
H36   H     H_    0.215124 0.060109 0.276544 0.133920
N1    N     N_R   0.798200 0.480260 0.519790 -0.121310
N2    N     N_R   0.201820 0.519740 0.480210 -0.173487
O1    O     O_R   0.579910 0.341070 0.505280 -0.631530
O2    O     O_R   0.162902 0.396216 0.171480 -0.760219
O3    O     O_3   0.760743 0.791915 0.598408 -0.557105
O4    O     O_3   0.240198 0.982993 0.427110 -0.509572
O5    O     O_2   0.877479 0.975858 0.626383 -0.572036
O6    O     O_R   0.808316 0.073434 0.726969 -0.806018
O7    O     O_2   0.172617 0.169717 0.487894 -0.566182
O8    O     O_R   0.202097 0.263685 0.352691 -0.768635
O9    O     O_3   0.969263 0.721630 0.417511 -0.557888
O10   O     O_3   0.025712 0.273334 0.571201 -0.584000
O11   O     O_2   0.155066 0.781602 0.386555 -0.530314
O12   O     O_R   0.388440 0.353740 0.492580 -0.599633
O13   O     O_R   0.232077 0.668025 0.309190 -0.764999
O14   O     O_3   0.198273 0.503281 0.749167 -0.577197
O15   O     O_2   0.063831 0.617442 0.908691 -0.625882
O16   O     O_R   0.051916 0.459035 0.839312 -0.751740
O17   O     O_2   0.674461 0.434557 0.248637 -0.634248
O18   O     O_R   0.556886 0.301325 0.163170 -0.801167
O19   O     O_2   0.790097 0.358399 0.802069 -0.612779
O20   O     O_R   0.926849 0.389624 0.970597 -0.764594
O21   O     O_3   0.671664 0.611924 0.113134 -0.612538
O22   O     O_3   0.866272 0.531554 0.075488 -0.528919
O23   O     O_R   0.643280 0.490550 0.663120 -0.598595
O24   O     O_2   0.445340 0.293676 0.730093 -0.636253
O25   O     O_R   0.260334 0.285661 0.732176 -0.760036
O26   O     O_3   0.352071 0.822951 0.547921 -0.520277
O27   O     O_R   0.451810 0.503220 0.650420 -0.642251
O28   O     O_R   0.611560 0.646260 0.507420 -0.592785
O29   O     O_R   0.420090 0.658930 0.494720 -0.575988
O30   O     O_R   0.548190 0.496780 0.349580 -0.586119
O31   O     O_R   0.356720 0.509450 0.336880 -0.548131
O32   O     O_2   0.105434 0.564373 0.128825 -0.542670
Zn1   Zn    Zn3+2 0.627850 0.491540 0.508480 1.010637
Zn2   Zn    Zn3+2 0.372150 0.508460 0.491520 1.012199

loop_
_geom_bond_atom_site_label_1
_geom_bond_atom_site_label_2
_ccdc_geom_bond_type
C33   H3    S    
C47   O24   D    
H27   O25   S    
C7    C36   S    
C29   O22   S    
C19   C20   A    
C31   C52   S    
C33   O4    S    
C49   O14   S    
C46   H24   S    
C21   N1    A    
C35   O6    S    
C47   O25   S    
C12   C23   A    
C34   C51   A    
C41   O15   D    
C1    C5    S    
C46   O22   S    
C28   C29   A    
C33   H36   S    
C16   O28   A    
H5    O8    S    
H19   O20   S    
C48   H29   S    
C15   C17   A    
C18   C19   A    
C17   C39   S    
C21   H12   S    
C26   C45   A    
C8    C9    A    
O31   Zn2   S    
C40   H15   S    
C36   O7    D    
C43   O20   S    
C9    C10   A    
C37   H6    S    
C3    C13   A    
O30   Zn1   S    
C42   C51   S    
C48   O26   S    
C38   H9    S    
C32   O3    S    
C1    O1    A    
O1    Zn1   S    
C13   C14   A    
C22   H23   S    
O12   Zn2   S    
C27   C51   A    
C39   O11   D    
C47   C50   S    
C15   C20   A    
C41   O16   S    
C18   N2    A    
C4    O23   A    
C38   O10   S    
C16   O29   A    
C14   C35   S    
C5    C7    A    
C23   C50   A    
N1    Zn1   S    
C6    O4    S    
O29   Zn2   S    
C32   H35   S    
C13   O3    S    
C2    C4    S    
C9    C14   A    
C29   C30   A    
C26   C52   A    
C40   O14   S    
O23   Zn1   S    
C45   C49   A    
C32   H34   S    
C18   H31   S    
C34   C45   A    
C44   H22   S    
C11   O26   S    
C37   H7    S    
C49   C50   A    
C22   C24   A    
C4    O27   A    
H13   O13   S    
C12   C34   A    
C25   O30   A    
C37   O9    S    
C27   C52   A    
C46   H26   S    
C38   H11   S    
C42   O17   D    
C33   H2    S    
H4    O6    S    
C12   C30   A    
C24   O10   S    
N2    Zn2   S    
O27   Zn2   S    
C17   N2    A    
C31   O32   D    
C15   O9    S    
C8    H1    S    
C6    C10   A    
C5    C8    A    
C36   O8    S    
H17   O16   S    
C39   O13   S    
C6    C7    A    
C35   O5    D    
C25   C27   S    
C46   H25   S    
H32   O2    S    
C28   C43   S    
C30   O21   S    
C48   H28   S    
C19   C24   A    
H18   O18   S    
C25   O31   A    
C32   H33   S    
C40   H14   S    
C22   N1    A    
C48   H30   S    
C44   H20   S    
O28   Zn1   S    
C44   H21   S    
C37   H8    S    
C3    C11   A    
C10   C11   A    
C44   O21   S    
C20   C21   A    
C31   O2    S    
C40   H16   S    
C2    C23   A    
C2    C28   A    
C43   O19   D    
C42   O18   S    
C1    O12   A    
C3    C16   S    
C26   C41   S    
C38   H10   S    
