data_mof_unit_67936.cif
_audit_creation_date              2013-03-05T16:22:14-0500
_audit_creation_method            fapswitch 2.2
_symmetry_space_group_name_H-M    P1
_symmetry_Int_Tables_number       1
_space_group_crystal_system       triclinic
_cell_length_a                    10.68196
_cell_length_b                    10.596285
_cell_length_c                    9.932706
_cell_angle_alpha                 91.189668
_cell_angle_beta                  88.932989
_cell_angle_gamma                 91.456176
_cell_volume                      1123.48447602

loop_
_atom_site_label
_atom_site_type_symbol
_atom_site_description
_atom_site_fract_x
_atom_site_fract_y
_atom_site_fract_z
_atom_type_partial_charge
O1    O     O_R   0.500010 0.313960 0.616610 -0.577942
O2    O     O_R   0.499990 0.686040 0.383390 -0.529705
O3    O     O_R   0.500060 0.313950 0.383350 -0.562161
O4    O     O_R   0.499940 0.686050 0.616650 -0.612524
C1    C     C_R   0.498660 0.258104 0.499068 1.034886
C2    C     C_R   0.498519 0.741636 0.501520 1.015560
O5    O     O_R   0.313930 0.499970 0.616610 -0.550309
O6    O     O_R   0.686070 0.500030 0.383390 -0.535862
O7    O     O_R   0.313980 0.499960 0.383350 -0.627422
O8    O     O_R   0.686020 0.500040 0.616650 -0.662130
C3    C     C_R   0.257419 0.499537 0.500234 0.897371
C4    C     C_R   0.742076 0.503713 0.498626 0.882209
Zn1   Zn    Zn3+2 0.499970 0.500010 0.655740 1.039370
Zn2   Zn    Zn3+2 0.500030 0.499990 0.344260 1.113736
C5    C     C_3   0.032355 0.408145 0.566482 0.584501
C6    C     C_3   0.964571 0.602194 0.424514 0.581033
C7    C     C_3   0.954264 0.396284 0.438570 -0.285645
C8    C     C_3   0.044301 0.614244 0.552180 -0.367781
H1    H     H_    0.913961 0.307980 0.393405 0.178422
H2    H     H_    0.089666 0.697841 0.600185 0.171851
C9    C     C_3   0.877514 0.506833 0.494635 -0.061058
C10   C     C_3   0.121248 0.502273 0.497700 -0.084841
C11   C     C_3   0.954795 0.518699 0.622743 -0.355326
C12   C     C_3   0.043264 0.493071 0.367440 -0.270705
H3    H     H_    0.912796 0.534316 0.723631 0.161023
H4    H     H_    0.082879 0.487078 0.263671 0.161324
C13   C     C_3   0.606804 0.045210 0.544683 0.360290
C14   C     C_3   0.386169 0.953686 0.459582 0.432190
C15   C     C_3   0.588491 0.957356 0.421657 0.436601
C16   C     C_3   0.404243 0.041867 0.582564 0.431102
C17   C     C_3   0.496445 0.876371 0.504787 -0.481239
C18   C     C_3   0.496531 0.122932 0.498713 -0.514931
C19   C     C_3   0.514480 0.963728 0.628068 0.400842
C20   C     C_3   0.478011 0.035005 0.376087 0.476519
C21   C     C_3   0.452736 0.395246 0.047557 0.219535
C22   C     C_3   0.548386 0.602547 0.954743 0.264431
C23   C     C_3   0.564846 0.408532 0.949235 0.245814
C24   C     C_3   0.436293 0.591157 0.051252 0.340732
N1    N     N_3   0.499910 0.500030 0.863290 -0.210611
N2    N     N_3   0.500090 0.499970 0.136710 -0.181160
C25   C     C_3   0.387559 0.486989 0.954484 0.330259
C26   C     C_3   0.611963 0.512301 0.047103 0.484306
O9    O     O_3   0.072023 0.301795 0.636355 -0.603779
C27   C     C_3   0.990537 0.278558 0.747494 0.112613
H5    H     H_    0.995697 0.177239 0.772803 0.173376
H6    H     H_    0.890339 0.293996 0.724083 0.183309
C28   C     C_3   0.034258 0.358828 0.868509 -0.385806
H7    H     H_    0.114356 0.313259 0.910858 0.274572
H8    H     H_    0.066362 0.453697 0.836921 0.290483
C29   C     C_3   0.934996 0.376950 0.977103 -0.851110
H9    H     H_    0.853728 0.421301 0.932772 0.321316
H10   H     H_    0.971991 0.441215 0.057318 0.279616
H11   H     H_    0.908239 0.286044 0.022528 0.267639
O10   O     O_3   0.911416 0.696880 0.347076 -0.596078
C30   C     C_3   0.991326 0.804626 0.338571 0.114514
H12   H     H_    0.970404 0.850857 0.242402 0.180246
H13   H     H_    0.091882 0.779895 0.331295 0.164245
C31   C     C_3   0.966457 0.896979 0.457560 -0.285962
H14   H     H_    0.871602 0.878636 0.501839 0.278622
H15   H     H_    0.035932 0.883872 0.536898 0.207294
C32   C     C_3   0.977059 0.034694 0.417259 -0.737421
H16   H     H_    0.072265 0.056412 0.376267 0.280602
H17   H     H_    0.961134 0.096109 0.507386 0.296021
H18   H     H_    0.905267 0.055163 0.341884 0.269565
F1    F     F_    0.684901 0.907778 0.344643 -0.645006
F2    F     F_    0.309743 0.088384 0.665174 -0.629510
F3    F     F_    0.721591 0.094863 0.583847 -0.695330
F4    F     F_    0.273560 0.903488 0.415426 -0.677123
F5    F     F_    0.530016 0.922104 0.756309 -0.669621
F6    F     F_    0.453117 0.074407 0.249399 -0.641456
O11   O     O_3   0.651186 0.326116 0.886993 -0.640509
C33   C     C_3   0.611245 0.199247 0.894978 0.194059
H19   H     H_    0.654488 0.148467 0.808623 0.228636
H20   H     H_    0.508884 0.185824 0.882391 0.160198
C34   C     C_3   0.659468 0.140189 0.022750 -0.433618
H21   H     H_    0.762972 0.140214 0.018666 0.201822
H22   H     H_    0.630079 0.194596 0.113964 0.306177
C35   C     C_3   0.614594 0.003793 0.033046 -0.628785
H23   H     H_    0.511649 0.994547 0.032636 0.294033
H24   H     H_    0.650652 0.962448 0.124762 0.312777
H25   H     H_    0.650995 0.949483 0.947163 0.306350
O12   O     O_3   0.380659 0.697197 0.114455 -0.565670
C36   C     C_3   0.269968 0.729700 0.049670 0.084200
H26   H     H_    0.222394 0.800488 0.115266 0.166544
H27   H     H_    0.202917 0.648057 0.041653 0.171319
C37   C     C_3   0.298102 0.790265 0.912806 -0.239819
H28   H     H_    0.356948 0.876742 0.928053 0.269230
H29   H     H_    0.348744 0.724512 0.844235 0.280945
C38   C     C_3   0.178521 0.825467 0.844531 -0.949025
H30   H     H_    0.116323 0.740553 0.832671 0.264641
H31   H     H_    0.201160 0.864153 0.743652 0.313564
H32   H     H_    0.130098 0.898279 0.905999 0.268494
O13   O     O_3   0.414350 0.283552 0.113239 -0.576489
C39   C     C_3   0.316584 0.216757 0.047931 0.190175
H33   H     H_    0.345169 0.117740 0.033364 0.197291
H34   H     H_    0.298413 0.249334 0.945018 0.151303
C40   C     C_3   0.199772 0.216286 0.139433 -0.271463
H35   H     H_    0.226648 0.200335 0.245256 0.273508
H36   H     H_    0.155977 0.309835 0.136970 0.204568
C41   C     C_3   0.105947 0.112332 0.097200 -1.027567
H37   H     H_    0.092143 0.110998 0.986911 0.267068
H38   H     H_    0.014254 0.128405 0.147690 0.264809
H39   H     H_    0.140072 0.018943 0.126649 0.285036
O14   O     O_3   0.601311 0.715984 0.904538 -0.574881
C42   C     C_3   0.718819 0.693503 0.840753 0.261509
H40   H     H_    0.713577 0.720768 0.733711 0.187708
H41   H     H_    0.744677 0.592724 0.838544 0.102328
C43   C     C_3   0.824245 0.769305 0.911053 -0.371646
H42   H     H_    0.793105 0.800998 0.013276 0.277625
H43   H     H_    0.905012 0.707248 0.925975 0.200290
C44   C     C_3   0.869697 0.882679 0.828579 -0.943825
H44   H     H_    0.921193 0.951484 0.894119 0.260464
H45   H     H_    0.791262 0.931962 0.782523 0.318660
H46   H     H_    0.932478 0.849892 0.745839 0.258809
F7    F     F_    0.271433 0.477814 0.899375 -0.707828
F8    F     F_    0.728981 0.529880 0.102266 -0.641404

loop_
_geom_bond_atom_site_label_1
_geom_bond_atom_site_label_2
_geom_bond_distance
_ccdc_geom_bond_type
C16   C18   1.536050 S    
C30   H12   1.111442 S    
O13   C39   1.407466 S    
C13   C15   1.533144 S    
C22   C26   1.519842 S    
C44   H44   1.109585 S    
O7    Zn2   2.017836 S    
C40   H35   1.112168 S    
N1    C25   1.495378 S    
C23   O11   1.411644 S    
C13   C19   1.536238 S    
O5    C3    1.313848 A    
C42   H41   1.109475 S    
C6    C9    1.525861 S    
O1    C1    1.298112 A    
C14   F4    1.378280 S    
C12   H4    1.108095 S    
C37   H29   1.108017 S    
C31   H15   1.105727 S    
C23   C26   1.533958 S    
C43   H42   1.110546 S    
O4    Zn1   2.017109 S    
C32   H17   1.108876 S    
C5    C10   1.522892 S    
C28   H7    1.088579 S    
C29   H10   1.109162 S    
C17   C19   1.531678 S    
C38   H31   1.110639 S    
C20   F6    1.366908 S    
C32   H16   1.108862 S    
C27   C28   1.531225 S    
C19   F5    1.370950 S    
C1    C18   1.431862 S    
C31   C32   1.522066 S    
C5    C11   1.541403 S    
C2    C17   1.428112 S    
C14   C20   1.532694 S    
C6    C12   1.539298 S    
O8    Zn1   2.017835 S    
C24   O12   1.414407 S    
C15   C17   1.530109 S    
O2    C2    1.301973 A    
C25   F7    1.365555 S    
C33   C34   1.530146 S    
C21   C25   1.542758 S    
O14   C42   1.418813 S    
C40   H36   1.107731 S    
C27   H6    1.116309 S    
C28   C29   1.511200 S    
C21   O13   1.411363 S    
C42   C43   1.536553 S    
C29   H11   1.101092 S    
C8    C11   1.544568 S    
C7    C12   1.552513 S    
C24   C25   1.535770 S    
C33   H20   1.108089 S    
C37   H28   1.107358 S    
C39   C40   1.529916 S    
C31   H14   1.111216 S    
C4    C9    1.446110 S    
C22   N1    1.490395 S    
C41   H39   1.109960 S    
C7    C9    1.535958 S    
C18   C20   1.530757 S    
C32   H18   1.110063 S    
C34   H21   1.105604 S    
C34   H22   1.108450 S    
C36   H26   1.110015 S    
O5    Zn1   2.032002 S    
O6    C4    1.300776 A    
C41   H38   1.107469 S    
C29   H9    1.100874 S    
C35   H24   1.099278 S    
C44   H45   1.109227 S    
C38   H32   1.106589 S    
C39   H34   1.107790 S    
O7    C3    1.298800 A    
C16   F2    1.383063 S    
O3    Zn2   2.017109 S    
O8    C4    1.307248 A    
C15   F1    1.379563 S    
O4    C2    1.297668 A    
C36   H27   1.111549 S    
C30   H13   1.112786 S    
O9    C27   1.414742 S    
C10   C12   1.551847 S    
O1    Zn1   2.001464 S    
C22   C24   1.523777 S    
C40   C41   1.527796 S    
C27   H5    1.110663 S    
C26   F8    1.380870 S    
C5    C7    1.534062 S    
O10   C30   1.411045 S    
O6    Zn2   2.032001 S    
C16   C19   1.536678 S    
C21   C23   1.536655 S    
C13   C18   1.535978 S    
C8    C10   1.543540 S    
C14   C17   1.531144 S    
C33   H19   1.103332 S    
O3    C1    1.303322 A    
C37   C38   1.515801 S    
C28   H8    1.103701 S    
C42   H40   1.110321 S    
C3    C10   1.456290 S    
C43   C44   1.531808 S    
C22   O14   1.411721 S    
C9    C11   1.530895 S    
C21   N2    1.489562 S    
C5    O9    1.413816 S    
C14   C16   1.534527 S    
C23   N1    1.496831 S    
C24   N2    1.485807 S    
C35   H23   1.101599 S    
C35   H25   1.090277 S    
C15   C20   1.535999 S    
N2    C26   1.481423 S    
C41   H37   1.107816 S    
C7    H1    1.109689 S    
C43   H43   1.111914 S    
C44   H46   1.106935 S    
C8    H2    1.102769 S    
C11   H3    1.101350 S    
C39   H33   1.106058 S    
O2    Zn2   2.001464 S    
C34   C35   1.515985 S    
C6    O10   1.413486 S    
Zn1   N1    2.061516 S    
C13   F3    1.381327 S    
Zn2   N2    2.061516 S    
O11   C33   1.403415 S    
C36   C37   1.536697 S    
C6    C8    1.541952 S    
O12   C36   1.410314 S    
C30   C31   1.542259 S    
C38   H30   1.110419 S    
