data_mof_unit_46922.cif
_audit_creation_date              2012-12-11T17:00:19-0500
_audit_creation_method            fapswitch 2.2
_symmetry_space_group_name_H-M    P1
_symmetry_Int_Tables_number       1
_space_group_crystal_system       triclinic
_cell_length_a                    6.961658
_cell_length_b                    13.575305
_cell_length_c                    20.247807
_cell_angle_alpha                 103.008495
_cell_angle_beta                  89.471691
_cell_angle_gamma                 90.850235
_cell_volume                      1864.20472202

loop_
_atom_site_label
_atom_site_type_symbol
_atom_type_description
_atom_site_fract_x
_atom_site_fract_y
_atom_site_fract_z
_atom_type_partial_charge
O1    O     O_R   0.506770 0.599700 0.449550 -0.536500
O2    O     O_R   0.179980 0.595740 0.587960 -0.545970
O3    O     O_R   0.004580 0.400300 0.550450 -0.538653
C1    C     C_R   0.347780 0.616525 0.615459 0.692232
O4    O     O_R   0.177380 0.611700 0.452380 -0.542545
O5    O     O_R   0.001970 0.416370 0.413900 -0.541816
C2    C     C_R   0.347774 0.638012 0.435415 0.700916
O6    O     O_R   0.509390 0.583630 0.586100 -0.537965
O7    O     O_3   0.337530 0.435890 0.487530 -0.369947
V1    V     V_3+5 0.064660 0.511890 0.502310 1.407657
O8    O     O_R   0.671950 0.404260 0.412040 -0.540502
C3    C     C_R   0.840731 0.383098 0.384677 0.693902
O9    O     O_R   0.674540 0.388300 0.547620 -0.540924
C4    C     C_R   0.841784 0.361663 0.564300 0.694831
V2    V     V_3+5 0.564030 0.488110 0.497690 1.416189
O10   O     O_3   0.841030 0.564110 0.512470 -0.371110
C5    C     C_R   0.786755 0.111636 0.612145 -0.159437
H1    H     H_    0.780160 0.161318 0.518896 0.102148
H2    H     H_    0.757495 0.988134 0.696182 0.125520
H3    H     H_    0.755034 0.033831 0.587135 0.110481
C6    C     C_R   0.843631 0.284340 0.604068 -0.031891
C7    C     C_R   0.906283 0.316842 0.930196 -0.168291
C8    C     C_R   0.920220 0.392654 0.894313 -0.119308
C9    C     C_R   0.900570 0.369721 0.824059 -0.158238
C10   C     C_R   0.864728 0.269170 0.787633 0.077519
C11   C     C_R   0.845487 0.192238 0.825083 0.069331
C12   C     C_R   0.848014 0.242270 0.715441 0.072718
C13   C     C_R   0.808238 0.139824 0.682782 0.143307
C14   C     C_R   0.788168 0.066275 0.720743 -0.208161
C15   C     C_R   0.806913 0.091934 0.790664 -0.198843
C16   C     C_R   0.867929 0.313417 0.674295 -0.216585
C17   C     C_R   0.802130 0.183745 0.573155 -0.171849
C18   C     C_R   0.868428 0.216938 0.896397 -0.076038
H4    H     H_    0.897329 0.392411 0.695108 0.090131
H5    H     H_    0.926246 0.336018 0.984639 0.097803
H6    H     H_    0.914515 0.432579 0.799993 0.103469
H7    H     H_    0.948763 0.469885 0.921096 0.115497
H8    H     H_    0.789801 0.032315 0.817771 0.120637
C19   C     C_R   0.708158 0.182430 0.227491 0.106056
C20   C     C_R   0.865018 0.184712 0.183973 -0.108348
C21   C     C_R   0.020968 0.248850 0.209603 -0.184060
H9    H     H_    0.143945 0.254052 0.177606 0.132781
C22   C     C_R   0.014444 0.311939 0.275147 -0.178631
H10   H     H_    0.132383 0.364097 0.291622 0.134908
C23   C     C_R   0.851724 0.312768 0.317132 -0.113303
C24   C     C_R   0.702252 0.244436 0.292642 0.097261
C25   C     C_3   0.494534 0.265592 0.287286 -0.410770
C26   C     C_3   0.501588 0.200393 0.215947 -0.413504
H11   H     H_    0.467490 0.346561 0.289134 0.172712
H12   H     H_    0.405035 0.232032 0.322567 0.175947
H13   H     H_    0.482783 0.243958 0.176096 0.169843
H14   H     H_    0.410951 0.131147 0.209900 0.171141
C27   C     C_R   0.507262 0.750991 0.704957 0.096733
C28   C     C_R   0.351088 0.686358 0.683255 -0.107230
C29   C     C_R   0.192019 0.692304 0.727547 -0.173214
H15   H     H_    0.069522 0.642611 0.713196 0.129701
C30   C     C_R   0.195021 0.756984 0.792615 -0.186298
H16   H     H_    0.074916 0.755700 0.826579 0.130608
C31   C     C_R   0.357697 0.817114 0.815500 -0.105978
C32   C     C_R   0.511106 0.814370 0.769696 0.111440
C33   C     C_3   0.716832 0.791674 0.778692 -0.417162
C34   C     C_3   0.712524 0.723985 0.708107 -0.409333
H17   H     H_    0.736182 0.749383 0.819194 0.170554
H18   H     H_    0.812350 0.858731 0.782240 0.170172
H19   H     H_    0.730771 0.642553 0.707568 0.166304
H20   H     H_    0.802480 0.753173 0.670870 0.174836
C35   C     C_R   0.476158 0.880448 0.385739 -0.160944
H21   H     H_    0.468267 0.831134 0.479170 0.104052
H22   H     H_    0.527835 0.001927 0.301270 0.125603
H23   H     H_    0.527790 0.955416 0.410147 0.111027
C36   C     C_R   0.365697 0.714947 0.395472 -0.055886
C37   C     C_R   0.303441 0.684756 0.069746 -0.218123
C38   C     C_R   0.306077 0.606325 0.103455 -0.178818
C39   C     C_R   0.350353 0.624647 0.172621 0.292947
C40   C     C_R   0.374179 0.726413 0.210738 0.036689
C41   C     C_R   0.391402 0.804453 0.174010 0.022897
C42   C     C_R   0.387116 0.753991 0.283257 0.076630
C43   C     C_R   0.448958 0.853511 0.315337 0.135670
C44   C     C_R   0.481424 0.925817 0.277181 -0.206804
C45   C     C_R   0.448023 0.902497 0.208013 -0.182054
C46   C     C_R   0.333821 0.688005 0.325542 -0.198185
C47   C     C_R   0.439765 0.810552 0.425255 -0.167413
C48   C     C_R   0.353432 0.782855 0.103606 -0.076330
H24   H     H_    0.266211 0.615544 0.305831 0.150998
H25   H     H_    0.272558 0.667888 0.015972 0.116304
H26   H     H_    0.282935 0.529651 0.074613 0.119292
H27   H     H_    0.470309 0.961810 0.180976 0.119669
O11   O     O_R   0.203450 0.916320 0.913910 -0.540224
O12   O     O_R   0.535520 0.888300 0.047620 -0.540609
O13   O     O_R   0.710860 0.083650 0.086100 -0.539553
C49   C     C_R   0.365519 0.861458 0.064256 0.699110
O14   O     O_R   0.532860 0.904250 0.912040 -0.543418
O15   O     O_R   0.708190 0.099710 0.949550 -0.538664
C50   C     C_R   0.364765 0.882677 0.884784 0.694313
O16   O     O_R   0.206120 0.900260 0.050460 -0.537607
O17   O     O_3   0.375280 0.064080 0.012470 -0.371551
V3    V     V_3+5 0.648180 0.988110 0.997690 1.410137
O18   O     O_R   0.038220 0.111740 0.952370 -0.539267
C51   C     C_R   0.870884 0.138663 0.935895 0.687119
O19   O     O_R   0.040880 0.095790 0.087940 -0.544478
C52   C     C_R   0.872074 0.118123 0.114943 0.692996
V4    V     V_3+5 0.148800 0.011950 0.002300 1.411569
O20   O     O_3   0.871820 0.935920 0.987530 -0.371038
N1    N     N_2   0.394270 0.539899 0.200122 -0.553112
H28   H     H_    0.323110 0.473926 0.177346 0.247042
C53   C     C_3   0.597965 0.524854 0.206954 -0.559526
H29   H     H_    0.620355 0.460061 0.230865 0.195997
H30   H     H_    0.666142 0.592977 0.239543 0.213639
H31   H     H_    0.668728 0.508257 0.156291 0.197025

loop_
_geom_bond_atom_site_label_1
_geom_bond_atom_site_label_2
_ccdc_geom_bond_type
C29   H15   S    
O17   V4    S    
C21   H9    S    
C1    O6    A    
N1    C53   S    
C37   H25   S    
C25   H11   S    
C42   C43   A    
C7    H5    S    
C6    C16   A    
C9    H6    S    
C4    C6    S    
C13   C14   A    
C45   H27   S    
O5    C3    A    
C30   C31   A    
C53   H29   S    
V2    O10   S    
C5    H3    S    
C15   H8    S    
C38   C39   A    
C33   H17   S    
C20   C52   S    
C28   C29   A    
O8    V2    S    
C26   H13   S    
C8    C9    A    
O1    V2    S    
C31   C50   S    
O12   C49   A    
O7    V1    S    
O15   C51   A    
O13   V3    S    
O16   V4    S    
C36   C47   A    
C31   C32   A    
O9    C4    A    
C21   C22   A    
V4    O20   S    
C35   C43   A    
C41   C48   A    
O19   V4    S    
N1    H28   S    
C27   C32   A    
O14   V3    S    
C25   H12   S    
C6    C17   A    
O11   C50   A    
C39   C40   A    
C34   H20   S    
C12   C16   A    
C9    C10   A    
C19   C20   A    
O4    C2    A    
C43   C44   A    
C3    C23   S    
C10   C11   A    
O18   V4    S    
O12   V3    S    
C32   C33   S    
C18   C51   S    
C33   H18   S    
O2    C1    A    
C40   C41   A    
O13   C52   A    
C14   C15   A    
C8    H7    S    
C22   C23   A    
C27   C34   S    
C11   C18   A    
C25   C26   S    
C42   C46   A    
O17   V3    S    
O14   C50   A    
C16   H4    S    
C40   C42   A    
V3    O20   S    
O3    C4    A    
C19   C24   A    
C20   C21   A    
C11   C15   A    
O6    V2    S    
O9    V2    S    
C22   H10   S    
H22   C44   S    
H1    C17   S    
O2    V1    S    
O15   V3    S    
C46   H24   S    
C39   N1    S    
C7    C18   A    
C24   C25   S    
C34   H19   S    
C1    C28   S    
O1    C2    A    
C5    C13   A    
C41   C45   A    
C37   C38   A    
O5    V1    S    
O11   V4    S    
O8    C3    A    
C27   C28   A    
C10   C12   A    
C48   C49   S    
C35   H23   S    
H21   C47   S    
C29   C30   A    
O7    V2    S    
O4    V1    S    
O3    V1    S    
V1    O10   S    
C2    C36   S    
C30   H16   S    
C53   H30   S    
O19   C52   A    
C33   C34   S    
C38   H26   S    
C37   C48   A    
C49   O16   A    
C44   C45   A    
C23   C24   A    
C26   H14   S    
C35   C47   A    
O18   C51   A    
C12   C13   A    
C5    C17   A    
C7    C8    A    
C19   C26   S    
C36   C46   A    
C53   H31   S    
H2    C14   S    
