data_mof_unit_64417.cif
_audit_creation_date              2012-12-10T17:03:40-0500
_audit_creation_method            fapswitch 2.2
_symmetry_space_group_name_H-M    P1
_symmetry_Int_Tables_number       1
_space_group_crystal_system       triclinic
_cell_length_a                    38.745976
_cell_length_b                    21.870388
_cell_length_c                    21.896582
_cell_angle_alpha                 89.446714
_cell_angle_beta                  124.32964
_cell_angle_gamma                 90.138897
_cell_volume                      15321.9713725

loop_
_atom_site_label
_atom_site_type_symbol
_atom_type_description
_atom_site_fract_x
_atom_site_fract_y
_atom_site_fract_z
_atom_type_partial_charge
C1    C     C_R   0.999690 0.999701 0.118722 0.791699
C2    C     C_R   0.000105 0.000286 0.881130 0.793455
C3    C     C_R   0.499688 0.499700 0.118720 0.791683
C4    C     C_R   0.500108 0.500285 0.881132 0.793459
C5    C     C_3   0.272971 0.973994 0.213648 0.396391
C6    C     C_3   0.726807 0.975068 0.787600 0.402031
C7    C     C_3   0.772973 0.474058 0.213627 0.396382
C8    C     C_3   0.226806 0.474964 0.787572 0.402065
C9    C     C_3   0.224512 0.980895 0.166204 -0.465170
C10   C     C_3   0.775250 0.981852 0.835430 -0.467100
C11   C     C_3   0.724513 0.480952 0.166188 -0.465167
C12   C     C_3   0.275250 0.481744 0.835414 -0.467116
C13   C     C_1   0.337732 0.998573 0.339273 0.169903
C14   C     C_1   0.662278 0.999700 0.660906 0.162487
C15   C     C_1   0.837732 0.498579 0.339275 0.169892
C16   C     C_1   0.162279 0.499700 0.660913 0.162513
C17   C     C_1   0.162342 0.999364 0.167784 0.082405
C18   C     C_1   0.837661 0.000001 0.834243 0.079676
C19   C     C_1   0.662342 0.499364 0.167782 0.082393
C20   C     C_1   0.337661 0.500004 0.834261 0.079642
C21   C     C_1   0.124671 0.999674 0.128955 -0.021811
C22   C     C_1   0.875321 0.000281 0.872905 -0.020456
C23   C     C_1   0.624671 0.499674 0.128954 -0.021821
C24   C     C_1   0.375321 0.500282 0.872921 -0.020492
C25   C     C_R   0.059558 0.076132 0.250360 -0.042635
C26   C     C_R   0.938503 0.074761 0.745961 -0.044366
C27   C     C_R   0.559543 0.576151 0.250343 -0.042615
C28   C     C_R   0.438503 0.574757 0.745965 -0.044417
C29   C     C_R   0.075471 0.127234 0.296836 -0.113065
C30   C     C_R   0.920914 0.124429 0.696174 -0.109971
C31   C     C_R   0.575446 0.627261 0.296807 -0.113107
C32   C     C_R   0.420914 0.624425 0.696179 -0.109930
C33   C     C_R   0.064771 0.137972 0.346455 0.274691
C34   C     C_R   0.931111 0.134902 0.645659 0.270531
C35   C     C_R   0.564744 0.637998 0.346423 0.274707
C36   C     C_R   0.431109 0.634899 0.645662 0.270535
C37   C     C_R   0.040330 0.095835 0.353329 -0.113027
C38   C     C_R   0.956772 0.093780 0.641224 -0.108262
C39   C     C_R   0.540311 0.595853 0.353306 -0.113045
C40   C     C_R   0.456770 0.593778 0.641225 -0.108254
C41   C     C_R   0.022392 0.045477 0.305026 0.041221
C42   C     C_R   0.976207 0.044670 0.692417 0.049691
C43   C     C_R   0.522381 0.545486 0.305013 0.041189
C44   C     C_R   0.476206 0.544669 0.692418 0.049700
C45   C     C_R   0.079790 0.999901 0.081952 0.835900
C46   C     C_R   0.920185 0.000134 0.919071 0.835089
C47   C     C_R   0.579790 0.499901 0.081952 0.835903
C48   C     C_R   0.420185 0.500134 0.919080 0.835058
C49   C     C_R   0.027518 0.039988 0.246339 -0.029642
C50   C     C_R   0.971356 0.039737 0.751624 -0.032304
C51   C     C_R   0.527508 0.539998 0.246328 -0.029625
C52   C     C_R   0.471357 0.539735 0.751626 -0.032312
C53   C     C_R   0.000604 0.999665 0.315687 -0.110456
C54   C     C_R   0.999660 0.999915 0.684705 -0.111403
C55   C     C_R   0.500605 0.499665 0.315688 -0.110448
C56   C     C_R   0.499659 0.499914 0.684703 -0.111403
C57   C     C_R   0.979894 0.952593 0.264145 0.025952
C58   C     C_R   0.023053 0.955691 0.740442 0.026469
C59   C     C_R   0.479914 0.452573 0.264168 0.025965
C60   C     C_R   0.523048 0.455685 0.740436 0.026465
C61   C     C_R   0.974838 0.957180 0.195245 0.041905
C62   C     C_R   0.027689 0.961867 0.808651 0.048303
C63   C     C_R   0.474855 0.457151 0.195265 0.041870
C64   C     C_R   0.527686 0.461859 0.808647 0.048293
C65   C     C_R   0.000631 0.998973 0.187268 -0.150106
C66   C     C_R   0.999648 0.000821 0.813134 -0.147366
C67   C     C_R   0.500631 0.498968 0.187268 -0.150130
C68   C     C_R   0.499649 0.500819 0.813136 -0.147373
C69   C     C_R   0.962510 0.902135 0.278761 -0.172779
C70   C     C_R   0.043816 0.907014 0.731247 -0.168721
C71   C     C_R   0.462555 0.402100 0.278815 -0.172740
C72   C     C_R   0.543805 0.407004 0.731232 -0.168704
C73   C     C_R   0.938568 0.859068 0.224782 -0.146401
C74   C     C_R   0.070136 0.867545 0.789513 -0.156194
C75   C     C_R   0.438638 0.359002 0.224864 -0.146415
C76   C     C_R   0.570123 0.367530 0.789492 -0.156196
C77   C     C_R   0.927809 0.869094 0.153542 -0.088842
C78   C     C_R   0.080200 0.880320 0.859586 -0.114630
C79   C     C_R   0.427874 0.369009 0.153619 -0.088846
C80   C     C_R   0.580191 0.380303 0.859569 -0.114631
C81   C     C_R   0.943387 0.919932 0.137517 0.265455
C82   C     C_R   0.061488 0.929857 0.870071 0.265572
C83   C     C_R   0.443424 0.419863 0.137560 0.265495
C84   C     C_R   0.561484 0.429842 0.870062 0.265579
C85   C     C_R   0.500122 0.881813 0.500374 0.824400
C86   C     C_R   0.000118 0.381813 0.500369 0.824404
C87   C     C_3   0.225770 0.951100 0.279334 0.046045
C88   C     C_3   0.774689 0.951551 0.723711 0.051055
C89   C     C_3   0.725770 0.451058 0.279290 0.046054
C90   C     C_3   0.274691 0.451640 0.723642 0.051092
C91   C     C_R   0.420186 0.000081 0.420260 0.830097
C92   C     C_R   0.579807 0.001139 0.579670 0.809557
C93   C     C_R   0.920186 0.500084 0.420260 0.830094
C94   C     C_R   0.079807 0.501139 0.579670 0.809558
C95   C     C_R   0.493916 0.118726 0.493347 0.812164
C96   C     C_R   0.993914 0.618725 0.493347 0.812167
C97   C     C_R   0.000091 0.880780 0.500618 0.756470
C98   C     C_R   0.500091 0.380781 0.500621 0.756464
C99   C     C_R   0.000109 0.000282 0.381512 0.808986
C100  C     C_R   0.999932 0.999694 0.618584 0.803121
C101  C     C_R   0.500109 0.500285 0.381512 0.808994
C102  C     C_R   0.499932 0.499695 0.618584 0.803127
C103  C     C_R   0.999927 0.119285 0.500088 0.864963
C104  C     C_R   0.499927 0.619285 0.500089 0.864946
C105  C     C_R   0.423818 0.813715 0.395754 0.210136
C106  C     C_R   0.576248 0.811644 0.606383 0.221741
C107  C     C_R   0.923816 0.313710 0.395731 0.210194
C108  C     C_R   0.076246 0.311647 0.606362 0.221676
C109  C     C_R   0.386911 0.780180 0.362183 -0.028882
C110  C     C_R   0.612980 0.777227 0.641205 -0.033677
C111  C     C_R   0.886909 0.280172 0.362143 -0.028855
C112  C     C_R   0.112977 0.277231 0.641172 -0.033730
C113  C     C_R   0.888637 0.218162 0.352519 -0.235315
C114  C     C_R   0.110746 0.215129 0.650518 -0.240958
C115  C     C_R   0.388634 0.718171 0.352553 -0.235264
C116  C     C_R   0.610746 0.715125 0.650541 -0.241037
C117  C     C_R   0.927527 0.190807 0.382555 0.014629
C118  C     C_R   0.071617 0.188561 0.619315 0.015526
C119  C     C_R   0.427521 0.690813 0.382572 0.014616
C120  C     C_R   0.571616 0.688557 0.619325 0.015550
C121  C     C_R   0.963874 0.219528 0.443597 0.065288
C122  C     C_R   0.035687 0.218506 0.557858 0.063137
C123  C     C_R   0.463873 0.719530 0.443608 0.065295
C124  C     C_R   0.535688 0.718504 0.557866 0.063136
C125  C     C_3   0.225469 0.062894 0.246602 -0.423351
C126  C     C_3   0.774416 0.063488 0.753161 -0.421195
C127  C     C_3   0.725468 0.562880 0.246657 -0.423352
C128  C     C_3   0.274417 0.563521 0.753288 -0.421211
C129  C     C_R   0.462865 0.783916 0.447115 0.006508
C130  C     C_R   0.537034 0.782955 0.554658 0.002703
C131  C     C_R   0.962862 0.283914 0.447101 0.006479
C132  C     C_R   0.037031 0.282956 0.554647 0.002730
C133  C     C_R   0.999799 0.186586 0.500479 -0.130007
C134  C     C_R   0.499799 0.686586 0.500485 -0.130009
C135  C     C_R   0.500018 0.815436 0.500828 -0.115061
C136  C     C_R   0.000014 0.315436 0.500820 -0.115067
C137  C     C_R   0.484512 0.197332 0.367609 0.247701
C138  C     C_R   0.449246 0.192825 0.548560 0.237611
C139  C     C_R   0.984448 0.697332 0.367558 0.247726
C140  C     C_R   0.949269 0.692825 0.548614 0.237639
C141  C     C_R   0.502920 0.226276 0.335112 0.268761
C142  C     C_R   0.443900 0.224669 0.598158 0.299574
C143  C     C_R   0.002820 0.726284 0.335000 0.268782
C144  C     C_R   0.943937 0.724671 0.598228 0.299554
C145  C     C_R   0.025034 0.780300 0.364731 -0.201858
C146  C     C_R   0.956720 0.785053 0.615048 -0.200683
C147  C     C_R   0.525128 0.280293 0.364859 -0.201817
C148  C     C_R   0.456684 0.285048 0.614990 -0.200693
C149  C     C_R   0.025206 0.809030 0.421327 -0.244912
C150  C     C_R   0.973477 0.814602 0.581134 -0.212746
C151  C     C_R   0.525261 0.309031 0.421413 -0.244928
C152  C     C_R   0.473454 0.314600 0.581100 -0.212743
C153  C     C_R   0.006460 0.780985 0.453968 0.030371
C154  C     C_R   0.982226 0.782593 0.535652 0.044716
C155  C     C_R   0.506487 0.280987 0.454005 0.030345
C156  C     C_R   0.482214 0.282594 0.535631 0.044720
C157  C     C_R   0.492166 0.220139 0.434839 -0.023731
C158  C     C_R   0.472898 0.219109 0.523517 -0.025177
C159  C     C_R   0.992137 0.720136 0.434814 -0.023741
C160  C     C_R   0.972909 0.719108 0.523545 -0.025167
C161  C     C_R   0.999453 0.813283 0.501497 -0.097249
C162  C     C_R   0.499455 0.313285 0.501502 -0.097255
C163  C     C_3   0.274050 0.064158 0.289872 -0.225538
C164  C     C_3   0.725827 0.064914 0.709317 -0.219007
C165  C     C_3   0.774050 0.564150 0.289933 -0.225530
C166  C     C_3   0.225827 0.564937 0.709437 -0.218999
C167  C     C_R   0.483880 0.186138 0.480950 -0.110980
C168  C     C_R   0.983875 0.686136 0.480955 -0.111004
C169  C     C_1   0.375386 0.999401 0.375825 0.054951
C170  C     C_1   0.624611 0.000653 0.624082 0.010990
C171  C     C_1   0.875386 0.499406 0.375827 0.054956
C172  C     C_1   0.124612 0.500652 0.624085 0.010991
C173  C     C_3   0.208495 0.998605 0.214634 0.087555
C174  C     C_3   0.791533 0.999249 0.787032 0.085204
C175  C     C_3   0.708495 0.498605 0.214632 0.087541
C176  C     C_3   0.291533 0.499254 0.787047 0.085227
C177  C     C_3   0.275124 0.955548 0.333932 0.130484
C178  C     C_3   0.725347 0.956099 0.668451 0.125113
C179  C     C_3   0.775124 0.455501 0.333893 0.130507
C180  C     C_3   0.225348 0.456191 0.668392 0.125041
C181  C     C_3   0.291517 0.997451 0.295048 -0.032423
C182  C     C_3   0.708514 0.998334 0.705689 -0.023761
C183  C     C_3   0.791517 0.497455 0.295048 -0.032446
C184  C     C_3   0.208514 0.498335 0.705698 -0.023727
Cu1   Cu    Cu3+1 0.000000 0.938180 0.000000 1.062830
Cu2   Cu    Cu3+1 0.500000 0.438180 0.000000 1.062864
Cu3   Cu    Cu3+1 0.000000 0.061820 0.000000 1.090435
Cu4   Cu    Cu3+1 0.500000 0.561820 0.000000 1.090396
Cu5   Cu    Cu3+1 0.500000 0.000200 0.561810 1.143418
Cu6   Cu    Cu3+1 0.500000 0.000200 0.438190 1.158524
Cu7   Cu    Cu3+1 1.000000 0.500200 0.561810 1.143429
Cu8   Cu    Cu3+1 1.000000 0.500200 0.438190 1.158498
Cu9   Cu    Cu3+1 0.958680 0.000030 0.458700 1.002337
Cu10  Cu    Cu3+1 0.041320 0.000030 0.541300 0.991832
Cu11  Cu    Cu3+1 0.458680 0.500030 0.458700 1.002348
Cu12  Cu    Cu3+1 0.541320 0.500030 0.541300 0.991820
H1    H     H_    0.217059 0.905460 0.252643 0.115387
H2    H     H_    0.783466 0.905980 0.751682 0.117639
H3    H     H_    0.717059 0.405434 0.252558 0.115390
H4    H     H_    0.283472 0.406036 0.751533 0.117611
H5    H     H_    0.904491 0.840139 0.109534 0.190604
H6    H     H_    0.105498 0.855347 0.906619 0.181229
H7    H     H_    0.404574 0.340022 0.109631 0.190620
H8    H     H_    0.605487 0.355324 0.906597 0.181235
H9    H     H_    0.098467 0.156628 0.298303 0.213410
H10   H     H_    0.897195 0.152979 0.693221 0.212936
H11   H     H_    0.598438 0.656662 0.298268 0.213407
H12   H     H_    0.397195 0.652975 0.693228 0.212946
H13   H     H_    0.035569 0.103376 0.396771 0.188720
H14   H     H_    0.961552 0.101497 0.597704 0.189093
H15   H     H_    0.535551 0.603391 0.396750 0.188703
H16   H     H_    0.461548 0.601495 0.597703 0.189094
H17   H     H_    0.967157 0.895377 0.331833 0.154773
H18   H     H_    0.040696 0.899264 0.679809 0.148230
H19   H     H_    0.467206 0.395353 0.331890 0.154733
H20   H     H_    0.540680 0.399253 0.679788 0.148208
H21   H     H_    0.925628 0.820568 0.236815 0.185977
H22   H     H_    0.085729 0.830530 0.781663 0.173236
H23   H     H_    0.425720 0.320487 0.236922 0.185975
H24   H     H_    0.585711 0.330512 0.781636 0.173234
H25   H     H_    0.643002 0.799273 0.676417 0.213118
H26   H     H_    0.357001 0.803005 0.327508 0.213179
H27   H     H_    0.143000 0.299278 0.676369 0.213161
H28   H     H_    0.856999 0.302994 0.327454 0.213152
H29   H     H_    0.860143 0.194951 0.311188 0.160066
H30   H     H_    0.138946 0.191021 0.692298 0.161572
H31   H     H_    0.360137 0.694962 0.311229 0.160077
H32   H     H_    0.638945 0.691015 0.692324 0.161552
H33   H     H_    0.039189 0.802838 0.339815 0.195516
H34   H     H_    0.951311 0.810463 0.651131 0.189257
H35   H     H_    0.539309 0.302826 0.339988 0.195530
H36   H     H_    0.451267 0.310456 0.651063 0.189254
H37   H     H_    0.039374 0.853748 0.438105 0.176905
H38   H     H_    0.979098 0.862971 0.590476 0.143762
H39   H     H_    0.539426 0.353749 0.438199 0.176969
H40   H     H_    0.479077 0.362967 0.590452 0.143772
H41   H     H_    0.210633 0.097497 0.201007 0.179532
H42   H     H_    0.788972 0.098214 0.797783 0.177673
H43   H     H_    0.710633 0.597510 0.201092 0.179538
H44   H     H_    0.288970 0.598191 0.797974 0.177638
H45   H     H_    0.216067 0.075297 0.284455 0.251184
H46   H     H_    0.784017 0.075614 0.715305 0.249265
H47   H     H_    0.716064 0.575242 0.284519 0.251172
H48   H     H_    0.284022 0.575734 0.715460 0.249273
H49   H     H_    0.286142 0.080724 0.346236 0.237494
H50   H     H_    0.713911 0.081290 0.652591 0.227439
H51   H     H_    0.786139 0.580673 0.346313 0.237490
H52   H     H_    0.213916 0.581385 0.652739 0.227426
H53   H     H_    0.209324 0.937774 0.136372 0.222326
H54   H     H_    0.790520 0.938755 0.866523 0.225589
H55   H     H_    0.709328 0.437843 0.136321 0.222335
H56   H     H_    0.290518 0.438616 0.866426 0.225577
H57   H     H_    0.214368 0.016617 0.122660 0.223799
H58   H     H_    0.785080 0.017697 0.877924 0.220822
H59   H     H_    0.714367 0.516702 0.122672 0.223794
H60   H     H_    0.285081 0.517528 0.877975 0.220825
O1    O     O_R   0.000000 0.947790 0.090180 -0.565914
O2    O     O_R   0.000000 0.947790 0.909820 -0.572470
O3    O     O_R   0.500000 0.447790 0.090180 -0.565876
O4    O     O_R   0.500000 0.447790 0.909820 -0.572466
O5    O     O_R   0.965110 0.000030 0.374950 -0.572833
O6    O     O_R   0.034890 0.000030 0.625050 -0.577360
O7    O     O_R   0.465110 0.500030 0.374950 -0.572806
O8    O     O_R   0.534890 0.500030 0.625050 -0.577360
O9    O     O_R   0.034890 0.000000 0.444730 -0.595118
O10   O     O_R   0.965110 1.000000 0.555270 -0.593504
O11   O     O_R   0.534890 0.500000 0.444730 -0.595121
O12   O     O_R   0.465110 0.500000 0.555270 -0.593514
O13   O     O_R   0.965120 0.090230 0.465150 -0.599398
O14   O     O_R   0.034880 0.090230 0.534850 -0.599054
O15   O     O_R   0.465120 0.590230 0.465150 -0.599396
O16   O     O_R   0.534880 0.590230 0.534850 -0.599060
O17   O     O_R   1.000000 0.052210 0.090190 -0.569797
O18   O     O_R   0.000000 0.052210 0.909810 -0.563444
O19   O     O_R   0.500000 0.552210 0.090190 -0.569832
O20   O     O_R   0.500000 0.552210 0.909810 -0.563457
O21   O     O_R   0.060280 0.947790 0.060280 -0.565292
O22   O     O_R   0.939720 0.947790 0.939720 -0.556543
O23   O     O_R   0.560280 0.447790 0.060280 -0.565261
O24   O     O_R   0.439720 0.447790 0.939720 -0.556514
O25   O     O_R   0.060280 0.052210 0.060300 -0.546034
O26   O     O_R   0.939720 0.052210 0.939700 -0.552293
O27   O     O_R   0.560280 0.552210 0.060300 -0.546042
O28   O     O_R   0.439720 0.552210 0.939700 -0.552338
O29   O     O_R   0.500000 0.910000 0.552220 -0.543253
O30   O     O_R   0.500000 0.910000 0.447780 -0.539934
O31   O     O_R   0.000000 0.410000 0.552220 -0.543242
O32   O     O_R   1.000000 0.410000 0.447780 -0.539945
O33   O     O_R   0.439720 0.000200 0.491920 -0.547158
O34   O     O_R   0.560280 0.000200 0.508080 -0.564505
O35   O     O_R   0.939720 0.500200 0.491920 -0.547170
O36   O     O_R   0.060280 0.500200 0.508080 -0.564497
O37   O     O_R   0.439720 0.000170 0.387540 -0.522265
O38   O     O_R   0.560280 0.000170 0.612460 -0.534583
O39   O     O_R   0.939720 0.500170 0.387540 -0.522253
O40   O     O_R   0.060280 0.500170 0.612460 -0.534580
O41   O     O_R   0.500000 0.090400 0.552190 -0.567186
O42   O     O_R   0.500000 0.090400 0.447810 -0.561842
O43   O     O_R   0.000000 0.590400 0.552190 -0.567183
O44   O     O_R   1.000000 0.590400 0.447810 -0.561860
O45   O     O_R   0.965090 0.909820 0.465090 -0.572724
O46   O     O_R   0.034910 0.909820 0.534910 -0.588726
O47   O     O_R   0.465090 0.409820 0.465090 -0.572716
O48   O     O_R   0.534910 0.409820 0.534910 -0.588745
Br1   Br    Br    0.293295 0.989313 0.431305 -0.313363
Br2   Br    Br    0.707486 0.989469 0.570366 -0.347808
Br3   Br    Br    0.793295 0.489190 0.431299 -0.313381
Br4   Br    Br    0.207482 0.489688 0.570356 -0.347866
C185  C     C_2   0.293989 0.891549 0.354335 0.467785
H61   H     H_    0.274285 0.851361 0.332140 0.090738
O49   O     O_2   0.331638 0.883823 0.397444 -0.503472
C186  C     C_2   0.706738 0.892139 0.649623 0.476863
H62   H     H_    0.726623 0.851920 0.672642 0.091219
O50   O     O_2   0.669113 0.884471 0.606808 -0.500879
C187  C     C_2   0.793989 0.391502 0.354236 0.467758
H63   H     H_    0.774287 0.351316 0.331985 0.090707
O51   O     O_2   0.831637 0.383771 0.397352 -0.503503
C188  C     C_2   0.206744 0.392229 0.649466 0.476898
H64   H     H_    0.226633 0.352009 0.672406 0.091255
O52   O     O_2   0.169118 0.384565 0.606658 -0.500792
Br5   Br    Br    0.295562 0.016664 0.164366 -0.366109
Br6   Br    Br    0.703693 0.018058 0.835121 -0.396044
Br7   Br    Br    0.795562 0.516800 0.164383 -0.366090
Br8   Br    Br    0.203694 0.517841 0.835164 -0.395977
C189  C     C_2   0.083315 0.054555 0.220615 0.457843
H65   H     H_    0.081733 0.006912 0.206216 0.024921
O53   O     O_2   0.106416 0.088922 0.215275 -0.532427
C190  C     C_2   0.915980 0.053557 0.778471 0.454031
H66   H     H_    0.918343 0.006117 0.795071 0.028545
O54   O     O_2   0.892962 0.087972 0.783614 -0.534305
C191  C     C_2   0.583307 0.554576 0.220608 0.457821
H67   H     H_    0.581731 0.506932 0.206219 0.024940
O55   O     O_2   0.606405 0.588947 0.215266 -0.532448
C192  C     C_2   0.415980 0.553549 0.778473 0.454167
H68   H     H_    0.418348 0.506110 0.795080 0.028542
O56   O     O_2   0.392956 0.587959 0.783606 -0.534244
Br9   Br    Br    0.087660 0.206269 0.411489 -0.404628
Br10  Br    Br    0.906285 0.201580 0.576737 -0.412356
Br11  Br    Br    0.587621 0.706305 0.411443 -0.404594
Br12  Br    Br    0.406282 0.701578 0.576741 -0.412371
Br13  Br    Br    0.195738 0.953797 0.327663 -0.412265
Br14  Br    Br    0.805130 0.953730 0.676067 -0.404947
Br15  Br    Br    0.695737 0.453685 0.327621 -0.412263
Br16  Br    Br    0.305130 0.453966 0.675996 -0.404955
Br17  Br    Br    0.906785 0.949580 0.039238 -0.527467
Br18  Br    Br    0.096783 0.968741 0.962449 -0.535356
Br19  Br    Br    0.406813 0.449442 0.039249 -0.527407
Br20  Br    Br    0.596781 0.468710 0.962451 -0.535350
Br21  Br    Br    0.417835 0.876288 0.328956 -0.383983
Br22  Br    Br    0.582556 0.875675 0.670454 -0.390419
Br23  Br    Br    0.917837 0.376296 0.328949 -0.383988
Br24  Br    Br    0.082558 0.375670 0.670446 -0.390399
C193  C     C_2   0.929332 0.144471 0.335525 0.456009
H69   H     H_    0.902129 0.116795 0.298324 0.073252
O57   O     O_2   0.960537 0.138942 0.335272 -0.566381
C194  C     C_2   0.068969 0.141148 0.665225 0.455614
H70   H     H_    0.095783 0.112296 0.702322 0.076253
O58   O     O_2   0.037504 0.136063 0.664771 -0.567454
C195  C     C_2   0.429317 0.644479 0.335530 0.456028
H71   H     H_    0.402112 0.616808 0.298331 0.073234
O59   O     O_2   0.460518 0.638947 0.335264 -0.566372
C196  C     C_2   0.568963 0.641141 0.665227 0.455593
H72   H     H_    0.595775 0.612284 0.702321 0.076260
O60   O     O_2   0.537497 0.636060 0.664771 -0.567469
Br25  Br    Br    0.415775 0.189353 0.639290 -0.339388
Br26  Br    Br    0.496408 0.195728 0.247400 -0.378427
Br27  Br    Br    0.915832 0.689357 0.639400 -0.339386
Br28  Br    Br    0.996244 0.695757 0.247228 -0.378448
Br29  Br    Br    0.438476 0.142232 0.307087 -0.332249
Br30  Br    Br    0.411285 0.126805 0.496474 -0.374810
Br31  Br    Br    0.938417 0.642207 0.307103 -0.332222
Br32  Br    Br    0.911304 0.626802 0.496549 -0.374726
C197  C     C_2   0.288275 0.112588 0.258980 0.469843
H73   H     H_    0.268813 0.125430 0.200877 0.115385
O61   O     O_2   0.322087 0.137480 0.298988 -0.469847
C198  C     C_2   0.711244 0.113596 0.738549 0.445761
H74   H     H_    0.730336 0.126192 0.796442 0.120932
O62   O     O_2   0.677584 0.139053 0.697377 -0.512919
C199  C     C_2   0.788276 0.612624 0.259093 0.469861
H75   H     H_    0.768817 0.625505 0.201003 0.115380
O63   O     O_2   0.822088 0.637509 0.299128 -0.469843
C200  C     C_2   0.211239 0.613546 0.738740 0.445751
H76   H     H_    0.230329 0.626088 0.796653 0.120928
O64   O     O_2   0.177574 0.639002 0.697606 -0.512932
Br33  Br    Br    0.287448 0.889169 0.209400 -0.467913
Br34  Br    Br    0.712505 0.890344 0.793812 -0.454910
Br35  Br    Br    0.787456 0.389253 0.209304 -0.467798
Br36  Br    Br    0.212501 0.390210 0.793646 -0.455044

loop_
_geom_bond_atom_site_label_1
_geom_bond_atom_site_label_2
_ccdc_geom_bond_type
C10   C174  S    
Cu8   O44   S    
C12   H60   S    
C55   C59   A    
C154  C161  A    
C165  H51   S    
C14   C170  T    
C177  Br1   S    
C48   O28   A    
C53   C99   S    
Cu7   O35   S    
C89   C175  S    
C116  H32   S    
C26   C50   A    
C60   C72   A    
C29   C33   A    
C149  C153  A    
C64   C84   A    
C94   C172  S    
C146  C150  A    
C147  H35   S    
C152  C156  A    
C92   C170  S    
C70   C74   A    
C142  Br25  S    
C96   C168  S    
C151  C155  A    
C98   O48   A    
C126  C174  S    
C139  C159  A    
C4    O4    A    
C95   O41   A    
C157  C167  A    
C41   C49   A    
C14   C182  S    
C17   C173  S    
C158  C167  A    
C48   O24   A    
C155  C162  A    
C25   C29   A    
Cu6   O42   S    
C123  C134  A    
C27   C31   A    
Cu7   Cu8   S    
C165  C183  S    
C103  O14   A    
C28   C32   A    
C166  C184  S    
C62   C66   A    
Cu10  O46   S    
C150  H38   S    
C17   C21   T    
C153  C161  A    
C19   C23   T    
C115  H31   S    
C142  C148  A    
C2    O18   A    
C78   C82   A    
C113  H29   S    
C75   H23   S    
C127  C165  S    
C124  C130  A    
C111  C113  A    
Cu11  O12   S    
C178  C182  S    
C107  C131  A    
C166  C200  S    
Cu8   O39   S    
C45   O21   A    
C128  H48   S    
C163  H49   S    
C126  H42   S    
C110  C116  A    
C28   C192  S    
C106  C130  A    
C91   O33   A    
Cu10  O6    S    
C59   C63   A    
C9    H57   S    
Cu1   O21   S    
C8    Br36  S    
C105  C129  A    
C16   C184  S    
C57   C61   A    
C152  H40   S    
C119  C123  A    
C34   Br10  S    
C7    Br35  S    
C7    C183  S    
C60   C64   A    
C81   Br17  S    
C5    Br33  S    
C104  O15   A    
C166  H52   S    
C100  O10   A    
C3    O3    A    
C156  C158  A    
C27   C51   A    
C111  H28   S    
C160  C168  A    
C11   H55   S    
C141  C147  A    
Cu11  Cu12  S    
Cu3   O18   S    
C61   C65   A    
Cu1   O2    S    
C99   O5    A    
Cu9   Cu10  S    
C92   O34   A    
C189  H65   S    
C73   C77   A    
C110  H25   S    
C75   C79   A    
C180  C184  S    
Cu4   O20   S    
Cu4   O28   S    
C90   C176  S    
C163  C181  S    
Cu9   O13   S    
C9    H53   S    
Cu7   O31   S    
C30   C34   A    
Cu11  O15   S    
C112  C114  A    
Cu12  O48   S    
C180  C188  S    
C104  C134  S    
C6    C182  S    
C105  Br21  S    
Cu10  O14   S    
C64   C68   A    
C178  Br2   S    
C26   C190  S    
C8    Br8   S    
C107  Br23  S    
Cu1   Cu3   S    
C196  H72   S    
C94   O40   A    
C29   H9    S    
C186  H62   S    
C118  C122  A    
C189  O53   D    
C188  O52   D    
C129  C135  A    
C139  C143  A    
C144  Br27  S    
C140  Br32  S    
C126  H46   S    
C1    C65   S    
C9    C173  S    
C32   H12   S    
C82   Br18  S    
C8    C12   S    
C12   C176  S    
C44   C52   A    
C13   C169  T    
C117  C193  S    
C193  O57   D    
C36   Br12  S    
C198  O62   D    
C21   C45   S    
C185  O49   D    
C90   C180  S    
C23   C47   S    
C85   O30   A    
C91   C169  S    
C39   H15   S    
C24   C48   S    
C127  H47   S    
C131  C136  A    
C4    C68   S    
C192  H68   S    
C33   Br9   S    
C149  H37   S    
C116  C120  A    
C10   H54   S    
C96   O43   A    
C147  C151  A    
C5    C9    S    
C50   C66   A    
C138  C158  A    
C138  Br30  S    
Cu2   O3    S    
C132  C136  A    
C151  H39   S    
C74   H22   S    
C194  O58   D    
C51   C67   A    
C38   H14   S    
C41   C53   A    
C47   O27   A    
C42   C50   A    
C113  C117  A    
C18   C174  S    
C43   C55   A    
C26   C30   A    
C115  C119  A    
C46   O26   A    
Cu5   O33   S    
C195  H71   S    
C105  C109  A    
C18   C22   T    
C107  C111  A    
C178  C186  S    
C76   C80   A    
C87   C173  S    
C190  H66   S    
C2    C66   S    
C77   H5    S    
C88   C178  S    
Cu4   O19   S    
C13   C181  S    
C124  C134  A    
C90   Br16  S    
C56   C102  S    
C61   C81   A    
C140  C160  A    
C20   C176  S    
C177  C181  S    
C95   C167  S    
C37   C41   A    
C108  Br24  S    
C19   C175  S    
C108  C132  A    
C40   C44   A    
C5    Br5   S    
C97   O46   A    
C80   H8    S    
C143  Br28  S    
C58   C62   A    
C180  Br4   S    
C127  H43   S    
C200  H76   S    
C155  C157  A    
C86   O31   A    
C130  C135  A    
C80   C84   A    
C137  Br29  S    
Cu8   O32   S    
C193  H69   S    
C199  H75   S    
C198  H74   S    
Cu9   O10   S    
C103  O13   A    
Cu5   O29   S    
C197  O61   D    
C54   C58   A    
C164  C198  S    
C25   C189  S    
C92   O38   A    
C93   O39   A    
C88   H2    S    
C145  H33   S    
C98   C162  S    
C47   O23   A    
C15   C183  S    
C11   H59   S    
Cu6   O30   S    
C69   C73   A    
C148  H36   S    
C119  C195  S    
C62   C82   A    
C187  H63   S    
C88   Br14  S    
C179  Br3   S    
C5    C181  S    
C1    O1    A    
C127  C175  S    
C89   H3    S    
C128  C176  S    
C148  C152  A    
C6    Br6   S    
C69   H17   S    
C144  C146  A    
C138  C142  A    
C53   C57   A    
C7    Br7   S    
C33   C37   A    
C108  C112  A    
C63   C83   A    
C70   H18   S    
C35   C39   A    
C191  H67   S    
C104  O16   A    
C114  H30   S    
C44   C56   A    
Cu7   O43   S    
Cu12  O8    S    
C89   Br15  S    
C15   C171  T    
C3    O19   A    
C98   O47   A    
C49   C65   A    
Cu3   O17   S    
Cu1   O1    S    
C22   C46   S    
Cu8   O36   S    
C112  H27   S    
C177  C185  S    
C87   H1    S    
Cu2   Cu4   S    
C32   C36   A    
C125  H41   S    
Cu5   O38   S    
C137  C141  A    
C93   C171  S    
C118  C194  S    
C10   H58   S    
C58   C70   A    
C140  C144  A    
C6    C10   S    
C141  Br26  S    
C137  C157  A    
C128  H44   S    
C40   H16   S    
C11   C175  S    
C12   H56   S    
C87   Br13  S    
C165  C199  S    
C42   C54   A    
C79   C83   A    
C43   C51   A    
Cu6   O34   S    
C196  O60   D    
C76   H24   S    
C46   O22   A    
C186  O50   D    
Cu12  O16   S    
C192  O56   D    
C120  C196  S    
Cu5   Cu6   S    
C25   C49   A    
C163  C197  S    
C164  C182  S    
C56   C60   A    
Cu5   O41   S    
C74   C78   A    
C145  C149  A    
C109  H26   S    
C97   C161  S    
C71   H19   S    
C72   C76   A    
C125  C173  S    
Cu1   O22   S    
C88   C174  S    
C185  H61   S    
C7    C11   S    
C106  Br22  S    
C85   O29   A    
C38   C42   A    
C27   C191  S    
C199  O63   D    
C90   H4    S    
C87   C177  S    
C30   H10   S    
C159  C168  A    
C96   O44   A    
C117  C121  A    
Cu9   O45   S    
C20   C24   T    
Cu11  O47   S    
C125  H45   S    
C77   C81   A    
C164  H50   S    
C1    O17   A    
C52   C68   A    
C8    C184  S    
C101  O11   A    
Cu4   O27   S    
C156  C162  A    
C102  O12   A    
C123  C129  A    
C128  C166  S    
C54   C100  S    
C125  C163  S    
Cu10  O9    S    
C121  C131  A    
C126  C164  S    
C122  C132  A    
Cu3   O26   S    
C179  C183  S    
C63   C67   A    
C187  O51   D    
C45   O25   A    
C93   O35   A    
C4    O20   A    
C94   O36   A    
C36   C40   A    
C190  O54   D    
C31   H11   S    
Cu2   O4    S    
C39   C43   A    
C84   Br20  S    
C91   O37   A    
Cu9   O5    S    
Cu2   O24   S    
C153  C159  A    
Cu11  O7    S    
C122  C133  A    
C154  C160  A    
C188  H64   S    
C139  Br31  S    
C16   C172  T    
C6    Br34  S    
C73   H21   S    
C195  O59   D    
C191  O55   D    
C37   H13   S    
C114  C118  A    
C85   C135  S    
C86   C136  S    
Cu7   O40   S    
C2    O2    A    
C100  O6    A    
C79   H7    S    
C101  O7    A    
C102  O8    A    
C97   O45   A    
C83   Br19  S    
Cu2   O23   S    
C146  H34   S    
C143  C145  A    
C99   O9    A    
C200  O64   D    
C72   H20   S    
C34   C38   A    
C86   O32   A    
Cu3   O25   S    
C3    C67   S    
C78   H6    S    
C55   C101  S    
C57   C69   A    
C103  C133  S    
C197  H73   S    
C71   C75   A    
C28   C52   A    
C194  H70   S    
C95   O42   A    
C31   C35   A    
C89   C179  S    
C179  C187  S    
C109  C115  A    
Cu6   O37   S    
C106  C110  A    
C150  C154  A    
C35   Br11  S    
Cu12  O11   S    
C121  C133  A    
C120  C124  A    
C59   C71   A    
