data_mof_unit_34238.cif
_audit_creation_date              2013-03-05T15:58:45-0500
_audit_creation_method            fapswitch 2.2
_symmetry_space_group_name_H-M    P1
_symmetry_Int_Tables_number       1
_space_group_crystal_system       triclinic
_cell_length_a                    6.946813
_cell_length_b                    14.387799
_cell_length_c                    15.903529
_cell_angle_alpha                 90.306438
_cell_angle_beta                  89.776848
_cell_angle_gamma                 90.1522
_cell_volume                      1589.50706167

loop_
_atom_site_label
_atom_site_type_symbol
_atom_site_description
_atom_site_fract_x
_atom_site_fract_y
_atom_site_fract_z
_atom_type_partial_charge
O1    O     O_R   0.494320 0.415010 0.412140 -0.559368
O2    O     O_R   0.824010 0.404260 0.587250 -0.596738
O3    O     O_R   0.994320 0.584990 0.587860 -0.596390
C1    C     C_R   0.654385 0.380690 0.615349 0.895331
O4    O     O_R   0.824040 0.403870 0.412760 -0.592862
O5    O     O_R   0.994350 0.584590 0.412130 -0.599981
C2    C     C_R   0.655012 0.381285 0.383678 0.906999
O6    O     O_R   0.494300 0.415410 0.587870 -0.585214
O7    O     O_3   0.660800 0.559290 0.500000 -0.280085
V1    V     V_3+5 0.935650 0.489000 0.500000 1.163327
O8    O     O_R   0.324060 0.595740 0.412750 -0.602617
C3    C     C_R   0.155756 0.619030 0.384649 0.880152
O9    O     O_R   0.324040 0.596130 0.587240 -0.598800
C4    C     C_R   0.154895 0.618517 0.616173 0.901260
V2    V     V_3+5 0.435660 0.511000 0.500000 1.162794
O10   O     O_3   0.160640 0.440710 0.500000 -0.238189
C5    C     C_3   0.954947 0.721840 0.728649 -0.111122
C6    C     C_3   0.048733 0.710081 0.816178 -0.153730
H1    H     H_    0.978923 0.677787 0.871767 0.108635
H2    H     H_    0.807481 0.698739 0.711542 0.118602
C7    C     C_3   0.123033 0.810790 0.811679 -0.090429
C8    C     C_3   0.029359 0.823368 0.724928 -0.095670
C9    C     C_3   0.217700 0.789380 0.682225 -0.108061
C10   C     C_3   0.311476 0.777642 0.769763 -0.064503
C11   C     C_3   0.237088 0.676119 0.773499 -0.151320
C12   C     C_3   0.143394 0.688639 0.686742 -0.102390
H3    H     H_    0.943477 0.884494 0.705404 0.127785
H4    H     H_    0.287517 0.821750 0.626675 0.125102
H5    H     H_    0.458895 0.800816 0.786868 0.120988
H6    H     H_    0.323142 0.615081 0.793077 0.101399
C13   C     C_3   0.317645 0.825055 0.241862 0.295752
H7    H     H_    0.304973 0.891306 0.278268 0.051647
C14   C     C_3   0.339072 0.745446 0.306664 -0.472960
H8    H     H_    0.379713 0.775669 0.368710 0.136564
H9    H     H_    0.456986 0.697360 0.287690 0.190660
H10   H     H_    0.227417 0.696153 0.110939 0.187484
H11   H     H_    0.223070 0.587736 0.216992 0.138168
C15   C     C_3   0.109367 0.712092 0.155841 -0.340967
C16   C     C_3   0.961574 0.826869 0.254398 -0.375270
C17   C     C_3   0.126867 0.813429 0.189709 -0.053463
H12   H     H_    0.827307 0.807198 0.223563 0.265937
H13   H     H_    0.951263 0.900537 0.275564 0.157270
C18   C     C_3   0.147400 0.690126 0.314632 0.097956
C19   C     C_3   0.110175 0.640964 0.229050 -0.362940
C20   C     C_3   0.984041 0.761575 0.330900 -0.408365
H14   H     H_    0.017280 0.803449 0.388084 0.155983
H15   H     H_    0.844663 0.725452 0.342609 0.180512
H16   H     H_    0.973163 0.704107 0.119859 0.168754
H17   H     H_    0.969299 0.603993 0.231244 0.154364
C21   C     C_3   0.432292 0.272322 0.696298 -0.384333
H18   H     H_    0.334891 0.330988 0.712992 0.135211
H19   H     H_    0.380297 0.243353 0.635473 0.217739
C22   C     C_3   0.419885 0.198011 0.766398 0.204330
H20   H     H_    0.314368 0.222501 0.814446 0.090439
H21   H     H_    0.616385 0.414294 0.785014 0.135258
H22   H     H_    0.583853 0.306919 0.890522 0.137055
C23   C     C_3   0.706199 0.352355 0.770197 -0.358076
C24   C     C_3   0.772797 0.223729 0.666419 -0.324083
C25   C     C_3   0.641977 0.308920 0.685294 0.048157
H23   H     H_    0.924106 0.246736 0.656115 0.179365
H24   H     H_    0.724396 0.188704 0.607604 0.173681
C26   C     C_3   0.620561 0.184551 0.809043 0.020073
C27   C     C_3   0.688109 0.280786 0.842692 -0.445995
C28   C     C_3   0.767226 0.153439 0.740281 -0.296053
H25   H     H_    0.730944 0.082945 0.716101 0.181222
H26   H     H_    0.913324 0.148762 0.768241 0.191456
H27   H     H_    0.858138 0.376532 0.765286 0.154910
H28   H     H_    0.829749 0.273961 0.874517 0.167260
C29   C     C_3   0.502212 0.344369 0.242961 -0.317343
H29   H     H_    0.355523 0.354841 0.269585 0.185640
H30   H     H_    0.551067 0.412850 0.218488 0.126432
C30   C     C_3   0.490860 0.273386 0.169374 -0.373345
H31   H     H_    0.534162 0.307783 0.109688 0.129874
H32   H     H_    0.338992 0.249966 0.161982 0.166136
H33   H     H_    0.409430 0.116811 0.263211 0.187199
C31   C     C_3   0.575034 0.213173 0.344256 0.187005
C32   C     C_3   0.843263 0.297368 0.269824 -0.413670
C33   C     C_3   0.642920 0.310605 0.312338 0.016537
H34   H     H_    0.949917 0.273004 0.316758 0.209679
H35   H     H_    0.896577 0.364990 0.245084 0.158144
C34   C     C_3   0.623193 0.188690 0.185818 0.050102
C35   C     C_3   0.559462 0.143063 0.269604 -0.374989
C36   C     C_3   0.832359 0.225793 0.197198 -0.349846
H36   H     H_    0.883189 0.258752 0.137941 0.147208
H37   H     H_    0.931689 0.167248 0.210983 0.172073
H38   H     H_    0.683896 0.186784 0.389345 0.098057
H39   H     H_    0.651598 0.081651 0.282571 0.152824
O11   O     O_R   0.771990 0.083520 0.910980 -0.603507
O12   O     O_R   0.442180 0.095020 0.086060 -0.601523
O13   O     O_R   0.271950 0.914280 0.086680 -0.540183
C37   C     C_R   0.611467 0.118471 0.114363 0.933813
O14   O     O_R   0.442270 0.094630 0.911580 -0.584895
O15   O     O_R   0.272040 0.913890 0.910940 -0.581453
C38   C     C_R   0.611001 0.115196 0.881085 0.893360
O16   O     O_R   0.771900 0.083910 0.086710 -0.594184
O17   O     O_3   0.605520 0.939610 0.998840 -0.215245
V3    V     V_3+5 0.330640 0.009880 0.998810 1.206059
O18   O     O_R   0.942330 0.902710 0.911540 -0.603018
C39   C     C_R   0.111470 0.880591 0.882450 0.945361
O19   O     O_R   0.942240 0.903100 0.086030 -0.545919
C40   C     C_R   0.111457 0.883078 0.117313 0.876836
V4    V     V_3+5 0.830640 0.987830 0.998780 1.213832
O20   O     O_3   0.105630 0.058150 0.998800 -0.293590
Br1   Br    Br    0.315502 0.081593 0.720808 -0.644815
Br2   Br    Br    0.331970 0.216206 0.406752 -0.612345
N1    N     N_R   0.490174 0.832334 0.189489 0.222291
O21   O     O_R   0.542666 0.764523 0.140021 -0.461047
O22   O     O_R   0.581548 0.911392 0.186262 -0.447156

loop_
_geom_bond_atom_site_label_1
_geom_bond_atom_site_label_2
_geom_bond_distance
_ccdc_geom_bond_type
C19   H17   1.113139 S    
C31   Br2   1.956455 S    
O17   V4    1.709164 S    
C6    C7    1.538803 S    
C1    O6    1.298586 A    
C34   C35   1.551041 S    
C16   H12   1.091446 S    
C32   C33   1.556619 S    
C21   C25   1.557122 S    
C31   C33   1.564427 S    
C3    C18   1.517453 S    
C26   C38   1.524501 S    
O5    C3    1.299735 A    
C7    C39   1.506470 S    
C23   C25   1.551435 S    
N1    O21   1.302011 A    
C32   C36   1.545266 S    
C22   Br1   1.960045 S    
C24   H23   1.112952 S    
V2    O10   2.159295 S    
C5    H2    1.110544 S    
C13   C17   1.574238 S    
C6    H1    1.110176 S    
C9    C12   1.539259 S    
C29   H30   1.112997 S    
C10   H5    1.110554 S    
C26   C28   1.556543 S    
C17   C40   1.534651 S    
O8    V2    2.011077 S    
C36   H36   1.113098 S    
C21   H19   1.112435 S    
C9    C10   1.549566 S    
C13   C14   1.552707 S    
O1    V2    2.000941 S    
O12   C37   1.303772 A    
O7    V1    2.163001 S    
O15   C39   1.295308 A    
O13   V3    2.006026 S    
C15   H16   1.113031 S    
C30   C34   1.552317 S    
O16   V4    2.002717 S    
C16   C20   1.549712 S    
C24   H24   1.112841 S    
C20   H15   1.113199 S    
O9    C4    1.300906 A    
C29   C33   1.557385 S    
C29   H29   1.112268 S    
C6    C11   1.550640 S    
C23   H27   1.113045 S    
O19   V4    2.010987 S    
C34   C36   1.557543 S    
O14   V3    2.004347 S    
C23   C27   1.554432 S    
C16   H13   1.112783 S    
C32   H34   1.112406 S    
C24   C28   1.554435 S    
O11   C38   1.301398 A    
C21   C22   1.550793 S    
C14   C18   1.554542 S    
C10   C11   1.549471 S    
C30   H32   1.113128 S    
C31   C35   1.557676 S    
C16   C17   1.550523 S    
O4    C2    1.303404 A    
C21   H18   1.113550 S    
C11   C12   1.539487 S    
O18   V4    2.001324 S    
O12   V3    2.002872 S    
C28   H26   1.111978 S    
C29   C30   1.551238 S    
O2    C1    1.303306 A    
C18   C19   1.552788 S    
O13   C40   1.295129 A    
C15   C19   1.554259 S    
C26   C27   1.553792 S    
C22   C26   1.565588 S    
C13   H7    1.116129 S    
O17   V3    2.163054 S    
O14   C38   1.300750 A    
C5    C6    1.549508 S    
H22   C27   1.112931 S    
C9    H4    1.110173 S    
C4    C12   1.507140 S    
C18   C20   1.553248 S    
V3    O20   1.712129 S    
O3    C4    1.295558 A    
C2    C33   1.521955 S    
C36   H37   1.113534 S    
O6    V2    2.009549 S    
C8    H3    1.110381 S    
O9    V2    2.001225 S    
C13   N1    1.460704 S    
C7    C10   1.542280 S    
C5    C12   1.542476 S    
O2    V1    2.004505 S    
O15   V3    2.001691 S    
C32   H35   1.113378 S    
C11   H6    1.110282 S    
C27   H28   1.113055 S    
O1    C2    1.297324 A    
C30   H31   1.112851 S    
O5    V1    2.005942 S    
O11   V4    2.009778 S    
O8    C3    1.298742 A    
H33   C35   1.112469 S    
C22   H20   1.113308 S    
C5    C8    1.549593 S    
C28   H25   1.111459 S    
H11   C19   1.113006 S    
H21   C23   1.112891 S    
C24   C25   1.555061 S    
O4    V1    2.002864 S    
O3    V1    2.001679 S    
V1    O10   1.712119 S    
C15   C17   1.556238 S    
N1    O22   1.302282 A    
C1    C25   1.523858 S    
H10   C15   1.108934 S    
O19   C40   1.311576 A    
C14   H9    1.113345 S    
C14   H8    1.113292 S    
O7    V2    1.709698 S    
V4    O20   2.159313 S    
C37   O16   1.295981 A    
C34   C37   1.518791 S    
C20   H14   1.112838 S    
O18   C39   1.300798 A    
C31   H38   1.113075 S    
C8    C9    1.550839 S    
C7    C8    1.539459 S    
C35   H39   1.113051 S    
