data_mof_unit_16830.cif
_audit_creation_date              2013-03-05T16:40:24-0500
_audit_creation_method            fapswitch 2.2
_symmetry_space_group_name_H-M    P1
_symmetry_Int_Tables_number       1
_space_group_crystal_system       triclinic
_cell_length_a                    13.083334
_cell_length_b                    17.660974
_cell_length_c                    16.60955
_cell_angle_alpha                 90.887659
_cell_angle_beta                  97.371257
_cell_angle_gamma                 95.423413
_cell_volume                      3787.63714997

loop_
_atom_site_label
_atom_site_type_symbol
_atom_site_description
_atom_site_fract_x
_atom_site_fract_y
_atom_site_fract_z
_atom_type_partial_charge
O1    O     O_R   0.499990 0.391240 0.567930 -0.595339
O2    O     O_R   0.500010 0.608760 0.432070 -0.594067
O3    O     O_R   0.500000 0.391270 0.432120 -0.526542
O4    O     O_R   0.500000 0.608730 0.567880 -0.525105
C1    C     C_R   0.505774 0.355874 0.500312 0.853426
C2    C     C_R   0.494133 0.644104 0.499663 0.854302
O5    O     O_R   0.348990 0.499980 0.556880 -0.596972
O6    O     O_R   0.651010 0.500020 0.443120 -0.596527
O7    O     O_R   0.349000 0.500000 0.421060 -0.528561
O8    O     O_R   0.651000 0.500000 0.578940 -0.531558
C3    C     C_R   0.301074 0.503331 0.484829 0.836697
C4    C     C_R   0.698915 0.496681 0.515179 0.835558
Cu1   Cu    Cu3+1 0.500000 0.499980 0.580420 1.020135
Cu2   Cu    Cu3+1 0.500000 0.500020 0.419580 1.020953
C5    C     C_R   0.811559 0.496364 0.523378 -0.134431
C6    C     C_R   0.188385 0.503395 0.476669 -0.130266
C7    C     C_R   0.024461 0.456573 0.400631 -0.021317
C8    C     C_R   0.975560 0.542511 0.599640 -0.024634
C9    C     C_R   0.131231 0.467033 0.409033 -0.237961
C10   C     C_R   0.868794 0.532419 0.591157 -0.230698
C11   C     C_R   0.138335 0.535714 0.537370 -0.062436
C12   C     C_R   0.861488 0.463873 0.462696 -0.062599
C13   C     C_R   0.029131 0.519945 0.534949 0.062090
C14   C     C_R   0.970777 0.479312 0.465207 0.064286
H1    H     H_    0.829683 0.552373 0.639454 0.246685
H2    H     H_    0.170453 0.447045 0.360832 0.244432
C15   C     C_R   0.506197 0.847053 0.573945 -0.055447
C16   C     C_R   0.491839 0.153081 0.425166 -0.055511
C17   C     C_R   0.511984 0.768847 0.570693 -0.214546
C18   C     C_R   0.487347 0.231413 0.428782 -0.211817
H3    H     H_    0.541170 0.740987 0.625205 0.234609
H4    H     H_    0.459366 0.259720 0.374275 0.229589
C19   C     C_R   0.480342 0.726122 0.499029 -0.151229
C20   C     C_R   0.518883 0.273738 0.500730 -0.153823
C21   C     C_R   0.432336 0.761566 0.429847 -0.145594
C22   C     C_R   0.565813 0.237713 0.569926 -0.145731
C23   C     C_R   0.424267 0.841112 0.432750 0.411909
C24   C     C_R   0.572636 0.158036 0.566646 0.413812
C25   C     C_R   0.469341 0.884219 0.503158 -0.074090
C26   C     C_R   0.527414 0.115428 0.495955 -0.073593
C27   C     C_1   0.488690 0.965855 0.500695 0.119946
C28   C     C_1   0.507344 0.033801 0.498115 0.118007
C29   C     C_R   0.553877 0.556484 0.838021 -0.262611
C30   C     C_R   0.445444 0.443847 0.161895 -0.262494
C31   C     C_R   0.562238 0.554302 0.752827 0.557776
C32   C     C_R   0.437360 0.445901 0.247161 0.559893
N1    N     N_R   0.499970 0.499970 0.701220 -0.260739
N2    N     N_R   0.500030 0.500030 0.298780 -0.259997
C33   C     C_R   0.434664 0.447910 0.733792 -0.132806
C34   C     C_R   0.566381 0.551403 0.266306 -0.132510
H5    H     H_    0.385993 0.407032 0.693256 0.208982
H6    H     H_    0.615588 0.591943 0.306894 0.208920
C35   C     C_R   0.429895 0.445918 0.818472 0.374791
C36   C     C_R   0.571965 0.552876 0.181707 0.371905
C37   C     C_R   0.491903 0.499924 0.872451 -0.128519
C38   C     C_R   0.508631 0.499710 0.127594 -0.128580
C39   C     C_1   0.496403 0.498889 0.962642 0.113051
C40   C     C_1   0.504349 0.500712 0.037416 0.113403
C41   C     C_R   0.800227 0.404945 0.406369 0.092718
C42   C     C_R   0.793104 0.328468 0.428827 -0.190324
C43   C     C_R   0.732307 0.272930 0.378225 -0.125191
C44   C     C_R   0.678620 0.293251 0.304718 -0.115401
C45   C     C_R   0.686225 0.369071 0.281518 -0.107193
C46   C     C_R   0.746421 0.424758 0.332108 -0.038639
H7    H     H_    0.834966 0.311905 0.485282 0.142191
H8    H     H_    0.726658 0.214150 0.396082 0.142627
H9    H     H_    0.631459 0.250236 0.265671 0.129925
H10   H     H_    0.645936 0.384850 0.224248 0.116980
H11   H     H_    0.751750 0.483330 0.313556 0.143606
C47   C     C_R   0.199130 0.595056 0.593448 0.090362
C48   C     C_R   0.254032 0.575676 0.667422 -0.042707
C49   C     C_R   0.313730 0.631766 0.717747 -0.107179
C50   C     C_R   0.319696 0.707603 0.694617 -0.114453
C51   C     C_R   0.264795 0.727520 0.621450 -0.129792
C52   C     C_R   0.204426 0.671562 0.571132 -0.191864
H12   H     H_    0.250001 0.517105 0.685959 0.142634
H13   H     H_    0.354914 0.616241 0.774740 0.116950
H14   H     H_    0.366504 0.750931 0.733470 0.131939
H15   H     H_    0.269127 0.786311 0.603648 0.141986
H16   H     H_    0.161529 0.687813 0.514984 0.142531
S1    S     S_3+6 0.343020 0.376572 0.854128 -0.063363
O9    O     O_2   0.403422 0.328344 0.912556 -0.335250
O10   O     O_2   0.267340 0.415851 0.896617 -0.352973
O11   O     O_3   0.278332 0.321177 0.777318 -0.561974
H17   H     H_    0.232625 0.283954 0.803562 0.375214
S2    S     S_3+6 0.661620 0.620381 0.146365 -0.061404
O12   O     O_2   0.731252 0.579701 0.099022 -0.352120
O13   O     O_2   0.602968 0.673274 0.092467 -0.331649
O14   O     O_3   0.733523 0.670640 0.223940 -0.560687
H18   H     H_    0.780956 0.706789 0.197963 0.376811
C53   C     C_R   0.975962 0.426129 0.319947 0.107057
C54   C     C_R   0.948904 0.476395 0.257769 -0.145493
C55   C     C_R   0.910641 0.448066 0.179501 -0.102377
C56   C     C_R   0.900755 0.369705 0.162632 -0.129671
C57   C     C_R   0.930196 0.319566 0.223769 -0.138762
C58   C     C_R   0.968945 0.347663 0.302007 -0.107113
H19   H     H_    0.957410 0.537254 0.270035 0.146749
H20   H     H_    0.889219 0.486840 0.131815 0.173217
H21   H     H_    0.871036 0.347887 0.102041 0.128526
H22   H     H_    0.923549 0.258980 0.210429 0.132558
H23   H     H_    0.993052 0.308508 0.348679 0.140802
C59   C     C_R   0.024225 0.571999 0.680631 0.104723
C60   C     C_R   0.029788 0.650074 0.700146 -0.067520
C61   C     C_R   0.068625 0.677119 0.778722 -0.109818
C62   C     C_R   0.099629 0.626282 0.838636 -0.126228
C63   C     C_R   0.091159 0.548264 0.820217 -0.105962
C64   C     C_R   0.052853 0.520989 0.741598 -0.151104
H24   H     H_    0.004503 0.689747 0.654429 0.133003
H25   H     H_    0.074145 0.737422 0.793277 0.123136
H26   H     H_    0.129404 0.647271 0.899497 0.126315
H27   H     H_    0.113623 0.508932 0.867004 0.174610
H28   H     H_    0.045461 0.460366 0.728135 0.147151
C65   C     C_R   0.532125 0.886702 0.654198 0.145517
C66   C     C_R   0.455615 0.922116 0.688547 -0.129443
C67   C     C_R   0.474815 0.950403 0.768713 -0.066723
C68   C     C_R   0.570849 0.944476 0.814697 -0.080184
C69   C     C_R   0.647752 0.910058 0.780665 -0.097113
C70   C     C_R   0.628420 0.880881 0.700865 -0.031800
H29   H     H_    0.380119 0.925592 0.654177 0.121065
H30   H     H_    0.415186 0.976837 0.795231 0.127005
H31   H     H_    0.585597 0.966441 0.876715 0.114627
H32   H     H_    0.721877 0.905093 0.816458 0.117060
H33   H     H_    0.687861 0.852903 0.675721 0.137190
C71   C     C_R   0.466132 0.113845 0.344615 0.127869
C72   C     C_R   0.541350 0.075588 0.311835 -0.110999
C73   C     C_R   0.523052 0.047571 0.231571 -0.067224
C74   C     C_R   0.429163 0.056603 0.183857 -0.142899
C75   C     C_R   0.353446 0.093791 0.216281 -0.083967
C76   C     C_R   0.371926 0.122731 0.296175 -0.019459
H34   H     H_    0.615369 0.069719 0.347499 0.122105
H35   H     H_    0.581749 0.018937 0.206297 0.133977
H36   H     H_    0.415118 0.034809 0.121765 0.118639
H37   H     H_    0.280980 0.101106 0.179153 0.129562
H38   H     H_    0.313508 0.152935 0.319981 0.154420
C77   C     C_R   0.387944 0.715499 0.355746 0.181355
C78   C     C_R   0.297903 0.665496 0.356231 -0.078858
C79   C     C_R   0.256595 0.621491 0.286903 -0.070194
C80   C     C_R   0.304458 0.627443 0.216480 -0.120066
C81   C     C_R   0.393645 0.677413 0.215333 -0.157773
C82   C     C_R   0.436167 0.720650 0.284941 -0.040239
H39   H     H_    0.260283 0.660335 0.410325 0.094622
H40   H     H_    0.187460 0.582842 0.287739 0.141072
H41   H     H_    0.272559 0.593292 0.162851 0.139707
H42   H     H_    0.430255 0.682133 0.160632 0.181722
H43   H     H_    0.506502 0.757989 0.283755 0.170194
C83   C     C_R   0.610035 0.283233 0.644422 0.186050
C84   C     C_R   0.562971 0.276224 0.715689 -0.029121
C85   C     C_R   0.605486 0.318866 0.785696 -0.144676
C86   C     C_R   0.693493 0.370042 0.784570 -0.136380
C87   C     C_R   0.740254 0.377785 0.713750 -0.080195
C88   C     C_R   0.699015 0.334375 0.643999 -0.062316
H44   H     H_    0.493643 0.237811 0.716965 0.164810
H45   H     H_    0.569860 0.312661 0.840738 0.185300
H46   H     H_    0.725375 0.403696 0.838548 0.139598
H47   H     H_    0.808513 0.417337 0.712939 0.140335
H48   H     H_    0.735854 0.340872 0.589621 0.091863
S3    S     S_3+6 0.353047 0.884958 0.350191 -0.021554
O15   O     O_2   0.254972 0.835403 0.321094 -0.304980
O16   O     O_2   0.324355 0.961656 0.374417 -0.294027
O17   O     O_3   0.425961 0.894556 0.274083 -0.560671
H49   H     H_    0.375978 0.893478 0.223867 0.371442
S4    S     S_3+6 0.641607 0.112771 0.649187 -0.029159
O18   O     O_2   0.571506 0.097910 0.713191 -0.328613
O19   O     O_2   0.676384 0.038965 0.621989 -0.304466
O20   O     O_3   0.747224 0.169210 0.689297 -0.538574
H50   H     H_    0.770828 0.146105 0.741547 0.373741
C89   C     C_R   0.606275 0.621251 0.890876 0.186682
C90   C     C_R   0.554726 0.686605 0.899921 -0.045939
C91   C     C_R   0.608891 0.752936 0.936653 -0.063410
C92   C     C_R   0.713980 0.753842 0.966306 -0.091792
C93   C     C_R   0.764402 0.687933 0.960904 -0.048083
C94   C     C_R   0.710446 0.621450 0.924272 0.043686
H51   H     H_    0.474319 0.687438 0.874983 0.096667
H52   H     H_    0.569674 0.803784 0.941428 0.112416
H53   H     H_    0.755950 0.805288 0.994353 0.117896
H54   H     H_    0.845410 0.688409 0.984802 0.124368
H55   H     H_    0.750739 0.571136 0.919050 0.131368
C95   C     C_R   0.391927 0.379558 0.108908 0.191632
C96   C     C_R   0.440968 0.312733 0.101630 -0.047417
C97   C     C_R   0.384984 0.246941 0.065196 -0.054330
C98   C     C_R   0.280618 0.247977 0.034167 -0.071804
C99   C     C_R   0.232738 0.315214 0.038048 -0.045572
C100  C     C_R   0.288578 0.381212 0.074240 0.031229
H56   H     H_    0.520674 0.310447 0.127812 0.094530
H57   H     H_    0.422235 0.195042 0.061659 0.111524
H58   H     H_    0.237221 0.196954 0.006341 0.110491
H59   H     H_    0.152254 0.316176 0.013232 0.119676
H60   H     H_    0.250221 0.432602 0.078293 0.132474
S5    S     S_3+6 0.664870 0.620465 0.722920 -0.038230
O21   O     O_2   0.765282 0.596396 0.764144 -0.382844
O22   O     O_2   0.675896 0.629058 0.635153 -0.291181
O23   O     O_3   0.651844 0.708435 0.757770 -0.601563
H61   H     H_    0.723085 0.734205 0.767819 0.363753
S6    S     S_3+6 0.335679 0.378921 0.277364 -0.039331
O24   O     O_2   0.349144 0.300589 0.246477 -0.381790
O25   O     O_2   0.323771 0.371142 0.365064 -0.293407
O26   O     O_3   0.222888 0.404574 0.230597 -0.606752
H62   H     H_    0.174007 0.357916 0.227479 0.371265

loop_
_geom_bond_atom_site_label_1
_geom_bond_atom_site_label_2
_geom_bond_distance
_ccdc_geom_bond_type
C94   H55   1.083019 S    
S6    O25   1.491778 D    
C62   H26   1.082157 S    
C27   C28   1.204282 T    
O20   H50   0.990483 S    
C15   C17   1.390993 A    
C50   C51   1.397714 A    
C62   C63   1.397782 A    
C57   C58   1.398339 A    
C7    C53   1.477374 S    
C69   H32   1.082310 S    
C79   H40   1.082166 S    
C77   C82   1.404366 A    
C66   C67   1.398369 A    
C77   C78   1.404889 A    
N1    C33   1.361472 A    
O2    C2    1.290546 A    
C98   C99   1.398295 A    
O5    C3    1.282719 A    
C41   C46   1.405879 A    
C55   C56   1.398348 A    
C44   H9    1.082554 S    
O1    C1    1.290828 A    
C56   H21   1.082454 S    
C21   C23   1.419276 A    
C96   H56   1.081827 S    
C80   H41   1.082489 S    
C6    C9    1.380184 A    
C61   H25   1.082092 S    
S2    O13   1.499345 D    
S6    O26   1.682087 S    
C10   H1    1.077124 S    
C16   C26   1.408400 A    
C67   C68   1.397880 A    
C17   C19   1.394366 A    
C68   C69   1.397230 A    
C8    C10   1.380036 A    
C35   S1    1.753454 S    
C8    C59   1.477173 S    
C31   N1    1.402404 A    
C23   S3    1.785981 S    
O4    Cu1   1.935097 S    
S5    O22   1.491851 D    
C9    H2    1.076949 S    
C74   H36   1.082244 S    
C49   H13   1.080138 S    
C7    C9    1.380351 A    
C53   C58   1.404916 A    
C99   C100  1.399410 A    
C43   H8    1.082486 S    
C5    C12   1.411990 A    
C56   C57   1.398432 A    
C92   C93   1.398311 A    
C84   C85   1.398697 A    
C15   C25   1.408544 A    
C99   H59   1.082225 S    
C33   H5    1.080748 S    
C34   H6    1.080784 S    
C91   H52   1.082287 S    
C60   H24   1.082961 S    
O26   H62   0.990595 S    
C52   H16   1.082372 S    
S4    O19   1.502256 D    
C95   C100  1.403181 A    
C92   H53   1.082141 S    
N2    C34   1.361662 A    
S6    O24   1.501784 D    
C41   C42   1.404592 A    
S3    O16   1.501883 D    
C24   C26   1.416033 A    
Cu1   Cu2   2.671489 S    
C75   C76   1.397836 A    
S3    O15   1.503818 D    
C43   C44   1.397856 A    
C75   H37   1.082341 S    
C72   H34   1.083124 S    
C61   C62   1.397828 A    
S1    O10   1.501212 D    
C89   C90   1.406198 A    
C30   C32   1.433783 A    
C54   H19   1.083491 S    
C32   S6    1.820139 S    
C36   C38   1.418368 A    
C63   H27   1.081435 S    
C35   C37   1.418568 A    
C90   H51   1.081564 S    
C32   N2    1.402610 A    
C7    C14   1.427696 A    
C68   H31   1.082243 S    
C18   C20   1.394484 A    
C59   C60   1.404568 A    
C91   C92   1.398236 A    
C95   C96   1.406327 A    
C98   H58   1.082148 S    
C58   H23   1.083369 S    
C85   C86   1.397252 A    
C25   C27   1.442206 S    
C51   C52   1.398735 A    
C21   C77   1.486704 S    
C12   C41   1.490142 S    
C36   S2    1.753796 S    
O7    Cu2   1.978854 S    
S2    O12   1.501490 D    
C49   C50   1.396927 A    
Cu2   N2    2.006487 S    
C88   H48   1.079667 S    
C50   H14   1.082478 S    
S2    O14   1.681900 S    
S1    O9    1.499276 D    
C45   C46   1.397051 A    
C5    C10   1.380192 A    
S5    O23   1.680899 S    
C86   H46   1.082470 S    
C78   H39   1.079524 S    
S4    O20   1.682159 S    
O7    C3    1.301516 A    
C81   H42   1.080891 S    
C30   C38   1.401965 A    
C26   C28   1.442557 S    
C8    C13   1.427368 A    
C4    C5    1.463090 S    
C24   S4    1.784880 S    
O6    C4    1.282766 A    
C1    C20   1.476734 S    
C44   C45   1.397165 A    
C59   C64   1.404302 A    
C64   H28   1.083108 S    
C34   C36   1.416904 A    
C46   H11   1.082413 S    
O11   H17   0.990571 S    
C29   C31   1.433381 A    
C93   C94   1.399344 A    
C47   C48   1.405629 A    
O3    Cu2   1.935095 S    
O8    C4    1.301299 A    
C15   C65   1.480649 S    
C31   S5    1.818715 S    
C90   C91   1.398837 A    
C42   H7    1.082497 S    
S3    O17   1.679961 S    
C87   H47   1.082185 S    
C37   C39   1.492093 S    
C72   C73   1.398113 A    
C12   C14   1.425213 A    
O4    C2    1.299495 A    
O1    Cu1   1.928414 S    
C85   H45   1.080679 S    
C30   C95   1.488157 S    
C74   C75   1.397010 A    
C53   C54   1.404980 A    
S1    O11   1.681899 S    
C97   C98   1.398161 A    
Cu1   N1    2.006487 S    
C65   C66   1.404474 A    
C93   H54   1.082210 S    
C29   C37   1.402096 A    
C45   H10   1.080584 S    
O6    Cu2   1.964204 S    
C57   H22   1.082456 S    
C66   H29   1.083119 S    
C78   C79   1.398288 A    
O3    C1    1.299333 A    
O8    Cu1   1.978853 S    
C82   H43   1.082785 S    
C81   C82   1.398784 A    
C16   C71   1.481577 S    
C6    C11   1.411843 A    
C89   C94   1.403662 A    
C29   C89   1.488375 S    
C96   C97   1.398735 A    
S4    O18   1.501178 D    
C83   C88   1.405223 A    
C79   C80   1.396663 A    
C69   C70   1.398026 A    
C2    C19   1.476558 S    
C11   C47   1.490186 S    
C51   H15   1.082312 S    
O23   H61   0.990603 S    
C11   C13   1.424863 A    
C84   H44   1.082809 S    
C48   C49   1.396652 A    
C23   C25   1.416168 A    
C100  H60   1.083044 S    
O17   H49   0.990386 S    
C22   C24   1.419046 A    
C18   H4    1.080350 S    
C39   C40   1.232603 T    
C48   H12   1.082270 S    
C73   H35   1.082237 S    
C73   C74   1.397715 A    
C33   C35   1.416693 A    
C16   C18   1.390888 A    
C54   C55   1.398713 A    
C19   C21   1.420610 A    
C20   C22   1.420618 A    
C38   C40   1.492102 S    
C71   C76   1.406095 A    
C83   C84   1.404574 A    
C70   H33   1.083035 S    
S5    O21   1.503050 D    
O2    Cu2   1.928415 S    
C76   H38   1.083108 S    
C3    C6    1.463257 S    
C80   C81   1.397265 A    
C13   C14   1.443401 A    
C65   C70   1.405347 A    
O5    Cu1   1.964205 S    
C22   C83   1.486479 S    
C17   H3    1.080882 S    
C67   H30   1.082230 S    
C63   C64   1.398322 A    
C97   H57   1.082228 S    
C60   C61   1.397951 A    
C87   C88   1.398198 A    
C42   C43   1.398779 A    
C47   C52   1.404378 A    
O14   H18   0.990565 S    
C86   C87   1.396605 A    
C55   H20   1.082101 S    
C71   C72   1.404699 A    
