data_mof_unit_61132.cif
_audit_creation_date              2012-12-10T18:08:16-0500
_audit_creation_method            fapswitch 2.2
_symmetry_space_group_name_H-M    P1
_symmetry_Int_Tables_number       1
_space_group_crystal_system       triclinic
_cell_length_a                    18.700586
_cell_length_b                    18.843319
_cell_length_c                    18.721095
_cell_angle_alpha                 109.73568
_cell_angle_beta                  109.290058
_cell_angle_gamma                 109.605521
_cell_volume                      5064.59818112

loop_
_atom_site_label
_atom_site_type_symbol
_atom_type_description
_atom_site_fract_x
_atom_site_fract_y
_atom_site_fract_z
_atom_type_partial_charge
C1    C     C_R   0.379428 0.499340 0.379707 0.919413
C2    C     C_R   0.312265 0.497328 0.312924 -0.149530
C3    C     C_R   0.332154 0.246292 0.511827 0.144763
C4    C     C_R   0.617330 0.619610 0.497122 0.969549
C5    C     C_R   0.265111 0.178608 0.506551 -0.068155
C6    C     C_R   0.188227 0.182109 0.496851 -0.136640
C7    C     C_R   0.177534 0.250111 0.491058 -0.140636
C8    C     C_R   0.242966 0.315879 0.495373 -0.167002
C9    C     C_R   0.319073 0.313611 0.504796 -0.090418
C10   C     C_R   0.758725 0.499803 0.678188 -0.047283
C11   C     C_R   0.819082 0.493330 0.739385 0.050434
C12   C     C_R   0.814951 0.815853 0.569025 0.082976
C13   C     C_R   0.812836 0.498919 0.813750 -0.149829
C14   C     C_R   0.743568 0.504155 0.825131 0.129808
C15   C     C_R   0.678486 0.502475 0.759761 -0.092015
C16   C     C_R   0.620463 0.500517 0.620353 0.914553
C17   C     C_R   0.687221 0.501410 0.687365 -0.177260
C18   C     C_R   0.999792 0.879702 0.379462 0.876556
C19   C     C_R   0.879817 0.878031 0.497547 0.921159
C20   C     C_R   0.000307 0.120492 0.620642 0.870364
C21   C     C_R   0.120529 0.118387 0.498391 0.845387
C22   C     C_R   0.999601 0.619970 0.119702 0.867976
C23   C     C_3   0.866687 0.870988 0.666351 -0.446859
C24   C     C_R   0.120320 0.497857 0.117991 0.860348
C25   C     C_R   0.000874 0.380238 0.880910 0.824741
C26   C     C_R   0.879574 0.499859 0.880042 0.906470
C27   C     C_R   0.968971 0.803145 0.228933 -0.115544
C28   C     C_R   0.382231 0.379962 0.502331 0.875162
C29   C     C_R   0.968666 0.739598 0.163700 -0.062036
C30   C     C_R   0.998461 0.685790 0.184493 -0.141705
C31   C     C_R   0.028810 0.695982 0.268548 0.164168
C32   C     C_R   0.029280 0.760099 0.332434 -0.173190
C33   C     C_R   0.999253 0.813226 0.312591 -0.111170
C34   C     C_3   0.793168 0.801940 0.666037 -0.403099
C35   C     C_R   0.928134 0.197922 0.668720 -0.161372
C36   C     C_R   0.928825 0.261255 0.733563 -0.131976
C37   C     C_R   0.003014 0.314661 0.816930 -0.081566
C38   C     C_R   0.077489 0.304991 0.837616 -0.040367
C39   C     C_R   0.075535 0.240243 0.771761 -0.126389
C40   C     C_R   0.750695 0.756627 0.568707 0.114592
C41   C     C_R   0.001337 0.187318 0.687877 -0.085222
C42   C     C_R   0.679330 0.683743 0.492120 -0.173210
C43   C     C_R   0.672990 0.672770 0.410936 0.119636
C44   C     C_R   0.741307 0.735672 0.411352 0.114509
C45   C     C_R   0.234000 0.417475 0.249022 0.136937
C46   C     C_R   0.812901 0.809090 0.492689 -0.188966
C47   C     C_2   0.271866 0.102024 0.505981 0.509268
C48   C     C_2   0.772918 0.507998 0.606995 0.479272
C49   C     C_2   0.599013 0.497493 0.764027 0.536779
C50   C     C_2   0.936379 0.729670 0.074808 0.475686
C51   C     C_2   0.155820 0.359969 0.927153 0.418457
C52   C     C_2   0.091116 0.331514 0.107315 0.532392
C53   C     C_R   0.170786 0.415402 0.180974 -0.069496
C54   C     C_R   0.186533 0.494297 0.181104 -0.174111
C55   C     C_R   0.264502 0.572432 0.245031 -0.146774
C56   C     C_R   0.327745 0.574526 0.310852 0.146615
H1    H     H_    0.118912 0.252962 0.484531 0.170575
H2    H     H_    0.814124 0.763616 0.693037 0.230596
H3    H     H_    0.754628 0.826575 0.690091 0.217301
H4    H     H_    0.275827 0.632532 0.244537 0.189427
H5    H     H_    0.215044 0.036949 0.461030 0.042609
H6    H     H_    0.793786 0.468037 0.572358 0.098751
H7    H     H_    0.534543 0.449656 0.706836 0.045060
H8    H     H_    0.933206 0.679006 0.022184 0.062000
H9    H     H_    0.156903 0.408281 0.980001 0.045257
H10   H     H_    0.069548 0.318310 0.040498 0.023126
H11   H     H_    0.233639 0.367919 0.489737 0.170749
H12   H     H_    0.946523 0.845529 0.215034 0.205366
H13   H     H_    0.052711 0.768069 0.397391 0.185100
H14   H     H_    0.870260 0.156756 0.604121 0.169886
H15   H     H_    0.871922 0.269390 0.718669 0.159864
H16   H     H_    0.131832 0.231192 0.785492 0.202069
H17   H     H_    0.930385 0.873162 0.694328 0.226469
H18   H     H_    0.870171 0.935340 0.689784 0.205952
I1    I     I_    0.559007 0.566485 0.288976 -0.185888
I2    I     I_    0.446138 0.696326 0.402418 -0.282734
I3    I     I_    0.452724 0.248053 0.530340 -0.259291
I4    I     I_    0.918107 0.472169 0.717298 -0.332788
I5    I     I_    0.735177 0.512069 0.939574 -0.185661
I6    I     I_    0.740202 0.716252 0.291280 -0.196577
I7    I     I_    0.078806 0.619847 0.304708 -0.278545
I8    I     I_    0.212546 0.300977 0.256095 -0.216157
O1    O     O_R   0.408340 0.551690 0.460080 -0.602314
O2    O     O_R   0.051700 0.643420 0.091650 -0.628992
O3    O     O_R   0.039910 0.448390 0.091720 -0.605161
O4    O     O_R   0.408400 0.448280 0.356690 -0.594811
O5    O     O_R   0.143340 0.551810 0.091690 -0.617499
O6    O     O_R   0.948300 0.356760 0.908530 -0.621084
O7    O     O_R   0.051730 0.460180 0.908500 -0.600068
O8    O     O_R   0.856660 0.448370 0.908490 -0.601163
O9    O     O_R   0.960090 0.551790 0.908450 -0.596685
O10   O     O_R   0.591580 0.643330 0.551700 -0.617811
O11   O     O_R   0.591640 0.539920 0.448310 -0.581265
O12   O     O_R   0.948260 0.908480 0.356680 -0.607680
O13   O     O_R   0.591600 0.551720 0.643310 -0.624533
O14   O     O_R   0.591660 0.448310 0.539920 -0.596205
O15   O     O_R   0.408360 0.460080 0.551690 -0.626953
O16   O     O_R   0.408420 0.356670 0.448300 -0.589766
O17   O     O_R   0.051710 0.908420 0.460050 -0.627509
O18   O     O_2   0.338722 0.110820 0.558121 -0.507573
O19   O     O_2   0.763699 0.561537 0.588044 -0.576727
O20   O     O_2   0.604894 0.549554 0.829067 -0.497365
O21   O     O_2   0.912332 0.778060 0.058938 -0.530367
O22   O     O_2   0.220395 0.351671 0.943248 -0.529976
O23   O     O_R   0.960120 0.908380 0.551680 -0.617449
O24   O     O_2   0.046481 0.278778 0.120459 -0.509823
O25   O     O_R   0.856660 0.908440 0.448310 -0.597713
O26   O     O_R   0.051740 0.091590 0.643330 -0.620733
O27   O     O_R   0.948290 0.091650 0.539960 -0.619272
O28   O     O_R   0.143330 0.091630 0.551690 -0.614340
O29   O     O_R   0.039880 0.091690 0.448320 -0.610745
O30   O     O_R   0.948270 0.540000 0.091680 -0.576394
Zn1   Zn    Zn3+2 0.499960 0.569050 0.569040 1.045743
Zn2   Zn    Zn3+2 0.500040 0.430950 0.430960 1.081471
Zn3   Zn    Zn3+2 0.069080 0.999990 0.569020 1.021073
Zn4   Zn    Zn3+2 0.930920 0.000070 0.430980 1.034033
Zn5   Zn    Zn3+2 0.930940 0.431040 0.000110 1.062147
Zn6   Zn    Zn3+2 0.069060 0.569140 0.000070 1.034841

loop_
_geom_bond_atom_site_label_1
_geom_bond_atom_site_label_2
_ccdc_geom_bond_type
C28   O15   A    
C55   C56   A    
C56   I2    S    
C27   C29   A    
C50   H8    S    
O1    Zn1   S    
C45   I8    S    
C20   C41   S    
C19   C46   S    
C7    C8    A    
C39   C41   A    
C53   C54   A    
C27   C33   A    
C5    C47   S    
C12   C23   S    
C29   C30   A    
C34   C40   S    
O26   Zn3   S    
C36   C37   A    
O17   Zn3   S    
C5    C6    A    
O16   Zn2   S    
C10   C17   A    
C24   C54   S    
C1    C2    S    
C51   H9    S    
C27   H12   S    
O27   Zn4   S    
C25   C37   S    
C35   C36   A    
C35   H14   S    
C8    C9    A    
C39   H16   S    
O29   Zn4   S    
O10   Zn1   S    
C36   H15   S    
C29   C50   S    
C40   C42   A    
C45   C53   A    
C50   O21   D    
C13   C14   A    
O14   Zn2   S    
C23   H17   S    
C21   O29   A    
C44   C46   A    
C21   O28   A    
C49   H7    S    
C2    C45   A    
C43   I1    S    
C38   C39   A    
C16   O14   A    
O8    Zn5   S    
C44   I6    S    
O5    Zn6   S    
C12   C46   A    
C49   O20   D    
O12   Zn4   S    
C16   C17   S    
C38   C51   S    
C51   O22   D    
C6    C21   S    
C25   O6    A    
C47   O18   D    
C4    O11   A    
C22   O2    A    
C12   C40   A    
C43   C44   A    
C37   C38   A    
C3    C9    A    
C11   I4    S    
C48   H6    S    
C31   C32   A    
C23   C34   S    
O9    Zn6   S    
C14   I5    S    
O3    Zn5   S    
C6    C7    A    
C19   O23   A    
C22   O30   A    
C10   C48   S    
C34   H3    S    
C18   O12   A    
C13   C26   S    
C26   O8    A    
C18   O17   A    
C23   H18   S    
O15   Zn1   S    
C3    I3    S    
C52   H10   S    
C52   C53   S    
C24   O3    A    
C28   O16   A    
C1    O4    A    
C15   C17   A    
C54   C55   A    
C16   O13   A    
C22   C30   S    
O23   Zn3   S    
C3    C5    A    
C47   H5    S    
C24   O5    A    
C32   H13   S    
C1    O1    A    
C25   O7    A    
C31   I7    S    
O30   Zn5   S    
O4    Zn2   S    
C32   C33   A    
C26   O9    A    
C2    C56   A    
C11   C13   A    
C30   C31   A    
C4    C42   S    
O13   Zn1   S    
C48   O19   D    
O11   Zn2   S    
C15   C49   S    
C35   C41   A    
C18   C33   S    
O25   Zn4   S    
C10   C11   A    
C52   O24   D    
C20   O27   A    
O7    Zn6   S    
C8    H11   S    
O2    Zn6   S    
C42   C43   A    
C34   H2    S    
C14   C15   A    
C4    O10   A    
O6    Zn5   S    
C55   H4    S    
O28   Zn3   S    
C7    H1    S    
C9    C28   S    
C20   O26   A    
C19   O25   A    
