data_mof_unit_67085.cif
_audit_creation_date              2012-12-11T17:41:24-0500
_audit_creation_method            fapswitch 2.2
_symmetry_space_group_name_H-M    P1
_symmetry_Int_Tables_number       1
_space_group_crystal_system       triclinic
_cell_length_a                    8.306008
_cell_length_b                    12.91728
_cell_length_c                    14.285792
_cell_angle_alpha                 93.352131
_cell_angle_beta                  90.780831
_cell_angle_gamma                 99.736868
_cell_volume                      1507.64252203

loop_
_atom_site_label
_atom_site_type_symbol
_atom_type_description
_atom_site_fract_x
_atom_site_fract_y
_atom_site_fract_z
_atom_type_partial_charge
Ba1   Ba    Ba6+2 0.855630 0.555280 0.454520 1.634640
Ba2   Ba    Ba6+2 0.334200 0.444810 0.545490 1.631831
C1    C     C_3   0.642077 0.933451 0.155316 0.190363
C2    C     C_R   0.189349 0.485388 0.192610 0.020242
C3    C     C_R   0.349713 0.526654 0.220629 -0.295631
C4    C     C_3   0.177499 0.862507 0.190301 0.370658
C5    C     C_R   0.461254 0.575528 0.158659 0.047923
C6    C     C_R   0.415637 0.581566 0.064893 -0.060254
C7    C     C_R   0.256246 0.538418 0.032545 0.014475
C8    C     C_R   0.142613 0.487346 0.095738 -0.050585
C9    C     C_R   0.054401 0.499826 0.901773 -0.075031
C10   C     C_R   0.940630 0.448524 0.965140 -0.029614
C11   C     C_R   0.008606 0.499408 0.804214 0.053742
C12   C     C_3   0.634588 0.836463 0.211645 0.399112
C13   C     C_R   0.856429 0.443305 0.773669 -0.340176
C14   C     C_R   0.740000 0.401684 0.837200 -0.010345
C15   C     C_R   0.780321 0.406365 0.932916 0.279835
C16   C     C_3   0.128596 0.923029 0.108178 -0.351912
C17   C     C_R   0.209318 0.547886 0.938369 -0.009118
C18   C     C_R   0.750388 0.176361 0.551241 -0.266547
C19   C     C_R   0.440932 0.812439 0.449234 -0.179240
C20   C     C_R   0.405329 0.992797 0.431722 -0.128854
C21   C     C_R   0.347977 0.885779 0.416703 -0.033959
C22   C     C_R   0.579535 0.845917 0.509510 0.053609
C23   C     C_3   0.466895 0.293069 0.261069 0.325612
C24   C     C_R   0.637376 0.956947 0.525260 -0.060158
C25   C     C_R   0.550270 0.030480 0.483875 -0.041153
C26   C     C_R   0.609286 0.140561 0.496584 0.040394
C27   C     C_R   0.842898 0.105922 0.586198 -0.013599
C28   C     C_3   0.194296 0.763470 0.654308 0.328390
C29   C     C_R   0.783740 0.997279 0.576838 -0.109826
C30   C     C_3   0.183056 0.878385 0.677023 -0.317704
C31   C     C_3   0.961615 0.249748 0.357501 0.335036
C32   C     C_3   0.887436 0.134464 0.341653 -0.286974
C33   C     C_3   0.592254 0.724713 0.750241 0.283186
C34   C     C_3   0.366740 0.250506 0.172079 -0.246770
C35   C     C_3   0.559746 0.808768 0.823256 -0.316407
C36   C     C_3   0.979829 0.078785 0.270922 -0.351654
C37   C     C_3   0.648459 0.634325 0.797260 -0.259602
C38   C     C_3   0.438653 0.164614 0.117491 -0.257837
C39   C     C_3   0.175958 0.749157 0.154118 -0.291137
C40   C     C_3   0.381665 0.698355 0.421373 -0.240376
C41   C     C_3   0.052093 0.199208 0.805971 0.377606
C42   C     C_3   0.065867 0.162781 0.904667 -0.358938
C43   C     C_3   0.553742 0.149110 0.782176 0.326876
C44   C     C_3   0.622691 0.093122 0.860066 -0.375687
C45   C     C_R   0.987068 0.441639 0.060090 -0.015774
Cl1   Cl    Cl    0.531732 0.902212 0.047434 -0.834828
Cl2   Cl    Cl    0.625383 0.366933 0.012375 -0.798516
H1    H     H_    0.692226 0.859958 0.282073 -0.008120
H2    H     H_    0.592939 0.995077 0.197443 -0.005332
H3    H     H_    0.671386 0.838268 0.867139 0.168971
H4    H     H_    0.458273 0.776390 0.868658 0.142583
H5    H     H_    0.524143 0.875410 0.787276 0.083699
H6    H     H_    0.504442 0.802058 0.220792 -0.093358
H7    H     H_    0.390221 0.339073 0.304310 -0.001465
H8    H     H_    0.578849 0.346769 0.241662 0.074672
H9    H     H_    0.240574 0.217586 0.191188 0.096335
H10   H     H_    0.358447 0.316200 0.126634 0.132687
H11   H     H_    0.768982 0.964330 0.136738 0.076662
H12   H     H_    0.280687 0.914960 0.728110 0.100990
H13   H     H_    0.142102 0.007864 0.128245 0.082969
H14   H     H_    0.132764 0.276614 0.802234 0.094583
H15   H     H_    0.923728 0.208877 0.792824 -0.090349
H16   H     H_    0.193657 0.154082 0.920580 0.158419
H17   H     H_    0.028955 0.221434 0.956399 0.069392
H18   H     H_    0.985425 0.085723 0.911011 0.117501
H19   H     H_    0.656275 0.186368 0.739706 -0.054724
H20   H     H_    0.475003 0.089803 0.734666 0.051757
H21   H     H_    0.694107 0.151556 0.911473 0.144558
H22   H     H_    0.704119 0.040553 0.830065 0.078473
H23   H     H_    0.196947 0.921467 0.611953 0.102143
H24   H     H_    0.521262 0.045824 0.896642 0.180025
H25   H     H_    0.388284 0.521438 0.292390 0.045278
H26   H     H_    0.502986 0.622291 0.018226 0.090940
H27   H     H_    0.822994 0.439260 0.699904 0.086708
H28   H     H_    0.902489 0.398294 0.106070 0.155092
H29   H     H_    0.295507 0.592387 0.894063 0.087660
H30   H     H_    0.331408 0.045815 0.404545 0.102647
H31   H     H_    0.857843 0.945638 0.605873 0.112921
H32   H     H_    0.797511 0.259902 0.558526 0.052869
H33   H     H_    0.301189 0.900624 0.216113 0.006928
H34   H     H_    0.062619 0.884802 0.707480 0.136505
H35   H     H_    0.206074 0.914196 0.046687 0.155930
H36   H     H_    0.999808 0.893284 0.085731 0.147980
H37   H     H_    0.312469 0.759191 0.621454 -0.113896
H38   H     H_    0.096565 0.731543 0.602620 0.107400
H39   H     H_    0.972513 0.110995 0.200930 0.139212
H40   H     H_    0.108919 0.082876 0.294432 0.128644
H41   H     H_    0.916738 0.997285 0.266087 0.156861
H42   H     H_    0.772915 0.659116 0.829038 0.079877
H43   H     H_    0.564177 0.604856 0.852687 0.084403
H44   H     H_    0.650394 0.570399 0.742548 0.092529
H45   H     H_    0.874216 0.291124 0.396409 0.001553
H46   H     H_    0.573360 0.185886 0.112691 0.182515
H47   H     H_    0.409941 0.090661 0.153661 0.137179
H48   H     H_    0.383570 0.150994 0.045789 0.144681
H49   H     H_    0.210733 0.702724 0.210852 0.065658
H50   H     H_    0.052724 0.712697 0.126432 0.154837
H51   H     H_    0.264083 0.747207 0.096939 0.107543
H52   H     H_    0.464825 0.644849 0.417698 0.158123
H53   H     H_    0.287906 0.663623 0.470330 0.123093
H54   H     H_    0.347793 0.691524 0.346161 0.033217
H55   H     H_    0.075126 0.255806 0.400252 0.081479
H56   H     H_    0.759167 0.126073 0.316317 0.117464
H57   H     H_    0.891597 0.094330 0.407380 0.085429
H58   H     H_    0.478204 0.695781 0.710991 0.089721
O1    O     O_2   0.887370 0.460630 0.272300 -0.444781
O2    O     O_2   0.178434 0.112686 0.564910 -0.478607
O3    O     O_3   0.100326 0.124812 0.741131 -0.590479
O4    O     O_3   0.129410 0.451380 0.388510 -0.510345
O5    O     O_3   0.575400 0.626570 0.547370 -0.510851
O6    O     O_2   0.344320 0.238700 0.455090 -0.467218
O7    O     O_3   0.512711 0.209117 0.307573 -0.660640
O8    O     O_2   0.404734 0.411744 0.831301 -0.457949
O9    O     O_3   0.456861 0.218916 0.822075 -0.553375
O10   O     O_3   0.670210 0.653170 0.329170 -0.501780
O11   O     O_2   0.796798 0.582810 0.170262 -0.450624
O12   O     O_3   0.716932 0.768740 0.692995 -0.626132
O13   O     O_3   0.996020 0.291877 0.270477 -0.642739
O14   O     O_3   0.720388 0.765888 0.164081 -0.570126
O15   O     O_2   0.845380 0.761330 0.544970 -0.450409
O16   O     O_3   0.088930 0.704860 0.376040 -0.465588
O17   O     O_2   0.015313 0.883171 0.439648 -0.473273
O18   O     O_3   0.061590 0.865864 0.260501 -0.584204
O19   O     O_2   0.302330 0.539400 0.727760 -0.484616
O20   O     O_3   0.060300 0.548700 0.611500 -0.505507
O21   O     O_3   0.519500 0.346920 0.670840 -0.475343
O22   O     O_3   0.181293 0.709846 0.737527 -0.643908
O23   O     O_3   0.614310 0.373510 0.452640 -0.479982
O24   O     O_3   0.100780 0.295230 0.623970 -0.487847
P1    P     P_3+3 0.054400 0.427280 0.286870 0.964607
P2    P     P_3+3 0.668300 0.742890 0.573060 0.958624
P3    P     P_3+3 0.134447 0.840484 0.371193 0.950037
P4    P     P_3+3 0.135310 0.572810 0.713130 0.962453
P5    P     P_3+3 0.054422 0.158356 0.628061 0.954277
P6    P     P_3+3 0.660910 0.641486 0.206017 1.014715
P7    P     P_3+3 0.526931 0.239763 0.428496 0.927556
P8    P     P_3+3 0.531623 0.347130 0.792062 1.036673

loop_
_geom_bond_atom_site_label_1
_geom_bond_atom_site_label_2
_ccdc_geom_bond_type
O18   P3    S    
C22   P2    S    
C4    H33   S    
C31   H55   S    
C42   H17   S    
C23   H7    S    
O5    P2    S    
C34   H10   S    
C40   H54   S    
Ba1   O1    S    
C41   H14   S    
C5    C6    A    
C2    P1    S    
C43   C44   S    
C36   H40   S    
C9    C17   A    
C24   C25   A    
O12   P2    S    
C33   C35   S    
O21   P8    S    
O20   P4    S    
C20   H30   S    
C34   H9    S    
Ba1   O5    S    
Ba2   O6    S    
C14   C15   A    
C13   C14   A    
C1    Cl1   S    
Ba1   Ba2   S    
O14   P6    S    
C3    H25   S    
Ba1   O15   S    
C37   H44   S    
O22   P4    S    
O3    P5    S    
C7    C17   A    
C6    C7    A    
C4    C39   S    
C10   C15   A    
C16   H35   S    
C39   H50   S    
C41   O3    S    
C28   H37   S    
O11   P6    D    
C7    C8    A    
O6    P7    D    
O9    P8    S    
C35   H4    S    
Ba2   O20   S    
Ba1   P1    S    
C13   H27   S    
C24   C29   A    
C12   O14   S    
O13   P1    S    
C18   H32   S    
C31   H45   S    
O2    P5    D    
C11   P4    S    
C42   H16   S    
C23   H8    S    
C38   H47   S    
C10   C45   A    
Ba1   P2    S    
C40   H53   S    
C37   H42   S    
C41   H15   S    
Ba2   O24   S    
C18   C27   A    
C4    C16   S    
Ba2   O4    S    
C16   H36   S    
O1    P1    D    
O16   P3    S    
C43   H20   S    
C32   H57   S    
C34   C38   S    
C26   P7    S    
C29   H31   S    
O24   P5    S    
C15   Cl2   S    
C38   H48   S    
C3    C5    A    
C35   H3    S    
C1    H2    S    
C16   H13   S    
C18   C26   A    
C39   H49   S    
C6    H26   S    
C36   H39   S    
C17   H29   S    
C33   C37   S    
C41   C42   S    
Ba1   O16   S    
O15   P2    D    
Ba2   O5    S    
C43   H19   S    
C31   C32   S    
C39   H51   S    
Ba1   O10   S    
C44   H22   S    
C1    C12   S    
C35   H5    S    
Ba2   O19   S    
O8    P8    D    
O19   P4    D    
Ba1   O23   S    
C20   C25   A    
C11   C13   A    
C14   P8    S    
C45   H28   S    
C38   H46   S    
C2    C8    A    
O23   P7    S    
C40   H52   S    
C37   H43   S    
C25   C26   A    
C5    P6    S    
C30   H34   S    
C21   P3    S    
C32   C36   S    
C32   H56   S    
O10   P6    S    
Ba1   O20   S    
C4    O18   S    
C22   C24   A    
C2    C3    A    
C30   H12   S    
C9    C10   A    
C28   O22   S    
C36   H41   S    
Ba2   P4    S    
O17   P3    D    
C19   C21   A    
C27   C29   A    
C23   O7    S    
Ba1   O4    S    
C28   C30   S    
C9    C11   A    
C43   O9    S    
C33   O12   S    
C12   H1    S    
Ba2   O23   S    
C12   H6    S    
O7    P7    S    
C44   H21   S    
C33   H58   S    
C23   C34   S    
C19   C40   S    
O4    P1    S    
C27   P5    S    
C31   O13   S    
C19   C22   A    
C8    C45   A    
C20   C21   A    
C42   H18   S    
C28   H38   S    
C1    H11   S    
C44   H24   S    
C30   H23   S    
Ba2   O21   S    
