data_mof_unit_56787.cif
_audit_creation_date              2012-10-26T18:34:23-0400
_audit_creation_method            fapswitch 2.2
_symmetry_space_group_name_H-M    P1
_symmetry_Int_Tables_number       1
_space_group_crystal_system       triclinic
_cell_length_a                    10.994475
_cell_length_b                    9.499739
_cell_length_c                    9.070062
_cell_angle_alpha                 89.982406
_cell_angle_beta                  90.0952
_cell_angle_gamma                 89.466671
_cell_volume                      947.276990069

loop_
_atom_site_label
_atom_site_type_symbol
_atom_type_description
_atom_site_fract_x
_atom_site_fract_y
_atom_site_fract_z
_atom_type_partial_charge
C1    C     C_R   0.262687 0.502743 0.486484 0.538028
C2    C     C_R   0.064416 0.644081 0.474696 -0.015566
C3    C     C_R   0.874491 0.507631 0.492824 -0.008682
C4    C     C_R   0.129522 0.513114 0.463055 -0.010369
C5    C     C_R   0.452679 0.074972 0.383700 -0.011723
C6    C     C_R   0.547018 0.925120 0.616336 -0.013836
C7    C     C_R   0.546508 0.073912 0.616550 -0.011355
C8    C     C_R   0.452932 0.926137 0.383551 -0.013703
C9    C     C_3   0.120376 0.274823 0.334854 -0.243003
C10   C     C_3   0.043225 0.251438 0.195824 -0.310379
C11   C     C_3   0.090257 0.125283 0.107832 -0.468799
C12   C     C_R   0.738979 0.500913 0.500790 0.535345
C13   C     C_3   0.866341 0.783752 0.473359 -0.214854
C14   C     C_3   0.826179 0.810609 0.312775 -0.274822
C15   C     C_3   0.780194 0.960297 0.289572 -0.454690
C16   C     C_3   0.898859 0.238398 0.535979 -0.236696
C17   C     C_3   0.876268 0.239887 0.703359 -0.284508
C18   C     C_3   0.856077 0.091807 0.763476 -0.474635
C19   C     C_3   0.129422 0.787319 0.480327 -0.215911
C20   C     C_3   0.151012 0.829715 0.642526 -0.281347
C21   C     C_3   0.200370 0.978145 0.658785 -0.447443
C22   C     C_R   0.500063 0.500012 0.220535 0.548642
C23   C     C_R   0.500059 0.499984 0.779460 0.557140
C24   C     C_1   0.500084 0.500011 0.065534 -0.078605
C25   C     C_1   0.500090 0.499972 0.934472 -0.078291
C26   C     C_R   0.065226 0.389459 0.433457 -0.012754
C27   C     C_R   0.935440 0.641759 0.482946 -0.015803
C28   C     C_R   0.944517 0.380983 0.482580 -0.015319
Cu1   Cu    Cu3+1 0.500000 0.640660 0.500000 0.900337
Cu2   Cu    Cu3+1 0.500000 0.359340 0.500000 0.911028
H1    H     H_    0.413585 0.131106 0.291127 0.110990
H2    H     H_    0.210969 0.305586 0.292888 0.165054
H3    H     H_    0.134405 0.175339 0.396379 0.136351
H4    H     H_    0.710781 0.988423 0.373020 0.176714
H5    H     H_    0.857666 0.032952 0.298436 0.133498
H6    H     H_    0.739764 0.971010 0.177816 0.137884
H7    H     H_    0.904683 0.792820 0.237622 0.143319
H8    H     H_    0.753865 0.736429 0.279474 0.198857
H9    H     H_    0.793076 0.796032 0.555334 0.163622
H10   H     H_    0.917253 0.874756 0.514524 0.117381
H11   H     H_    0.788497 0.034998 0.695849 0.136479
H12   H     H_    0.585633 0.869050 0.709227 0.110600
H13   H     H_    0.942584 0.031097 0.762464 0.144792
H14   H     H_    0.822814 0.098019 0.878850 0.137179
H15   H     H_    0.956079 0.285649 0.760939 0.157300
H16   H     H_    0.795486 0.305978 0.729836 0.179268
H17   H     H_    0.817755 0.203947 0.474573 0.171160
H18   H     H_    0.965857 0.153978 0.514134 0.128268
H19   H     H_    0.283945 0.990645 0.593209 0.182747
H20   H     H_    0.132023 0.056627 0.622310 0.141363
H21   H     H_    0.222024 0.998834 0.776388 0.138087
H22   H     H_    0.064438 0.823261 0.705009 0.139437
H23   H     H_    0.583749 0.129379 0.710022 0.121039
H24   H     H_    0.215875 0.755119 0.695572 0.195064
H25   H     H_    0.212229 0.792123 0.412301 0.164225
H26   H     H_    0.081288 0.871017 0.418312 0.106432
H27   H     H_    0.414235 0.870916 0.290746 0.108729
H28   H     H_    0.186503 0.141228 0.075307 0.147985
H29   H     H_    0.083506 0.027526 0.174412 0.141769
H30   H     H_    0.034897 0.112732 0.006513 0.148385
H31   H     H_    0.946635 0.234052 0.224422 0.163042
H32   H     H_    0.046877 0.347044 0.125237 0.158878
N1    N     N_R   0.500000 0.852070 0.500000 -0.224846
N2    N     N_R   0.500000 0.147930 0.500000 -0.227190
O1    O     O_R   0.319640 0.618740 0.499990 -0.513083
O2    O     O_R   0.680360 0.381260 0.500010 -0.506608
O3    O     O_R   0.680360 0.618740 0.500010 -0.513461
O4    O     O_R   0.319640 0.381260 0.499990 -0.501836
O5    O     O_R   0.500000 0.618760 0.288390 -0.508655
O6    O     O_R   0.500000 0.381240 0.711610 -0.499476
O7    O     O_R   0.500000 0.618760 0.711610 -0.502392
O8    O     O_R   0.500000 0.381240 0.288390 -0.505777

loop_
_geom_bond_atom_site_label_1
_geom_bond_atom_site_label_2
_ccdc_geom_bond_type
C19   H26   S    
C16   C28   S    
C5    C8    A    
C2    C4    A    
C24   C25   T    
Cu1   N1    S    
C20   H24   S    
C6    C7    A    
Cu2   O4    S    
C18   H14   S    
C8    H27   S    
C14   H8    S    
C11   H28   S    
C9    C10   S    
C22   O5    A    
C26   C28   A    
C19   C20   S    
C1    C4    S    
C16   H18   S    
C21   H19   S    
C17   C18   S    
C20   H22   S    
Cu2   O2    S    
C18   H13   S    
C17   H16   S    
C14   H7    S    
C9    H3    S    
C23   O6    A    
C2    C27   A    
Cu1   O1    S    
C16   H17   S    
C22   O8    A    
C21   H20   S    
Cu2   O6    S    
C17   H15   S    
C9    C26   S    
Cu2   N2    S    
C3    C27   A    
C23   C25   S    
C7    N2    A    
C12   O3    A    
C22   C24   S    
C4    C26   A    
C10   H32   S    
C10   H31   S    
C13   H9    S    
C10   C11   S    
C7    H23   S    
C8    N1    A    
Cu1   Cu2   S    
C11   H30   S    
C16   C17   S    
C23   O7    A    
C15   H6    S    
C21   H21   S    
C1    O4    A    
C20   C21   S    
C3    C28   A    
C6    N1    A    
C6    H12   S    
C18   H11   S    
C15   H5    S    
Cu1   O5    S    
C19   H25   S    
C14   C15   S    
C13   C27   S    
C13   H10   S    
Cu1   O3    S    
C3    C12   S    
C15   H4    S    
C9    H2    S    
Cu1   O7    S    
C2    C19   S    
C13   C14   S    
C12   O2    A    
C1    O1    A    
C11   H29   S    
C5    N2    A    
Cu2   O8    S    
C5    H1    S    
