data_mof_unit_39045.cif
_audit_creation_date              2012-12-10T18:09:36-0500
_audit_creation_method            fapswitch 2.2
_symmetry_space_group_name_H-M    P1
_symmetry_Int_Tables_number       1
_space_group_crystal_system       triclinic
_cell_length_a                    15.268614
_cell_length_b                    15.090747
_cell_length_c                    9.40757
_cell_angle_alpha                 89.973521
_cell_angle_beta                  90.068549
_cell_angle_gamma                 89.993719
_cell_volume                      2167.64147856

loop_
_atom_site_label
_atom_site_type_symbol
_atom_type_description
_atom_site_fract_x
_atom_site_fract_y
_atom_site_fract_z
_atom_type_partial_charge
C1    C     C_R   0.121725 0.381495 0.499889 0.772509
C2    C     C_R   0.121612 0.618620 0.499842 0.773029
C3    C     C_R   0.621727 0.881497 0.499889 0.772543
C4    C     C_R   0.621614 0.118618 0.499843 0.773057
C5    C     C_3   0.087736 0.526425 0.083928 -0.188091
C6    C     C_3   0.087668 0.526652 0.916304 -0.187475
C7    C     C_3   0.587668 0.026649 0.083927 -0.188041
C8    C     C_3   0.587599 0.026876 0.916304 -0.187466
C9    C     C_R   0.883759 0.376409 0.499846 0.785633
C10   C     C_R   0.883968 0.623764 0.499824 0.785330
C11   C     C_R   0.383760 0.876408 0.499846 0.785693
C12   C     C_R   0.383966 0.123762 0.499824 0.785385
C13   C     C_3   0.832719 0.235049 0.621933 0.064562
C14   C     C_3   0.811467 0.258026 0.349276 0.058825
C15   C     C_3   0.831819 0.763800 0.624281 0.063715
C16   C     C_3   0.813334 0.743947 0.350525 0.056532
C17   C     C_3   0.332727 0.735035 0.621904 0.064550
C18   C     C_3   0.311440 0.758052 0.349255 0.058802
C19   C     C_3   0.331835 0.263820 0.624238 0.063712
C20   C     C_3   0.313296 0.243910 0.350498 0.056512
C21   C     C_3   0.266133 0.658397 0.605685 -0.380713
C22   C     C_3   0.234158 0.692091 0.348433 -0.373611
C23   C     C_3   0.264983 0.340351 0.609124 -0.380547
C24   C     C_3   0.236293 0.310299 0.349736 -0.370314
C25   C     C_3   0.766109 0.158420 0.605753 -0.380690
C26   C     C_3   0.734196 0.192052 0.348458 -0.373594
C27   C     C_3   0.764954 0.840322 0.609205 -0.380524
C28   C     C_3   0.736340 0.810349 0.349768 -0.370296
C29   C     C_3   0.727272 0.348307 0.527761 -0.511340
C30   C     C_3   0.727338 0.651631 0.524029 -0.510730
C31   C     C_3   0.227273 0.848306 0.527810 -0.511355
C32   C     C_3   0.227338 0.151631 0.524100 -0.510744
C33   C     C_3   0.817805 0.304309 0.499123 0.149977
C34   C     C_3   0.818119 0.695959 0.499157 0.150171
C35   C     C_3   0.317802 0.804312 0.499122 0.149995
C36   C     C_3   0.318114 0.195954 0.499156 0.150185
C37   C     C_3   0.192863 0.685126 0.498959 0.100984
C38   C     C_3   0.193102 0.315091 0.499098 0.099774
C39   C     C_3   0.692866 0.185124 0.498964 0.100963
C40   C     C_3   0.693106 0.815095 0.499102 0.099750
C41   C     C_3   0.155480 0.776907 0.540302 -0.422544
C42   C     C_3   0.155323 0.222792 0.536193 -0.422919
C43   C     C_3   0.655474 0.276912 0.540232 -0.422527
C44   C     C_3   0.655318 0.722787 0.536102 -0.422898
C45   C     C_3   0.935346 0.562241 0.083458 -0.191390
C46   C     C_3   0.935198 0.562108 0.916177 -0.189676
C47   C     C_3   0.981125 0.410925 0.083789 -0.188633
C48   C     C_3   0.981364 0.410848 0.916227 -0.188268
C49   C     C_3   0.435187 0.062068 0.083458 -0.191430
C50   C     C_3   0.435039 0.061935 0.916177 -0.189669
C51   C     C_3   0.481347 0.910873 0.083791 -0.188677
C52   C     C_3   0.481590 0.910796 0.916226 -0.188309
Cu1   Cu    Cu3+1 0.000100 0.500000 0.642410 0.880646
Cu2   Cu    Cu3+1 0.000100 0.500000 0.357590 0.881814
Cu3   Cu    Cu3+1 0.500100 0.000000 0.642410 0.880634
Cu4   Cu    Cu3+1 0.500100 0.000000 0.357590 0.881816
H1    H     H_    0.817232 0.269313 0.723889 0.147064
H2    H     H_    0.795625 0.310286 0.269462 0.138759
H3    H     H_    0.815812 0.728173 0.724872 0.147374
H4    H     H_    0.798045 0.692660 0.268883 0.139270
H5    H     H_    0.317229 0.769275 0.723875 0.147100
H6    H     H_    0.295600 0.810326 0.269464 0.138786
H7    H     H_    0.315824 0.228222 0.724854 0.147392
H8    H     H_    0.298003 0.192604 0.268889 0.139270
H9    H     H_    0.298744 0.596915 0.567226 0.161230
H10   H     H_    0.254900 0.625165 0.311621 0.161084
H11   H     H_    0.297622 0.402668 0.574300 0.160655
H12   H     H_    0.257789 0.377715 0.316482 0.160243
H13   H     H_    0.798710 0.096913 0.567374 0.161188
H14   H     H_    0.754955 0.125118 0.311710 0.161068
H15   H     H_    0.797584 0.902664 0.574474 0.160622
H16   H     H_    0.757856 0.877774 0.316593 0.160228
H17   H     H_    0.238165 0.643099 0.712089 0.141771
H18   H     H_    0.183964 0.715713 0.271154 0.141281
H19   H     H_    0.235666 0.353666 0.715263 0.144703
H20   H     H_    0.187035 0.288282 0.269713 0.143305
H21   H     H_    0.738116 0.143172 0.712158 0.141781
H22   H     H_    0.684017 0.215645 0.271131 0.141260
H23   H     H_    0.735606 0.853583 0.715339 0.144726
H24   H     H_    0.687104 0.788368 0.269686 0.143294
H25   H     H_    0.728935 0.388033 0.627489 0.169306
H26   H     H_    0.710422 0.394931 0.440085 0.164933
H27   H     H_    0.727961 0.610908 0.622816 0.168148
H28   H     H_    0.711518 0.605869 0.434765 0.164590
H29   H     H_    0.228952 0.888026 0.627543 0.169315
H30   H     H_    0.210408 0.894936 0.440149 0.164931
H31   H     H_    0.227982 0.110921 0.622900 0.168154
H32   H     H_    0.211496 0.105858 0.434861 0.164587
H33   H     H_    0.130874 0.774924 0.651552 0.175922
H34   H     H_    0.099545 0.794617 0.469876 0.167939
H35   H     H_    0.129303 0.223335 0.646614 0.175634
H36   H     H_    0.100351 0.205957 0.463277 0.167565
H37   H     H_    0.630835 0.274951 0.651463 0.175917
H38   H     H_    0.599559 0.294609 0.469753 0.167936
H39   H     H_    0.629259 0.723300 0.646499 0.175629
H40   H     H_    0.600371 0.705969 0.463123 0.167554
H41   H     H_    0.948958 0.630581 0.121638 0.147237
H42   H     H_    0.948354 0.630505 0.877478 0.141810
H43   H     H_    0.029215 0.361487 0.123872 0.137903
H44   H     H_    0.029865 0.361650 0.876918 0.136366
H45   H     H_    0.448632 0.130445 0.121623 0.147270
H46   H     H_    0.448027 0.130368 0.877492 0.141801
H47   H     H_    0.529562 0.861558 0.123869 0.137890
H48   H     H_    0.530220 0.861726 0.876930 0.136346
H49   H     H_    0.868887 0.544357 0.122471 0.133370
H50   H     H_    0.868744 0.543834 0.877350 0.134794
H51   H     H_    0.915676 0.388571 0.120579 0.145414
H52   H     H_    0.916178 0.387983 0.878619 0.140457
H53   H     H_    0.368775 0.044019 0.122487 0.133350
H54   H     H_    0.368633 0.043493 0.877335 0.134780
H55   H     H_    0.415957 0.888351 0.120587 0.145480
H56   H     H_    0.416467 0.887757 0.878605 0.140485
H57   H     H_    0.105398 0.593971 0.121020 0.137360
H58   H     H_    0.105011 0.594383 0.879479 0.136604
H59   H     H_    0.139720 0.481094 0.123793 0.133134
H60   H     H_    0.139800 0.481644 0.876299 0.132954
H61   H     H_    0.605154 0.094244 0.121012 0.137356
H62   H     H_    0.604766 0.094655 0.879483 0.136603
H63   H     H_    0.639767 0.981453 0.123798 0.133118
H64   H     H_    0.639845 0.982005 0.876293 0.132948
N1    N     N_3   0.001260 0.500000 0.143650 -0.109118
N2    N     N_3   0.001260 0.500000 0.856350 -0.108836
N3    N     N_3   0.501260 0.000000 0.143650 -0.109114
N4    N     N_3   0.501260 0.000000 0.856350 -0.108832
O1    O     O_R   0.091250 0.408820 0.620260 -0.596911
O2    O     O_R   0.091250 0.408820 0.379740 -0.597290
O3    O     O_R   0.091250 0.591180 0.620260 -0.598417
O4    O     O_R   0.091250 0.591180 0.379740 -0.598714
O5    O     O_R   0.591250 0.908820 0.620260 -0.596920
O6    O     O_R   0.591250 0.908820 0.379740 -0.597289
O7    O     O_R   0.591250 0.091180 0.620260 -0.598432
O8    O     O_R   0.591250 0.091180 0.379740 -0.598717
O9    O     O_R   0.908940 0.408800 0.620260 -0.597006
O10   O     O_R   0.908940 0.408800 0.379740 -0.594912
O11   O     O_R   0.908940 0.591200 0.620260 -0.597986
O12   O     O_R   0.908940 0.591200 0.379740 -0.595951
O13   O     O_R   0.408940 0.908800 0.620260 -0.597010
O14   O     O_R   0.408940 0.908800 0.379740 -0.594914
O15   O     O_R   0.408940 0.091200 0.620260 -0.598000
O16   O     O_R   0.408940 0.091200 0.379740 -0.595958
C53   C     C_3   0.926700 0.200092 0.642230 -0.954631
H65   H     H_    0.974137 0.255275 0.650882 0.242306
H66   H     H_    0.930269 0.161891 0.743042 0.227125
H67   H     H_    0.947529 0.155134 0.556262 0.249013
C54   C     C_3   0.896417 0.213397 0.296234 -0.920012
H68   H     H_    0.894584 0.208705 0.178414 0.214330
H69   H     H_    0.955675 0.251592 0.325978 0.243790
H70   H     H_    0.903108 0.144846 0.337125 0.236087
C55   C     C_3   0.925500 0.799044 0.647274 -0.951721
H71   H     H_    0.928492 0.834757 0.750399 0.226065
H72   H     H_    0.973579 0.744256 0.652658 0.243498
H73   H     H_    0.946038 0.846390 0.564397 0.248349
C56   C     C_3   0.898958 0.788678 0.300752 -0.918129
H74   H     H_    0.957699 0.749654 0.330583 0.243601
H75   H     H_    0.898091 0.794902 0.183083 0.214043
H76   H     H_    0.905728 0.856669 0.343764 0.236032
C57   C     C_3   0.426713 0.700096 0.642205 -0.954778
H77   H     H_    0.474116 0.755294 0.651114 0.242318
H78   H     H_    0.430250 0.661763 0.742890 0.227176
H79   H     H_    0.447609 0.655268 0.556109 0.249053
C58   C     C_3   0.396375 0.713412 0.296174 -0.920097
H80   H     H_    0.394523 0.708727 0.178354 0.214338
H81   H     H_    0.455643 0.751597 0.325899 0.243793
H82   H     H_    0.403059 0.644857 0.337052 0.236099
C59   C     C_3   0.425523 0.299048 0.647210 -0.951840
H83   H     H_    0.428496 0.334883 0.750228 0.226111
H84   H     H_    0.473571 0.244239 0.652811 0.243521
H85   H     H_    0.446116 0.346282 0.564207 0.248376
C60   C     C_3   0.398904 0.288648 0.300665 -0.918175
H86   H     H_    0.457657 0.249636 0.330473 0.243625
H87   H     H_    0.398011 0.294860 0.182995 0.214052
H88   H     H_    0.405670 0.356645 0.343657 0.236035

loop_
_geom_bond_atom_site_label_1
_geom_bond_atom_site_label_2
_ccdc_geom_bond_type
C16   C28   S    
C41   H33   S    
Cu3   Cu4   S    
C59   H83   S    
C31   H29   S    
C29   C33   S    
C3    O6    A    
C51   N3    S    
C60   H86   S    
C7    H61   S    
Cu1   O11   S    
C52   H56   S    
C30   C44   S    
C58   H82   S    
C14   C33   S    
C58   H80   S    
C8    H62   S    
C7    C8    S    
C4    O8    A    
C45   C46   S    
C29   H25   S    
Cu2   O2    S    
C14   C54   S    
C26   H22   S    
Cu3   O15   S    
C37   C41   S    
C25   H21   S    
C32   C36   S    
C11   O14   A    
C1    O1    A    
C38   C42   S    
C27   H23   S    
C19   C36   S    
C55   H72   S    
C49   H45   S    
C5    C6    S    
Cu4   O16   S    
C18   C58   S    
C26   C39   S    
C47   N1    S    
C13   H1    S    
C28   C40   S    
C51   H47   S    
C32   H32   S    
C21   H17   S    
C50   H54   S    
C43   H38   S    
C47   H43   S    
C42   H35   S    
C16   H4    S    
C23   H11   S    
C30   H27   S    
C6    H58   S    
Cu1   O3    S    
C17   H5    S    
C21   H9    S    
C57   H77   S    
C22   H10   S    
C20   C24   S    
C19   H7    S    
Cu3   O5    S    
C24   C38   S    
C12   O16   A    
C22   C37   S    
C13   C53   S    
C12   C36   S    
C17   C57   S    
C18   C35   S    
C15   C34   S    
C16   C34   S    
C2    O3    A    
C41   H34   S    
C46   H42   S    
C57   H78   S    
C31   H30   S    
C18   C22   S    
C5    H59   S    
C9    C33   S    
C60   H87   S    
C13   C25   S    
C28   H16   S    
C14   H2    S    
C58   H81   S    
C45   H49   S    
C54   H68   S    
C4    O7    A    
C48   H44   S    
C54   H69   S    
C51   C52   S    
Cu4   N3    S    
C7    H63   S    
C22   H18   S    
Cu1   O9    S    
C1    O2    A    
C55   H73   S    
C23   H19   S    
C30   C34   S    
C8    N4    S    
C39   C43   S    
C45   N1    S    
Cu1   Cu2   S    
C32   H31   S    
Cu2   O4    S    
C17   C21   S    
C20   H8    S    
C19   C23   S    
C13   C33   S    
C44   H40   S    
Cu4   O14   S    
C15   C27   S    
C47   C48   S    
C4    C39   S    
C27   C40   S    
C10   O12   A    
Cu2   O12   S    
C12   O15   A    
C50   N4    S    
C10   C34   S    
C14   C26   S    
C56   H76   S    
C6    H60   S    
C56   H75   S    
Cu4   O8    S    
Cu1   O1    S    
C1    C38   S    
C29   C43   S    
Cu2   N1    S    
C3    C40   S    
C50   H46   S    
C59   H85   S    
Cu3   O7    S    
C26   H14   S    
C60   H88   S    
C31   C35   S    
C53   H67   S    
C25   H13   S    
C6    N2    S    
C15   C55   S    
C54   H70   S    
C27   H15   S    
C8    H64   S    
C49   H53   S    
C9    O9    A    
Cu3   N4    S    
C52   H48   S    
C5    N1    S    
C51   H55   S    
C31   C41   S    
C5    H57   S    
C3    O5    A    
C15   H3    S    
C24   H20   S    
C7    N3    S    
C57   H79   S    
C23   C38   S    
C19   C59   S    
C47   H51   S    
Cu3   O13   S    
Cu1   N2    S    
C53   H66   S    
C11   O13   A    
C10   O11   A    
C44   H39   S    
C45   H41   S    
C55   H71   S    
C9    O10   A    
C48   N2    S    
C52   N4    S    
C2    C37   S    
C48   H52   S    
C46   H50   S    
C11   C35   S    
C43   H37   S    
C20   C60   S    
C42   H36   S    
C30   H28   S    
C28   H24   S    
Cu4   O6    S    
C24   H12   S    
C20   C36   S    
C40   C44   S    
C21   C37   S    
C29   H26   S    
C49   N3    S    
C59   H84   S    
C49   C50   S    
C16   C56   S    
C32   C42   S    
C46   N2    S    
C18   H6    S    
C17   C35   S    
C56   H74   S    
C53   H65   S    
C25   C39   S    
C2    O4    A    
Cu2   O10   S    
