data_mof_unit_50983.cif
_audit_creation_date              2012-10-26T17:43:24-0400
_audit_creation_method            fapswitch 2.2
_symmetry_space_group_name_H-M    P1
_symmetry_Int_Tables_number       1
_space_group_crystal_system       triclinic
_cell_length_a                    18.335289
_cell_length_b                    18.349108
_cell_length_c                    21.874754
_cell_angle_alpha                 90.048138
_cell_angle_beta                  90.487038
_cell_angle_gamma                 89.727854
_cell_volume                      7359.10781541

loop_
_atom_site_label
_atom_site_type_symbol
_atom_type_description
_atom_site_fract_x
_atom_site_fract_y
_atom_site_fract_z
_atom_type_partial_charge
C1    C     C_R   0.000105 0.360100 0.001934 0.572256
C2    C     C_1   0.282453 0.000535 0.998969 0.080576
C3    C     C_1   0.356316 0.080307 0.859566 0.264860
C4    C     C_1   0.128211 0.613649 0.151814 0.328237
C5    C     C_1   0.658606 0.985701 0.152599 0.293587
C6    C     C_1   0.868521 0.613061 0.144565 0.311268
C7    C     C_1   0.341042 0.019866 0.150561 0.289363
C8    C     C_1   0.555137 0.150171 0.344935 0.310127
C9    C     C_1   0.131554 0.413344 0.349252 0.304703
C10   C     C_1   0.435012 0.852824 0.345619 0.310078
C11   C     C_1   0.854252 0.575348 0.359142 0.264893
C12   C     C_1   0.639232 0.100689 0.655150 0.337560
C13   C     C_1   0.999619 0.717538 0.002113 0.058255
C14   C     C_1   0.150013 0.558957 0.655164 0.306380
C15   C     C_1   0.375187 0.118907 0.644518 0.307367
C16   C     C_1   0.845487 0.459662 0.656782 0.299873
C17   C     C_1   0.717474 0.999774 0.997612 0.066841
C18   C     C_1   0.500682 0.782465 0.502358 0.015201
C19   C     C_1   0.782448 0.500462 0.499155 0.064335
C20   C     C_1   0.499551 0.217544 0.502196 0.033248
C21   C     C_1   0.217484 0.499397 0.497144 0.026662
C22   C     C_R   0.999739 0.499920 0.881108 0.536396
C23   C     C_R   0.498979 0.999872 0.880753 0.522235
C24   C     C_R   0.000093 0.510884 0.118460 0.524498
C25   C     C_R   0.360078 0.000095 0.998785 0.569890
C26   C     C_R   0.499606 0.000026 0.118849 0.536488
C27   C     C_R   0.499707 0.999987 0.380916 0.530463
C28   C     C_R   0.999596 0.499982 0.380663 0.518608
C29   C     C_R   0.500386 0.010288 0.618602 0.520422
C30   C     C_R   0.000542 0.500217 0.619055 0.534715
C31   C     C_R   0.040652 0.630233 0.808249 -0.035540
C32   C     C_R   0.628148 0.958011 0.804335 -0.073375
C33   C     C_R   0.952841 0.372815 0.805564 -0.038801
C34   C     C_R   0.363603 0.029108 0.810003 -0.050016
C35   C     C_R   0.131235 0.556526 0.197501 -0.033368
C36   C     C_R   0.999908 0.639909 0.001890 0.565812
C37   C     C_R   0.629388 0.040116 0.193441 -0.036331
C38   C     C_R   0.866790 0.553975 0.188404 -0.030347
C39   C     C_R   0.367991 0.964105 0.191540 -0.036951
C40   C     C_R   0.592678 0.098385 0.306819 -0.022509
C41   C     C_R   0.131692 0.468382 0.302047 -0.067349
C42   C     C_R   0.401332 0.906172 0.306119 -0.021522
C43   C     C_R   0.863063 0.523264 0.310405 -0.047673
C44   C     C_R   0.635533 0.038976 0.696419 -0.026767
C45   C     C_R   0.098478 0.594739 0.694534 -0.021447
C46   C     C_R   0.370045 0.059898 0.688132 -0.030041
C47   C     C_R   0.639853 0.999913 0.997888 0.565725
C48   C     C_R   0.895126 0.416052 0.692952 -0.021892
C49   C     C_R   0.089300 0.679399 0.780201 0.218526
C50   C     C_R   0.696890 0.968142 0.776152 0.222767
C51   C     C_R   0.900595 0.327634 0.776216 0.226388
C52   C     C_R   0.299624 0.021196 0.774687 0.233897
C53   C     C_R   0.198330 0.537349 0.225488 0.230242
C54   C     C_R   0.677835 0.089698 0.222030 0.230073
C55   C     C_R   0.799599 0.533171 0.213403 0.225296
C56   C     C_R   0.316813 0.918024 0.220133 0.226851
C57   C     C_R   0.658658 0.119925 0.279621 0.221473
C58   C     C_R   0.500226 0.860112 0.502122 0.564862
C59   C     C_R   0.198017 0.482785 0.271279 0.225868
C60   C     C_R   0.333843 0.888745 0.278661 0.221108
C61   C     C_R   0.799203 0.512193 0.275562 0.238149
C62   C     C_R   0.700394 0.009162 0.721163 0.226826
C63   C     C_R   0.118965 0.661083 0.722316 0.219201
C64   C     C_R   0.301617 0.042471 0.712650 0.221110
C65   C     C_R   0.869375 0.351176 0.719612 0.226308
C66   C     C_R   0.139562 0.000455 0.000112 0.537619
C67   C     C_R   0.999755 0.860424 0.000137 0.529420
C68   C     C_R   0.860419 0.999919 0.999672 0.535022
C69   C     C_R   0.860077 0.500119 0.499130 0.568222
C70   C     C_R   0.000091 0.139575 0.000154 0.524213
C71   C     C_R   0.639565 0.500213 0.500136 0.555511
C72   C     C_R   0.499895 0.360422 0.500131 0.544006
C73   C     C_R   0.360417 0.499817 0.499630 0.549650
C74   C     C_R   0.500198 0.639576 0.500169 0.543871
C75   C     C_R   0.042887 0.551994 0.719950 -0.063732
C76   C     C_R   0.566974 0.019317 0.720218 -0.058095
C77   C     C_R   0.955292 0.452201 0.718738 -0.063217
C78   C     C_R   0.434522 0.034273 0.717536 -0.057986
C79   C     C_R   0.064958 0.498810 0.279665 -0.054919
C80   C     C_R   0.499863 0.139905 0.501877 0.557957
C81   C     C_R   0.551024 0.041770 0.280963 -0.063371
C82   C     C_R   0.931694 0.518828 0.281185 -0.051621
C83   C     C_R   0.446378 0.959598 0.280198 -0.064077
C84   C     C_R   0.560399 0.026671 0.219040 -0.064746
C85   C     C_R   0.065393 0.526924 0.219754 -0.052477
C86   C     C_R   0.437637 0.974577 0.218004 -0.065513
C87   C     C_R   0.932720 0.531653 0.217430 -0.056422
C88   C     C_R   0.564074 0.992101 0.780218 -0.060238
C89   C     C_R   0.027751 0.561203 0.781963 -0.063972
C90   C     C_R   0.432352 0.021742 0.781229 -0.053575
C91   C     C_R   0.139844 0.499813 0.497745 0.556215
C92   C     C_R   0.969499 0.441494 0.780676 -0.067985
C93   C     C_R   0.000232 0.501114 0.686335 0.010700
C94   C     C_R   0.501146 0.025925 0.685919 -0.010001
C95   C     C_R   0.998122 0.501379 0.312875 0.027182
C96   C     C_R   0.499078 0.000250 0.313599 0.008276
C97   C     C_R   0.499333 0.000112 0.185751 0.020235
C98   C     C_R   0.999582 0.527529 0.185574 -0.008204
C99   C     C_R   0.497529 0.000616 0.813117 0.025646
C100  C     C_R   0.999205 0.500690 0.814174 0.017492
C101  C     C_1   0.000252 0.217130 0.001022 0.018095
C102  C     C_1   0.000228 0.282466 0.002064 0.037597
C103  C     C_1   0.217102 0.000858 0.999882 0.067017
C104  C     C_1   0.999474 0.782872 0.001055 0.026651
C105  C     C_1   0.782847 0.999768 0.998571 0.054289
C106  C     C_1   0.500582 0.717131 0.501136 0.009674
C107  C     C_1   0.717103 0.500512 0.500031 0.060756
C108  C     C_1   0.499632 0.282871 0.501029 0.016152
C109  C     C_1   0.282845 0.499476 0.498292 0.029463
C110  C     C_1   0.985455 0.659133 0.848355 0.287350
C111  C     C_1   0.621342 0.898370 0.847076 0.309505
C112  C     C_1   0.006513 0.340360 0.845906 0.298033
Cu1   Cu    Cu3+1 0.927460 0.500000 0.000000 1.120630
Cu2   Cu    Cu3+1 0.000000 1.000000 0.061780 1.150722
Cu3   Cu    Cu3+1 0.500000 0.500000 0.438220 1.175046
Cu4   Cu    Cu3+1 0.500000 0.500000 0.561780 1.072336
Cu5   Cu    Cu3+1 0.500000 0.072540 0.000000 1.098035
Cu6   Cu    Cu3+1 0.072540 0.500000 0.000000 1.092282
Cu7   Cu    Cu3+1 0.500000 0.927460 0.000000 1.102489
Cu8   Cu    Cu3+1 0.427460 0.000000 0.500000 1.132357
Cu9   Cu    Cu3+1 0.000000 0.572540 0.500000 1.109310
Cu10  Cu    Cu3+1 0.572540 0.000000 0.500000 1.125280
Cu11  Cu    Cu3+1 0.000000 0.427460 0.500000 1.114428
Cu12  Cu    Cu3+1 0.000000 0.000000 0.938220 1.194053
H1    H     H_    0.876264 0.201041 0.904241 0.367521
H2    H     H_    0.619656 0.547221 0.329307 0.382208
H3    H     H_    0.724647 0.220875 0.413736 0.380131
H4    H     H_    0.302173 0.320780 0.319350 0.378289
H5    H     H_    0.188108 0.092204 0.578423 0.382433
H6    H     H_    0.754318 0.299587 0.588233 0.375549
H7    H     H_    0.815515 0.053742 0.589223 0.387471
H8    H     H_    0.212353 0.732556 0.587434 0.375160
H9    H     H_    0.122046 0.061542 0.833874 0.385867
H10   H     H_    0.125706 0.791504 0.915350 0.370978
H11   H     H_    0.843335 0.833718 0.794636 0.387081
H12   H     H_    0.683211 0.575149 0.079084 0.381034
H13   H     H_    0.208823 0.873882 0.084512 0.366027
H14   H     H_    0.313007 0.688749 0.172885 0.386203
H15   H     H_    0.791582 0.123625 0.088266 0.363935
H16   H     H_    0.258567 0.805181 0.416489 0.374903
N1    N     N_1   0.939372 0.682878 0.878258 -0.242790
N2    N     N_1   0.132492 0.368128 0.386130 -0.187998
N3    N     N_1   0.462383 0.808175 0.375167 -0.255409
N4    N     N_1   0.845565 0.619791 0.395916 -0.213881
N5    N     N_1   0.642034 0.150284 0.622594 -0.208723
N6    N     N_1   0.193111 0.529614 0.625743 -0.265781
N7    N     N_1   0.379164 0.167019 0.610572 -0.237283
N8    N     N_1   0.804514 0.495922 0.630192 -0.270440
N9    N     N_1   0.616867 0.849616 0.880403 -0.187030
N10   N     N_1   0.051327 0.313828 0.876130 -0.235908
N11   N     N_1   0.348837 0.124128 0.897049 -0.211953
N12   N     N_1   0.125709 0.659686 0.115715 -0.211452
N13   N     N_1   0.682621 0.940328 0.121952 -0.236099
N14   N     N_1   0.869867 0.661044 0.110303 -0.223862
N15   N     N_1   0.318879 0.066490 0.119994 -0.240509
N16   N     N_1   0.524232 0.193358 0.373218 -0.258145
O1    O     O_R   0.938740 0.394190 0.000020 -0.483521
O2    O     O_R   0.894190 0.561260 0.500020 -0.492492
O3    O     O_R   0.561260 0.105810 0.500020 -0.480201
O4    O     O_R   0.105810 0.438740 0.500020 -0.494427
O5    O     O_R   0.438740 0.105810 0.499980 -0.492485
O6    O     O_R   0.894190 0.438740 0.499980 -0.479909
O7    O     O_R   0.561260 0.894190 0.499980 -0.497948
O8    O     O_R   0.105810 0.561260 0.499980 -0.484903
O9    O     O_R   0.938740 0.500000 0.909860 -0.499235
O10   O     O_R   0.500000 0.061260 0.909860 -0.505713
O11   O     O_R   0.061260 0.500000 0.909860 -0.498194
O12   O     O_R   0.394190 0.061260 0.000020 -0.486527
O13   O     O_R   0.500000 0.938740 0.909860 -0.502772
O14   O     O_R   0.938740 0.500000 0.090140 -0.500310
O15   O     O_R   0.500000 0.938740 0.090140 -0.498799
O16   O     O_R   0.061260 0.500000 0.090140 -0.515329
O17   O     O_R   0.500000 0.061260 0.090140 -0.494954
O18   O     O_R   0.438740 0.000000 0.409860 -0.497535
O19   O     O_R   0.000000 0.561260 0.409860 -0.504423
O20   O     O_R   0.561260 0.000000 0.409860 -0.498279
O21   O     O_R   0.000000 0.438740 0.409860 -0.497151
O22   O     O_R   0.438740 0.000000 0.590140 -0.500895
O23   O     O_R   0.061260 0.605810 0.000020 -0.487988
O24   O     O_R   1.000000 0.438740 0.590140 -0.497836
O25   O     O_R   0.561260 0.000000 0.590140 -0.506800
O26   O     O_R   0.000000 0.561260 0.590140 -0.496627
O27   O     O_R   0.105780 0.999970 0.947820 -0.479494
O28   O     O_R   0.999970 0.894220 0.947820 -0.472970
O29   O     O_R   0.894220 0.000030 0.947820 -0.461690
O30   O     O_R   0.000030 0.105780 0.947820 -0.495769
O31   O     O_R   0.105780 0.000030 0.052180 -0.485104
O32   O     O_R   0.999970 0.105780 0.052180 -0.499872
O33   O     O_R   0.894220 0.999970 0.052180 -0.491647
O34   O     O_R   0.605810 0.938740 0.000020 -0.484701
O35   O     O_R   0.000030 0.894220 0.052180 -0.498632
O36   O     O_R   0.605780 0.499970 0.447820 -0.471464
O37   O     O_R   0.499970 0.394220 0.447820 -0.478429
O38   O     O_R   0.394220 0.500030 0.447820 -0.455846
O39   O     O_R   0.500030 0.605780 0.447820 -0.489606
O40   O     O_R   0.605780 0.500030 0.552180 -0.503503
O41   O     O_R   0.499970 0.605780 0.552180 -0.505785
O42   O     O_R   0.394220 0.499970 0.552180 -0.500656
O43   O     O_R   0.500030 0.394220 0.552180 -0.504449
O44   O     O_2   0.793918 0.231055 0.804346 -0.185609
O45   O     O_R   0.938740 0.605810 0.999980 -0.486257
O46   O     O_2   0.916690 0.182907 0.785429 -0.187461
O47   O     O_3   0.891736 0.248905 0.888082 -0.542817
O48   O     O_2   0.168995 0.952516 0.772459 -0.130205
O49   O     O_2   0.236990 0.953223 0.868594 -0.286683
O50   O     O_3   0.174548 0.073998 0.834187 -0.484687
O51   O     O_2   0.192758 0.779823 0.809038 -0.157400
O52   O     O_2   0.065707 0.821659 0.800763 -0.193777
O53   O     O_3   0.105421 0.746996 0.896141 -0.546040
O54   O     O_2   0.840937 0.980750 0.805635 -0.179785
O55   O     O_2   0.766293 0.914047 0.877430 -0.309963
O56   O     O_R   0.394190 0.938740 0.999980 -0.487778
O57   O     O_3   0.797454 0.850984 0.775140 -0.457226
O58   O     O_2   0.693540 0.459742 0.155731 -0.190769
O59   O     O_2   0.659673 0.576889 0.201625 -0.211051
O60   O     O_3   0.731230 0.577191 0.100092 -0.514367
O61   O     O_2   0.208760 0.820336 0.195471 -0.170520
O62   O     O_2   0.177422 0.950396 0.193048 -0.223450
O63   O     O_3   0.252575 0.895782 0.103880 -0.551721
O64   O     O_2   0.336027 0.579803 0.254452 -0.180126
O65   O     O_2   0.311025 0.543522 0.148297 -0.225637
O66   O     O_3   0.265039 0.669493 0.185464 -0.456939
O67   O     O_R   0.061260 0.394190 0.999980 -0.493241
O68   O     O_2   0.774469 0.195534 0.192610 -0.175809
O69   O     O_2   0.821343 0.070852 0.204741 -0.221159
O70   O     O_3   0.747078 0.103224 0.106925 -0.545726
O71   O     O_2   0.194524 0.866701 0.313894 -0.180195
O72   O     O_2   0.272817 0.758858 0.300835 -0.202465
O73   O     O_3   0.292112 0.839978 0.396746 -0.517272
O74   O     O_2   0.672499 0.436681 0.275342 -0.164156
O75   O     O_2   0.740144 0.444615 0.371371 -0.283188
O76   O     O_3   0.671673 0.560723 0.333724 -0.486348
O77   O     O_2   0.795325 0.157801 0.315049 -0.178137
O78   O     O_R   0.605810 0.061260 0.999980 -0.493063
O79   O     O_2   0.706960 0.256363 0.296109 -0.180380
O80   O     O_3   0.695827 0.180585 0.395691 -0.515810
O81   O     O_2   0.329895 0.429602 0.235398 -0.169611
O82   O     O_2   0.315204 0.462679 0.343203 -0.257175
O83   O     O_3   0.256475 0.343144 0.303591 -0.506346
O84   O     O_2   0.193331 0.974782 0.652992 -0.178358
O85   O     O_2   0.163552 0.091874 0.700945 -0.200568
O86   O     O_3   0.235926 0.092186 0.599841 -0.515358
O87   O     O_2   0.822275 0.220413 0.679164 -0.158398
O88   O     O_2   0.729552 0.310233 0.708905 -0.232812
O89   O     O_R   0.438740 0.894190 0.500020 -0.477475
O90   O     O_3   0.795948 0.327132 0.605633 -0.523652
O91   O     O_2   0.830415 0.073966 0.709305 -0.143852
O92   O     O_2   0.823361 0.946165 0.677718 -0.179074
O93   O     O_3   0.766887 0.042850 0.606254 -0.516218
O94   O     O_2   0.150873 0.798967 0.687798 -0.139687
O95   O     O_2   0.253179 0.714310 0.704753 -0.230414
O96   O     O_3   0.175127 0.700645 0.605927 -0.518796
S1    S     S_3+6 0.874079 0.244937 0.812619 0.099634
S2    S     S_3+6 0.719059 0.485509 0.314443 0.099367
S3    S     S_3+6 0.716860 0.180563 0.320943 0.106784
S4    S     S_3+6 0.278095 0.430196 0.288248 0.079107
S5    S     S_3+6 0.220930 0.050062 0.666787 0.100566
S6    S     S_3+6 0.802319 0.299813 0.678922 0.092489
S7    S     S_3+6 0.783144 0.017661 0.679067 0.122455
S8    S     S_3+6 0.176371 0.721456 0.680873 0.100234
S9    S     S_3+6 0.218050 0.997276 0.812828 0.107733
S10   S     S_3+6 0.114669 0.760023 0.820623 0.108418
S11   S     S_3+6 0.777480 0.929717 0.810797 0.083735
S12   S     S_3+6 0.718336 0.536369 0.167930 0.095733
S13   S     S_3+6 0.235595 0.894988 0.179189 0.082662
S14   S     S_3+6 0.280677 0.581691 0.203391 0.109182
S15   S     S_3+6 0.758110 0.116262 0.182445 0.090564
S16   S     S_3+6 0.270474 0.836814 0.321869 0.095123

loop_
_geom_bond_atom_site_label_1
_geom_bond_atom_site_label_2
_ccdc_geom_bond_type
C14   N6    T    
C12   N5    T    
C23   C99   S    
C66   O27   A    
C77   C92   A    
C101  C102  T    
C49   C63   A    
C32   C111  S    
C5    C37   S    
C10   C42   S    
Cu4   O43   S    
O81   S4    D    
C71   O40   A    
Cu7   O34   S    
Cu11  O21   S    
O64   S14   D    
C16   C48   S    
O68   S15   D    
C34   C90   A    
H6    O90   S    
C70   C101  S    
Cu2   O32   S    
O53   S10   S    
H11   O57   S    
C78   C90   A    
H4    O83   S    
C52   S9    S    
C43   C61   A    
H3    O80   S    
C61   S2    S    
O85   S5    D    
O57   S11   S    
H15   O70   S    
C24   C98   S    
C84   C97   A    
Cu5   O78   S    
O58   S12   D    
O93   S7    S    
Cu12  O28   S    
C30   C93   S    
C71   C107  S    
Cu5   Cu7   S    
Cu1   O9    S    
Cu12  O29   S    
O66   S14   S    
C67   O35   A    
O71   S16   D    
C40   C81   A    
O46   S1    D    
C35   C53   A    
Cu11  O4    S    
H14   O66   S    
Cu5   O12   S    
C82   C87   A    
C32   C88   A    
Cu10  O20   S    
Cu6   O11   S    
O62   S13   D    
O52   S10   D    
C53   S14   S    
C51   C65   A    
C44   C76   A    
C86   C97   A    
Cu8   O22   S    
O65   S14   D    
O72   S16   D    
C76   C94   A    
C22   O9    A    
C18   C58   S    
Cu10  O25   S    
C38   C55   A    
C72   C108  S    
C13   C36   S    
C31   C89   A    
C36   O45   A    
Cu10  O3    S    
C6    C38   S    
C37   C84   A    
C11   C43   S    
C40   C57   A    
Cu1   O45   S    
C71   O36   A    
C81   C96   A    
C24   O14   A    
C28   O21   A    
C76   C88   A    
C70   O32   A    
O44   S1    D    
C10   N3    T    
C87   C98   A    
Cu2   Cu12  S    
Cu6   O23   S    
Cu6   O67   S    
C4    C35   S    
H16   O73   S    
Cu2   O33   S    
C73   O38   A    
H12   O60   S    
C30   O26   A    
C27   C96   S    
C36   O23   A    
C60   S16   S    
C8    N16   T    
C58   O7    A    
C111  N9    T    
C27   O18   A    
O94   S8    D    
O73   S16   S    
Cu8   Cu10  S    
C67   C104  S    
C14   C45   S    
C50   S11   S    
C25   O12   A    
C53   C59   A    
C4    N12   T    
O50   S9    S    
C22   C100  S    
C20   C80   S    
C89   C100  A    
C55   S12   S    
O88   S6    D    
C69   O6    A    
O60   S12   S    
Cu12  O27   S    
C52   C64   A    
C33   C92   A    
C42   C60   A    
C72   O37   A    
C46   C78   A    
C92   C100  A    
Cu7   O56   S    
Cu11  O24   S    
C80   O3    A    
C26   O17   A    
C44   C62   A    
H9    O50   S    
Cu9   O8    S    
C45   C63   A    
Cu2   O31   S    
C56   C60   A    
C46   C64   A    
O87   S6    D    
C48   C77   A    
C57   S3    S    
C25   O56   A    
H2    O76   S    
C18   C106  T    
C79   C95   A    
O90   S6    S    
C17   C105  T    
O95   S8    D    
Cu10  O7    S    
O92   S7    D    
Cu4   O42   S    
O91   S7    D    
C39   C56   A    
C23   O13   A    
C74   O41   A    
Cu6   O16   S    
Cu5   O10   S    
C49   S10   S    
C73   O42   A    
H13   O63   S    
C69   O2    A    
C85   C98   A    
C62   S7    S    
O76   S2    S    
C33   C112  S    
C6    N14   T    
C29   O22   A    
C13   C104  T    
C73   C109  S    
C56   S13   S    
C32   C50   A    
C91   O4    A    
C48   C65   A    
C29   O25   A    
Cu8   O5    S    
Cu7   O13   S    
C22   O11   A    
C78   C94   A    
Cu8   O18   S    
Cu3   O38   S    
Cu7   O15   S    
C68   O29   A    
O61   S13   D    
Cu9   O2    S    
C28   C95   S    
C29   C94   S    
O84   S5    D    
O86   S5    S    
C112  N10   T    
C91   O8    A    
O75   S2    D    
C50   C62   A    
Cu8   O89   S    
Cu3   O36   S    
C51   S1    S    
C90   C99   A    
C79   C85   A    
C81   C84   A    
C8    C40   S    
C64   S5    S    
H8    O96   S    
C41   C79   A    
C21   C91   S    
Cu5   O17   S    
O54   S11   D    
Cu11  O6    S    
O51   S10   D    
Cu3   O39   S    
C74   O39   A    
H1    O47   S    
C30   O24   A    
C82   C95   A    
C59   S4    S    
O63   S13   S    
C34   C52   A    
O59   S12   D    
C58   O89   A    
C9    N2    T    
C42   C83   A    
C17   C47   S    
C3    N11   T    
O74   S2    D    
C27   O20   A    
C26   O15   A    
C21   C109  T    
O48   S9    D    
C28   O19   A    
C23   O10   A    
Cu1   O14   S    
Cu2   O35   S    
C9    C41   S    
C33   C51   A    
C37   C54   A    
O70   S15   S    
O55   S11   D    
C54   S15   S    
C3    C34   S    
C45   C75   A    
C38   C87   A    
C1    O67   A    
C110  N1    T    
Cu1   O1    S    
C47   O78   A    
C11   N4    T    
C1    O1    A    
C65   S6    S    
C70   O30   A    
O79   S3    D    
C12   C44   S    
C63   S8    S    
C66   C103  S    
C72   O43   A    
C15   N7    T    
Cu4   O41   S    
C35   C85   A    
C16   N8    T    
Cu9   O19   S    
O49   S9    D    
C68   O33   A    
C47   O34   A    
C75   C93   A    
C5    N13   T    
C83   C96   A    
C55   C61   A    
C77   C93   A    
Cu12  O30   S    
C31   C110  S    
C2    C25   S    
C74   C106  S    
C75   C89   A    
O80   S3    S    
Cu3   O37   S    
C24   O16   A    
C2    C103  T    
C80   O5    A    
Cu9   Cu11  S    
C88   C99   A    
C19   C69   S    
C67   O28   A    
O77   S3    D    
C26   C97   S    
Cu1   Cu6   S    
Cu4   O40   S    
H7    O93   S    
C83   C86   A    
C7    N15   T    
C68   C105  S    
H5    O86   S    
C41   C59   A    
O82   S4    D    
O83   S4    S    
H10   O53   S    
C43   C82   A    
C7    C39   S    
O96   S8    S    
C31   C49   A    
C15   C46   S    
O47   S1    S    
C66   O31   A    
C1    C102  S    
O69   S15   D    
Cu3   Cu4   S    
C39   C86   A    
Cu9   O26   S    
C20   C108  T    
C54   C57   A    
C19   C107  T    
