data_mof_unit_7711.cif
_audit_creation_date              2013-03-05T16:00:41-0500
_audit_creation_method            fapswitch 2.2
_symmetry_space_group_name_H-M    P1
_symmetry_Int_Tables_number       1
_space_group_crystal_system       triclinic
_cell_length_a                    6.928399
_cell_length_b                    31.390289
_cell_length_c                    35.026868
_cell_angle_alpha                 90.000021
_cell_angle_beta                  89.999444
_cell_angle_gamma                 89.998649
_cell_volume                      7617.79901175

loop_
_atom_site_label
_atom_site_type_symbol
_atom_site_description
_atom_site_fract_x
_atom_site_fract_y
_atom_site_fract_z
_atom_type_partial_charge
O1    O     O_R   0.417270 0.211480 0.210950 -0.581454
O2    O     O_R   0.582730 0.788520 0.789050 -0.590489
O3    O     O_R   0.582730 0.788520 0.710950 -0.590463
O4    O     O_R   0.417270 0.211480 0.289050 -0.581450
O5    O     O_R   0.917270 0.288520 0.289050 -0.581453
O6    O     O_R   0.082730 0.711480 0.710950 -0.590458
O7    O     O_R   0.082730 0.711480 0.789050 -0.590441
O8    O     O_R   0.917270 0.288520 0.210950 -0.581459
O9    O     O_R   0.746940 0.206370 0.288750 -0.593868
O10   O     O_R   0.253060 0.793630 0.711250 -0.583213
O11   O     O_R   0.253060 0.793630 0.788750 -0.583157
O12   O     O_R   0.746940 0.206370 0.211250 -0.593867
O13   O     O_R   0.246940 0.293630 0.211250 -0.593862
O14   O     O_R   0.753060 0.706370 0.788750 -0.583481
O15   O     O_R   0.753060 0.706370 0.711250 -0.583275
O16   O     O_R   0.246940 0.293630 0.288750 -0.593867
C1    C     C_R   0.578310 0.196702 0.302504 1.076988
C2    C     C_R   0.421827 0.803377 0.697475 1.077155
C3    C     C_R   0.421826 0.803378 0.802525 1.077132
C4    C     C_R   0.578311 0.196702 0.197496 1.076988
C5    C     C_R   0.078308 0.303298 0.197496 1.076998
C6    C     C_R   0.921824 0.696629 0.802531 1.077321
C7    C     C_R   0.921829 0.696624 0.697473 1.077214
C8    C     C_R   0.078308 0.303297 0.302504 1.076988
O17   O     O_3   0.583760 0.276950 0.250000 -0.283679
O18   O     O_3   0.416240 0.723050 0.750000 -0.280917
O19   O     O_3   0.083760 0.223050 0.250000 -0.283678
O20   O     O_3   0.916240 0.776950 0.750000 -0.280744
V1    V     V_3+5 0.858600 0.245000 0.250000 1.262021
V2    V     V_3+5 0.141400 0.755000 0.750000 1.270858
V3    V     V_3+5 0.358600 0.255000 0.250000 1.262019
V4    V     V_3+5 0.641400 0.745000 0.750000 1.270689
C9    C     C_R   0.937487 0.587076 0.538238 0.708214
C10   C     C_R   0.997067 0.411270 0.461701 0.714857
C11   C     C_R   0.997219 0.411274 0.038295 0.714890
C12   C     C_R   0.936988 0.587077 0.961771 0.708236
C13   C     C_R   0.437522 0.912929 0.961757 0.708208
C14   C     C_R   0.497073 0.088733 0.038297 0.714853
C15   C     C_R   0.497059 0.088732 0.461701 0.714850
C16   C     C_R   0.437602 0.912927 0.538242 0.708200
N1    N     N_R   0.943663 0.572992 0.575224 -0.180944
N2    N     N_R   0.014603 0.425647 0.424947 -0.181221
N3    N     N_R   0.014532 0.425650 0.075054 -0.181221
N4    N     N_R   0.943430 0.573001 0.924785 -0.180959
N5    N     N_R   0.443666 0.927014 0.924771 -0.180941
N6    N     N_R   0.514634 0.074355 0.075051 -0.181220
N7    N     N_R   0.514642 0.074354 0.424948 -0.181221
N8    N     N_R   0.443719 0.927011 0.575228 -0.180940
C17   C     C_R   0.953856 0.530360 0.583350 0.593419
C18   C     C_R   0.010458 0.468355 0.416929 0.593388
C19   C     C_R   0.010109 0.468357 0.083076 0.593406
C20   C     C_R   0.953890 0.530372 0.916654 0.593391
C21   C     C_R   0.453833 0.969647 0.916647 0.593430
C22   C     C_R   0.510513 0.031646 0.083068 0.593384
C23   C     C_R   0.510555 0.031645 0.416931 0.593383
C24   C     C_R   0.453858 0.969645 0.583352 0.593427
C25   C     C_R   0.953763 0.499589 0.553610 -0.246418
C26   C     C_R   0.981645 0.498782 0.446384 -0.245209
C27   C     C_R   0.981205 0.498779 0.053621 -0.245158
C28   C     C_R   0.953843 0.499597 0.946389 -0.246426
C29   C     C_R   0.453747 0.000416 0.946387 -0.246420
C30   C     C_R   0.481700 0.001220 0.053613 -0.245214
C31   C     C_R   0.481759 0.001218 0.446386 -0.245220
C32   C     C_R   0.453762 0.000414 0.553611 -0.246418
C33   C     C_R   0.958759 0.513982 0.515278 -0.065902
C34   C     C_R   0.973570 0.484341 0.484677 -0.065485
C35   C     C_R   0.973403 0.484342 0.015324 -0.065498
C36   C     C_R   0.958559 0.513984 0.984724 -0.065879
C37   C     C_R   0.458776 0.986023 0.984718 -0.065902
C38   C     C_R   0.473594 0.015663 0.015320 -0.065484
C39   C     C_R   0.473626 0.015661 0.484679 -0.065483
C40   C     C_R   0.458818 0.986020 0.515280 -0.065908
C41   C     C_R   0.949666 0.558053 0.507504 -0.349057
C42   C     C_R   0.980934 0.440244 0.492421 -0.350303
C43   C     C_R   0.981072 0.440249 0.007575 -0.350327
C44   C     C_R   0.949158 0.558052 0.992504 -0.349036
C45   C     C_R   0.449709 0.941951 0.992492 -0.349058
C46   C     C_R   0.480934 0.059760 0.007577 -0.350300
C47   C     C_R   0.480929 0.059758 0.492421 -0.350298
C48   C     C_R   0.449787 0.941948 0.507507 -0.349057
C49   C     C_R   0.953921 0.455087 0.560842 0.168247
C50   C     C_R   0.964915 0.543093 0.438980 0.168788
C51   C     C_R   0.964123 0.543083 0.061029 0.168803
C52   C     C_R   0.954322 0.455095 0.939151 0.168218
C53   C     C_R   0.453881 0.044919 0.939157 0.168251
C54   C     C_R   0.464999 0.956909 0.061016 0.168786
C55   C     C_R   0.465100 0.956906 0.438983 0.168786
C56   C     C_R   0.453858 0.044917 0.560841 0.168253
C57   C     C_R   0.969315 0.426109 0.530529 0.782713
C58   C     C_R   0.951099 0.572079 0.469300 0.780062
C59   C     C_R   0.950284 0.572071 0.030710 0.780038
C60   C     C_R   0.969735 0.426117 0.969463 0.782721
C61   C     C_R   0.469284 0.073896 0.969470 0.782712
C62   C     C_R   0.451176 0.927923 0.030695 0.780064
C63   C     C_R   0.451285 0.927920 0.469304 0.780066
C64   C     C_R   0.469251 0.073894 0.530528 0.782714
O21   O     O_2   0.919632 0.629171 0.531316 -0.361896
O22   O     O_2   0.994560 0.368953 0.468405 -0.357973
O23   O     O_2   0.994943 0.368957 0.031586 -0.357960
O24   O     O_2   0.918894 0.629167 0.968694 -0.361862
O25   O     O_2   0.419692 0.870833 0.968678 -0.361898
O26   O     O_2   0.494547 0.131051 0.031596 -0.357979
O27   O     O_2   0.494504 0.131049 0.468403 -0.357976
O28   O     O_2   0.419796 0.870830 0.531320 -0.361907
O29   O     O_2   0.969945 0.518067 0.620087 -0.472531
O30   O     O_2   0.039498 0.481172 0.380647 -0.470913
O31   O     O_2   0.038973 0.481179 0.119362 -0.470885
O32   O     O_2   0.970198 0.518092 0.879917 -0.472560
O33   O     O_2   0.469891 0.981941 0.879909 -0.472528
O34   O     O_2   0.539575 0.018829 0.119349 -0.470916
O35   O     O_2   0.539634 0.018829 0.380650 -0.470920
O36   O     O_2   0.469898 0.981940 0.620089 -0.472525
C65   C     C_R   0.892452 0.392082 0.365914 -0.028740
C66   C     C_R   0.787504 0.604810 0.632003 -0.040863
C67   C     C_R   0.787382 0.604824 0.867999 -0.040880
C68   C     C_R   0.892395 0.392075 0.134085 -0.028626
C69   C     C_R   0.392481 0.107917 0.134086 -0.028752
C70   C     C_R   0.287496 0.895196 0.867994 -0.040888
C71   C     C_R   0.287531 0.895196 0.632005 -0.040877
C72   C     C_R   0.392485 0.107916 0.365914 -0.028764
H1    H     H_    0.767210 0.412690 0.366978 0.175376
H2    H     H_    0.670047 0.582257 0.629270 0.177665
H3    H     H_    0.669924 0.582269 0.870721 0.177573
H4    H     H_    0.767119 0.412672 0.133018 0.175430
H5    H     H_    0.267245 0.087309 0.133022 0.175370
H6    H     H_    0.170033 0.917749 0.870729 0.177683
H7    H     H_    0.170075 0.917751 0.629269 0.177688
H8    H     H_    0.267254 0.087306 0.366977 0.175365
C73   C     C_R   0.908707 0.362257 0.336479 -0.121916
C74   C     C_R   0.782969 0.634996 0.661372 -0.108578
C75   C     C_R   0.782905 0.635013 0.838633 -0.109014
C76   C     C_R   0.908673 0.362252 0.163521 -0.121920
C77   C     C_R   0.408728 0.137742 0.163522 -0.121923
C78   C     C_R   0.282959 0.865009 0.838625 -0.108451
C79   C     C_R   0.282980 0.865010 0.661374 -0.108463
C80   C     C_R   0.408730 0.137741 0.336478 -0.121919
H9    H     H_    0.796162 0.360987 0.315038 0.158893
H10   H     H_    0.662709 0.634502 0.681125 0.164670
H11   H     H_    0.662665 0.634523 0.818875 0.164493
H12   H     H_    0.796114 0.360974 0.184959 0.158915
H13   H     H_    0.296184 0.139011 0.184964 0.158892
H14   H     H_    0.162696 0.865503 0.818874 0.164706
H15   H     H_    0.162716 0.865507 0.681126 0.164719
H16   H     H_    0.296187 0.139009 0.315036 0.158889
C81   C     C_R   0.067480 0.334414 0.334539 -0.357474
C82   C     C_R   0.931246 0.665333 0.665410 -0.359845
C83   C     C_R   0.931212 0.665345 0.834601 -0.359587
C84   C     C_R   0.067475 0.334417 0.165462 -0.357503
C85   C     C_R   0.567493 0.165586 0.165460 -0.357484
C86   C     C_R   0.431240 0.834673 0.834586 -0.359837
C87   C     C_R   0.431249 0.834671 0.665414 -0.359892
C88   C     C_R   0.567491 0.165586 0.334540 -0.357472
C89   C     C_R   0.211845 0.336920 0.363264 0.160429
C90   C     C_R   0.086658 0.664741 0.638902 0.163038
C91   C     C_R   0.086567 0.664759 0.861126 0.162714
C92   C     C_R   0.211855 0.336932 0.136741 0.160426
C93   C     C_R   0.711856 0.163081 0.136735 0.160439
C94   C     C_R   0.586662 0.835267 0.861090 0.163095
C95   C     C_R   0.586674 0.835263 0.638911 0.163138
C96   C     C_R   0.711853 0.163082 0.363265 0.160436
C97   C     C_R   0.196297 0.367989 0.392264 0.758980
C98   C     C_R   0.092247 0.633366 0.610113 0.756971
C99   C     C_R   0.092057 0.633383 0.889919 0.757029
C100  C     C_R   0.196298 0.368005 0.107743 0.758968
C101  C     C_R   0.696314 0.132013 0.107734 0.758980
C102  C     C_R   0.592257 0.866642 0.889878 0.756950
C103  C     C_R   0.592289 0.866638 0.610123 0.756950
C104  C     C_R   0.696312 0.132014 0.392266 0.758981
C105  C     C_R   0.035490 0.395264 0.394044 -0.091970
C106  C     C_R   0.941766 0.603699 0.606139 -0.093870
C107  C     C_R   0.941582 0.603712 0.893874 -0.093718
C108  C     C_R   0.035450 0.395268 0.105958 -0.092030
C109  C     C_R   0.535516 0.104737 0.105954 -0.091963
C110  C     C_R   0.441766 0.896309 0.893855 -0.093890
C111  C     C_R   0.441807 0.896306 0.606144 -0.093905
C112  C     C_R   0.535519 0.104737 0.394045 -0.091956
N9    N     N_R   0.929339 0.438358 0.598623 0.304889
O37   O     O_R   0.766418 0.444031 0.616395 -0.253359
O38   O     O_R   0.054026 0.411390 0.612310 -0.197346
N10   N     N_R   0.952159 0.559406 0.400826 0.304902
O39   O     O_R   0.802370 0.550298 0.379953 -0.255585
O40   O     O_R   0.070366 0.589054 0.389557 -0.196244
N11   N     N_R   0.950985 0.559382 0.099183 0.304889
O41   O     O_R   0.801189 0.550187 0.120026 -0.255792
O42   O     O_R   0.068797 0.589095 0.110482 -0.196101
N12   N     N_R   0.930076 0.438364 0.901362 0.304891
O43   O     O_R   0.767202 0.443977 0.883558 -0.253193
O44   O     O_R   0.055059 0.411449 0.887696 -0.197453
N13   N     N_R   0.429264 0.061650 0.901377 0.304889
O45   O     O_R   0.266334 0.055975 0.883610 -0.253367
O46   O     O_R   0.553930 0.088620 0.887687 -0.197341
N14   N     N_R   0.452283 0.940594 0.099169 0.304902
O47   O     O_R   0.302500 0.949696 0.120048 -0.255570
O48   O     O_R   0.570524 0.910949 0.110434 -0.196254
N15   N     N_R   0.452426 0.940590 0.400830 0.304904
O49   O     O_R   0.302642 0.949682 0.379949 -0.255547
O50   O     O_R   0.570714 0.910953 0.389567 -0.196274
N16   N     N_R   0.429207 0.061646 0.598620 0.304889
O51   O     O_R   0.266275 0.055964 0.616385 -0.253388
O52   O     O_R   0.553837 0.088623 0.612312 -0.197330
F1    F     F_    0.968568 0.383803 0.538801 -0.539128
F2    F     F_    0.935008 0.614194 0.460853 -0.540534
F3    F     F_    0.933843 0.614180 0.039160 -0.540532
F4    F     F_    0.969308 0.383812 0.961185 -0.539127
F5    F     F_    0.468512 0.116202 0.961200 -0.539130
F6    F     F_    0.435114 0.885808 0.039141 -0.540531
F7    F     F_    0.435264 0.885804 0.460858 -0.540535
F8    F     F_    0.468441 0.116200 0.538798 -0.539129
N17   N     N_R   0.367136 0.306597 0.364790 0.270592
O53   O     O_R   0.330745 0.266046 0.362021 -0.303827
O54   O     O_R   0.539679 0.318700 0.374621 -0.295607
N18   N     N_R   0.233259 0.697061 0.639382 0.270286
O55   O     O_R   0.184446 0.737071 0.638664 -0.293318
O56   O     O_R   0.413309 0.686828 0.634239 -0.301244
N19   N     N_R   0.233146 0.697091 0.860670 0.270101
O57   O     O_R   0.184226 0.737100 0.861236 -0.293660
O58   O     O_R   0.413085 0.686900 0.866067 -0.300262
N20   N     N_R   0.367161 0.306613 0.135213 0.270596
O59   O     O_R   0.330787 0.266060 0.137977 -0.303822
O60   O     O_R   0.539699 0.318720 0.125384 -0.295665
N21   N     N_R   0.867137 0.193405 0.135208 0.270592
O61   O     O_R   0.830735 0.233956 0.137976 -0.303825
O62   O     O_R   0.039689 0.181302 0.125382 -0.295631
N22   N     N_R   0.733287 0.802952 0.860605 0.270357
O63   O     O_R   0.684523 0.762942 0.861352 -0.293376
O64   O     O_R   0.913350 0.813198 0.865695 -0.301368
N23   N     N_R   0.733282 0.802945 0.639396 0.270350
O65   O     O_R   0.684505 0.762936 0.638634 -0.293251
O66   O     O_R   0.913358 0.813189 0.634329 -0.301505
N24   N     N_R   0.867133 0.193406 0.364791 0.270593
O67   O     O_R   0.830730 0.233957 0.362022 -0.303821
O68   O     O_R   0.039682 0.181304 0.374619 -0.295611
F9    F     F_    0.334554 0.370814 0.419637 -0.619143
F10   F     F_    0.241659 0.632511 0.585014 -0.619219
F11   F     F_    0.241345 0.632530 0.915047 -0.619130
F12   F     F_    0.334589 0.370843 0.080377 -0.619170
F13   F     F_    0.834569 0.129190 0.080360 -0.619142
F14   F     F_    0.741691 0.867499 0.914971 -0.619240
F15   F     F_    0.741734 0.867492 0.585032 -0.619244
F16   F     F_    0.834564 0.129192 0.419640 -0.619138

loop_
_geom_bond_atom_site_label_1
_geom_bond_atom_site_label_2
_geom_bond_distance
_ccdc_geom_bond_type
O17   V3    1.705400 S    
C57   F1    1.359258 S    
C16   O28   1.349138 S    
C88   C96   1.420891 A    
O18   V4    1.705402 S    
N15   O50   1.301043 A    
O12   V1    1.977679 S    
O19   V1    1.705372 S    
C52   N12   1.433888 S    
C10   N2    1.369605 A    
N8    C24   1.370002 A    
N19   O57   1.300964 A    
C61   F5    1.359259 S    
N22   O63   1.300877 A    
C56   C64   1.402179 A    
C33   C41   1.411375 A    
O15   V4    1.977646 S    
C104  F16   1.358210 S    
C67   C75   1.398929 A    
O16   V3    1.977645 S    
C30   C54   1.419645 A    
C22   O34   1.348095 S    
C49   N9    1.433879 S    
C65   C73   1.397201 A    
O8    V1    1.975441 S    
C42   C57   1.408916 A    
C15   N7    1.369600 A    
C38   C46   1.411447 A    
C27   C51   1.419663 A    
C41   C58   1.408774 A    
C8    C81   1.489563 S    
N19   O58   1.300883 A    
C70   C110  1.401507 A    
C80   H16   1.083349 S    
C74   C82   1.407924 A    
C64   F8    1.359253 S    
C100  F12   1.358213 S    
C46   C61   1.408911 A    
C101  C109  1.406464 A    
C34   C42   1.411449 A    
C11   N3    1.369621 A    
C45   C62   1.408776 A    
O1    V3    1.975430 S    
C3    C86   1.493444 S    
C17   C25   1.420573 A    
C4    C85   1.489566 S    
C68   C108  1.401073 A    
O3    C2    1.297324 A    
O2    V4    1.975425 S    
C56   N16   1.433877 S    
C98   C106  1.404876 A    
N13   O46   1.301056 A    
C69   C109  1.401063 A    
C16   N8    1.369518 A    
C90   N18   1.435720 S    
C54   C62   1.401769 A    
C27   C35   1.416934 A    
C37   C45   1.411372 A    
C26   C34   1.416932 A    
C86   C94   1.421885 A    
N23   O65   1.300861 A    
O11   V2    1.977677 S    
N10   O40   1.301056 A    
C103  F15   1.358375 S    
N9    O38   1.301057 A    
C23   C31   1.420036 A    
C31   C55   1.419642 A    
C24   C32   1.420579 A    
C75   C83   1.407956 A    
N16   O51   1.301280 A    
C95   N23   1.435674 S    
C83   C91   1.422017 A    
C73   C81   1.406612 A    
N7    C112  1.449891 S    
C70   C78   1.398967 A    
O9    V1    1.977669 S    
N8    C111  1.449776 S    
C97   C105  1.406464 A    
N4    C20   1.370003 A    
O15   C7    1.301412 A    
C69   C77   1.397205 A    
C98   F10   1.358380 S    
O16   C8    1.299690 A    
O7    V2    1.975441 S    
C12   C44   1.412786 A    
N12   O44   1.301073 A    
C93   N21   1.437500 S    
C66   C74   1.398953 A    
C30   C38   1.416934 A    
O12   C4    1.299692 A    
N24   O67   1.301270 A    
C21   C29   1.420580 A    
C19   O31   1.348101 S    
C11   O23   1.349062 S    
N1    C17   1.370005 A    
C80   C88   1.406613 A    
C72   C112  1.401061 A    
N17   O53   1.301273 A    
C19   C27   1.420031 A    
O5    V1    1.975444 S    
C55   N15   1.433864 S    
C37   C38   1.423081 A    
C63   F7    1.359274 S    
O10   C2    1.301412 A    
C7    C82   1.493439 S    
C102  C110  1.404876 A    
C67   H3    1.082891 S    
O19   V3    2.152191 S    
C35   C36   1.423076 A    
C76   C84   1.406610 A    
C5    C84   1.489575 S    
C102  F14   1.358380 S    
O20   V4    2.152189 S    
C77   C85   1.406613 A    
C67   C107  1.401452 A    
N22   O64   1.300619 A    
C93   C101  1.412295 A    
C75   H11   1.083127 S    
C17   O29   1.348023 S    
C14   C46   1.413329 A    
C91   C99   1.410185 A    
C13   C45   1.412786 A    
O6    V2    1.975448 S    
C71   C79   1.398966 A    
C39   C47   1.411446 A    
C40   C48   1.411372 A    
C55   C63   1.401768 A    
C72   C80   1.397204 A    
N14   O48   1.301054 A    
N24   O68   1.300774 A    
N11   O41   1.301305 A    
N21   O61   1.301269 A    
N2    C105  1.449890 S    
C71   C111  1.401509 A    
C78   H14   1.083119 S    
N11   O42   1.301085 A    
O10   V2    1.977667 S    
C52   C60   1.402178 A    
N20   O60   1.300767 A    
C53   C61   1.402182 A    
C68   C76   1.397193 A    
O11   C3    1.301412 A    
N6    C22   1.370040 A    
C16   C48   1.412784 A    
O8    C5    1.296974 A    
N6    C109  1.449893 S    
O13   C5    1.299701 A    
N13   O45   1.301285 A    
C12   O24   1.349147 S    
C36   C44   1.411391 A    
C6    C83   1.493475 S    
C48   C63   1.408773 A    
C91   N19   1.435866 S    
C28   C36   1.417049 A    
C15   C47   1.413329 A    
C29   C53   1.419728 A    
C43   C60   1.408921 A    
N2    C18   1.370038 A    
C104  C112  1.406459 A    
O4    C1    1.296974 A    
C9    C41   1.412786 A    
C18   C26   1.420037 A    
N23   O66   1.300579 A    
C10   C42   1.413324 A    
O18   V2    2.152149 S    
C65   H1    1.082949 S    
C82   C90   1.421907 A    
C96   N24   1.437500 S    
C12   N4    1.369515 A    
C1    C88   1.489565 S    
C35   C43   1.411453 A    
C13   N5    1.369520 A    
C2    C87   1.493436 S    
C74   H10   1.083121 S    
C99   C107  1.404854 A    
N10   O39   1.301284 A    
C94   C102  1.410063 A    
N7    C23   1.370035 A    
O9    C1    1.299688 A    
C81   C89   1.420893 A    
C66   C106  1.401498 A    
C51   N11   1.433902 S    
O1    C4    1.296972 A    
C94   N22   1.435686 S    
C68   H4    1.082950 S    
C78   C86   1.407920 A    
C23   O35   1.348092 S    
O2    C3    1.297327 A    
C54   N14   1.433867 S    
N9    O37   1.301285 A    
C90   C98   1.410085 A    
C11   C43   1.413331 A    
C10   O22   1.349054 S    
O14   V4    1.977657 S    
N16   O52   1.301051 A    
C97   F9    1.358210 S    
C60   F4    1.359268 S    
C65   C105  1.401061 A    
N3    C108  1.449922 S    
C72   H8    1.082948 S    
C15   O27   1.349051 S    
C62   F6    1.359279 S    
C76   H12   1.083351 S    
O7    C6    1.297350 A    
C70   H6    1.082887 S    
N1    C106  1.449768 S    
C101  F13   1.358208 S    
C50   C58   1.401766 A    
N21   O62   1.300771 A    
C9    N1    1.369520 A    
N14   O47   1.301283 A    
O14   C6    1.301412 A    
C26   C50   1.419647 A    
N4    C107  1.449747 S    
C49   C57   1.402178 A    
O20   V2    1.705371 S    
C14   O26   1.349050 S    
C99   F11   1.358389 S    
C24   O36   1.348021 S    
N5    C110  1.449773 S    
C92   C100  1.412303 A    
C13   O25   1.349141 S    
C28   C52   1.419734 A    
O17   V1    2.152148 S    
N20   O59   1.301268 A    
O5    C8    1.296976 A    
C85   C93   1.420891 A    
N3    C19   1.370063 A    
C79   C87   1.407912 A    
O6    C7    1.297333 A    
C51   C59   1.401779 A    
C79   H15   1.083116 S    
N17   O54   1.300782 A    
C95   C103  1.410054 A    
C103  C111  1.404878 A    
C25   C49   1.419726 A    
C29   C37   1.417033 A    
C32   C40   1.417030 A    
O3    V4    1.975434 S    
O13   V3    1.977655 S    
C96   C104  1.412293 A    
C14   N6    1.369602 A    
O4    V3    1.975433 S    
C100  C108  1.406487 A    
N18   O56   1.300677 A    
C44   C59   1.408786 A    
N5    C21   1.370005 A    
N15   O49   1.301277 A    
C66   H2    1.082888 S    
C47   C64   1.408911 A    
C73   H9    1.083350 S    
N18   O55   1.300896 A    
C20   O32   1.348031 S    
C20   C28   1.420580 A    
C33   C34   1.423077 A    
C50   N10   1.433873 S    
C18   O30   1.348093 S    
C92   N20   1.437509 S    
C22   C30   1.420036 A    
C21   O33   1.348023 S    
C77   H13   1.083350 S    
C84   C92   1.420891 A    
C9    O21   1.349139 S    
C39   C40   1.423080 A    
N12   O43   1.301294 A    
C69   H5    1.082949 S    
C53   N13   1.433879 S    
C31   C39   1.416932 A    
C32   C56   1.419722 A    
C89   C97   1.412293 A    
C59   F3    1.359291 S    
C25   C33   1.417037 A    
C87   C95   1.421870 A    
C89   N17   1.437503 S    
C58   F2    1.359278 S    
C71   H7    1.082885 S    
