data_mof_unit_34297.cif
_audit_creation_date              2012-12-11T14:17:40-0500
_audit_creation_method            fapswitch 2.2
_symmetry_space_group_name_H-M    P1
_symmetry_Int_Tables_number       1
_space_group_crystal_system       triclinic
_cell_length_a                    6.947271
_cell_length_b                    13.691655
_cell_length_c                    20.401969
_cell_angle_alpha                 102.065328
_cell_angle_beta                  90.795261
_cell_angle_gamma                 90.754715
_cell_volume                      1897.32006863

loop_
_atom_site_label
_atom_site_type_symbol
_atom_type_description
_atom_site_fract_x
_atom_site_fract_y
_atom_site_fract_z
_atom_type_partial_charge
O1    O     O_R   0.506860 0.599390 0.449240 -0.537095
O2    O     O_R   0.180220 0.594600 0.586780 -0.549199
O3    O     O_R   0.004500 0.400610 0.550760 -0.540009
C1    C     C_R   0.350001 0.613258 0.614389 0.750425
O4    O     O_R   0.177490 0.611290 0.451970 -0.548128
O5    O     O_R   0.001750 0.417420 0.414990 -0.556381
C2    C     C_R   0.346146 0.639090 0.435916 0.737714
O6    O     O_R   0.509610 0.582580 0.585010 -0.540774
O7    O     O_3   0.337420 0.436370 0.488020 -0.375027
V1    V     V_3+5 0.064680 0.511800 0.502220 1.393986
O8    O     O_R   0.671710 0.405400 0.413220 -0.528677
C3    C     C_R   0.837166 0.386068 0.385780 0.727367
O9    O     O_R   0.674440 0.388710 0.548030 -0.543972
C4    C     C_R   0.843324 0.364433 0.566244 0.715770
V2    V     V_3+5 0.564010 0.488200 0.497780 1.423952
O10   O     O_3   0.841140 0.563630 0.511980 -0.375037
C5    C     C_R   0.885357 0.114112 0.610189 0.314634
H1    H     H_    0.889142 0.169754 0.519146 0.105955
H2    H     H_    0.859166 0.986685 0.692169 0.158139
C6    C     C_R   0.854291 0.287661 0.605546 -0.073862
C7    C     C_R   0.893284 0.316032 0.928504 0.290151
C8    C     C_R   0.922356 0.389550 0.891123 0.332193
C9    C     C_R   0.911429 0.364408 0.821224 -0.303682
C10   C     C_R   0.873914 0.265468 0.786140 0.006119
C11   C     C_R   0.857182 0.188417 0.823300 0.000673
C12   C     C_R   0.864715 0.240777 0.714637 0.056562
C13   C     C_R   0.870574 0.139205 0.680853 0.062091
C14   C     C_R   0.859301 0.064408 0.717773 -0.275413
C15   C     C_R   0.840824 0.087212 0.787558 0.323593
C16   C     C_R   0.849071 0.314064 0.675362 -0.213770
C17   C     C_R   0.879077 0.188994 0.573306 -0.242287
C18   C     C_R   0.863870 0.214993 0.894960 -0.241081
H3    H     H_    0.827727 0.391884 0.697472 0.105384
H4    H     H_    0.942158 0.423600 0.795238 0.124751
C19   C     C_2   0.990612 0.302586 0.280263 -0.329213
C20   C     C_2   0.828139 0.327653 0.315515 0.131025
H5    H     H_    0.128091 0.327255 0.304332 0.128279
C21   C     C_2   0.998102 0.247688 0.208406 0.378271
C22   C     C_2   0.870903 0.173373 0.182813 -0.315798
H6    H     H_    0.761061 0.151138 0.213939 0.118806
C23   C     C_2   0.200296 0.766794 0.788657 0.313573
C24   C     C_2   0.355656 0.820723 0.817705 -0.351182
H7    H     H_    0.487397 0.820058 0.789742 0.106475
C25   C     C_2   0.203528 0.710704 0.717080 -0.172268
C26   C     C_2   0.362698 0.675658 0.683210 -0.361784
H8    H     H_    0.064756 0.694580 0.691845 0.153768
H9    H     H_    0.503822 0.687806 0.706988 0.127451
C27   C     C_R   0.368579 0.891525 0.386932 -0.235865
H10   H     H_    0.408379 0.013472 0.303063 0.118232
H11   H     H_    0.376223 0.970401 0.410079 0.104280
C28   C     C_R   0.352360 0.718342 0.397025 -0.066415
C29   C     C_R   0.315259 0.685672 0.071973 -0.190493
C30   C     C_R   0.289633 0.610477 0.108273 0.337000
C31   C     C_R   0.305536 0.634356 0.178448 -0.237349
C32   C     C_R   0.346409 0.733175 0.213632 0.057014
C33   C     C_R   0.367433 0.809218 0.175801 0.063855
C34   C     C_R   0.357769 0.759874 0.285324 0.093152
C35   C     C_R   0.373848 0.862180 0.317047 0.110398
C36   C     C_R   0.393529 0.935275 0.278954 -0.196074
C37   C     C_R   0.394093 0.909258 0.209554 -0.182640
C38   C     C_R   0.354135 0.688890 0.326794 -0.282172
C39   C     C_R   0.350345 0.821327 0.427666 0.280950
C40   C     C_R   0.354911 0.784288 0.104879 -0.137001
H12   H     H_    0.354949 0.609697 0.305984 0.117395
H13   H     H_    0.297383 0.668090 0.017901 0.120742
H14   H     H_    0.278709 0.574585 0.204268 0.109334
H15   H     H_    0.410480 0.968994 0.182577 0.120108
O11   O     O_R   0.203230 0.917310 0.915020 -0.528863
O12   O     O_R   0.535500 0.888690 0.048040 -0.547660
O13   O     O_R   0.711080 0.082610 0.085000 -0.555902
C41   C     C_R   0.366337 0.861482 0.064467 0.690770
O14   O     O_R   0.532630 0.905370 0.913230 -0.537096
O15   O     O_R   0.708190 0.099410 0.949230 -0.530676
C42   C     C_R   0.362471 0.883771 0.886555 0.772940
O16   O     O_R   0.206120 0.900510 0.050790 -0.542004
O17   O     O_3   0.375360 0.063570 0.011990 -0.371351
V3    V     V_3+5 0.648170 0.988200 0.997780 1.454597
O18   O     O_R   0.038240 0.111390 0.951940 -0.538857
C43   C     C_R   0.869743 0.137618 0.935033 0.817477
O19   O     O_R   0.041120 0.094710 0.086750 -0.514451
C44   C     C_R   0.874666 0.115015 0.113462 0.759389
V4    V     V_3+5 0.148810 0.011930 0.002180 1.500948
O20   O     O_3   0.871750 0.936430 0.988010 -0.373798
N1    N     N_2   0.641521 0.310934 0.284151 -0.513860
H16   H     H_    0.630422 0.312766 0.233981 0.265678
C45   C     C_3   0.517872 0.238700 0.306612 -0.559343
H17   H     H_    0.417664 0.202935 0.265392 0.194818
H18   H     H_    0.431094 0.276517 0.349462 0.218052
H19   H     H_    0.603668 0.179203 0.322242 0.179193
O21   O     O_3   0.142709 0.270667 0.167948 -0.637745
H20   H     H_    0.220568 0.327211 0.193995 0.281669
N2    N     N_2   0.027347 0.766361 0.825957 -0.497878
H21   H     H_    0.955817 0.833043 0.834910 0.283247
C46   C     C_3   0.900613 0.679678 0.809649 -0.581458
H22   H     H_    0.798161 0.681177 0.851076 0.205443
H23   H     H_    0.984531 0.609977 0.803224 0.201318
H24   H     H_    0.816146 0.680619 0.763250 0.174887
N3    N     N_2   0.341914 0.857213 0.498709 -0.555983
H25   H     H_    0.353807 0.933817 0.513482 0.250024
C47   C     C_3   0.190887 0.818427 0.534534 -0.522826
H26   H     H_    0.157542 0.873216 0.581098 0.205215
H27   H     H_    0.242957 0.752289 0.551194 0.206961
H28   H     H_    0.058175 0.800670 0.503066 0.203988
N4    N     N_2   0.233404 0.511948 0.074689 -0.475176
H29   H     H_    0.177716 0.467866 0.105387 0.274678
C48   C     C_3   0.370812 0.459656 0.027926 -0.458760
H30   H     H_    0.310923 0.385024 0.003747 0.225655
H31   H     H_    0.506611 0.449084 0.054814 0.177033
H32   H     H_    0.400540 0.501172 0.987826 0.183523
N5    N     N_2   0.909829 0.013820 0.575720 -0.549271
H33   H     H_    0.007805 0.007661 0.537581 0.261115
C49   C     C_3   0.731349 0.962583 0.552273 -0.554595
H34   H     H_    0.665428 0.996962 0.512759 0.191861
H35   H     H_    0.630070 0.966209 0.594379 0.214922
H36   H     H_    0.759136 0.882863 0.530633 0.215105
O22   O     O_3   0.907227 0.345103 0.997629 -0.634254
H37   H     H_    0.852098 0.292726 0.018944 0.266764
N6    N     N_2   0.977408 0.488656 0.923834 -0.473960
H38   H     H_    0.059459 0.526336 0.895067 0.239942
C50   C     C_3   0.823919 0.548874 0.957276 -0.470573
H39   H     H_    0.880171 0.625218 0.979167 0.192481
H40   H     H_    0.767691 0.516560 0.998767 0.232766
H41   H     H_    0.705469 0.554360 0.921111 0.153384
O23   O     O_3   0.809305 0.010503 0.820843 -0.651254
H42   H     H_    0.783148 0.947245 0.787944 0.264834

loop_
_geom_bond_atom_site_label_1
_geom_bond_atom_site_label_2
_ccdc_geom_bond_type
C32   C33   A    
C23   C24   D    
O12   V3    S    
C19   C20   D    
C28   C38   A    
C1    O6    A    
C5    N5    S    
N4    C48   S    
C34   C35   A    
C6    C16   A    
C30   C31   A    
C50   H39   S    
C12   C13   A    
C14   C15   A    
C19   H5    S    
C10   C12   A    
O5    C3    A    
C21   C22   D    
C45   H18   S    
C48   H30   S    
V3    O20   S    
C30   N4    S    
O11   C42   A    
V2    O10   S    
C15   O23   S    
O22   H37   S    
O12   C41   A    
O13   C44   A    
N5    H33   S    
C49   H34   S    
C39   N3    S    
O8    V2    S    
C37   H15   S    
C50   H40   S    
C9    C10   A    
O1    V2    S    
C3    C20   S    
O7    V1    S    
C50   H41   S    
C11   C18   A    
C27   H11   S    
C36   C37   A    
O1    C2    A    
C7    C8    A    
N6    H38   S    
O13   V3    S    
C28   C39   A    
C7    O22   S    
C49   H35   S    
N4    H29   S    
C25   H8    S    
N5    C49   S    
C1    C26   S    
C26   H9    S    
C11   C15   A    
C7    C18   A    
C24   C42   S    
C5    C13   A    
C4    C6    S    
C19   C21   S    
C10   C11   A    
C22   C44   S    
O19   V4    S    
O17   V4    S    
C22   H6    S    
O4    C2    A    
O18   C43   A    
C46   H24   S    
C35   C36   A    
C45   H19   S    
C47   H28   S    
C33   C37   A    
C27   C35   A    
C38   H12   S    
O2    C1    A    
O14   V3    S    
O18   V4    S    
C27   C39   A    
C9    H4    S    
N2    C46   S    
O15   C43   A    
C33   C40   A    
N1    H16   S    
C46   H23   S    
H2    C14   S    
O3    C4    A    
O14   C42   A    
C40   C41   S    
C12   C16   A    
O6    V2    S    
N3    C47   S    
O9    V2    S    
C5    C17   A    
C23   C25   S    
C24   H7    S    
O2    V1    S    
C29   C30   A    
C47   H27   S    
C8    N6    S    
C31   C32   A    
C16   H3    S    
C45   H17   S    
C25   C26   D    
N1    C45   S    
O19   C44   A    
C29   C40   A    
O5    V1    S    
O8    C3    A    
O16   V4    S    
C34   C38   A    
C31   H14   S    
C21   O21   S    
H10   C36   S    
O11   V4    S    
C32   C34   A    
O7    V2    S    
C2    C28   S    
O4    V1    S    
O3    V1    S    
V1    O10   S    
C18   C43   S    
C41   O16   A    
O17   V3    S    
O21   H20   S    
C48   H31   S    
C20   N1    S    
N2    H21   S    
C46   H22   S    
N6    C50   S    
C23   N2    S    
N3    H25   S    
C13   C14   A    
O15   V3    S    
C8    C9    A    
C47   H26   S    
H1    C17   S    
V4    O20   S    
O9    C4    A    
C6    C17   A    
C49   H36   S    
C29   H13   S    
O23   H42   S    
C48   H32   S    
