data_mof_unit_60008.cif
_audit_creation_date              2013-03-05T16:20:11-0500
_audit_creation_method            fapswitch 2.2
_symmetry_space_group_name_H-M    P1
_symmetry_Int_Tables_number       1
_space_group_crystal_system       triclinic
_cell_length_a                    22.288409
_cell_length_b                    22.292002
_cell_length_c                    14.986778
_cell_angle_alpha                 90.003048
_cell_angle_beta                  90.035466
_cell_angle_gamma                 90.002031
_cell_volume                      7446.22803453

loop_
_atom_site_label
_atom_site_type_symbol
_atom_site_description
_atom_site_fract_x
_atom_site_fract_y
_atom_site_fract_z
_atom_type_partial_charge
O1    O     O_R   0.061440 0.438650 0.574260 -0.606959
O2    O     O_R   0.061440 0.438650 0.425740 -0.605516
O3    O     O_R   0.061440 0.561350 0.574260 -0.603170
O4    O     O_R   0.061440 0.561350 0.425740 -0.601058
O5    O     O_R   0.561440 0.938650 0.574260 -0.606273
O6    O     O_R   0.561440 0.938650 0.425740 -0.606078
O7    O     O_R   0.561440 0.061350 0.574260 -0.602318
O8    O     O_R   0.561440 0.061350 0.425740 -0.601473
C1    C     C_R   0.081043 0.419004 0.500015 0.891195
C2    C     C_R   0.081046 0.581001 0.500012 0.891464
C3    C     C_R   0.581044 0.919004 0.500017 0.891119
C4    C     C_R   0.581057 0.080985 0.500013 0.891947
O9    O     O_R   0.938580 0.438650 0.574260 -0.603137
O10   O     O_R   0.938580 0.438650 0.425740 -0.586880
O11   O     O_R   0.938580 0.561350 0.574260 -0.603901
O12   O     O_R   0.938580 0.561350 0.425740 -0.596965
O13   O     O_R   0.438580 0.938650 0.574260 -0.603531
O14   O     O_R   0.438580 0.938650 0.425740 -0.587500
O15   O     O_R   0.438580 0.061350 0.574260 -0.606180
O16   O     O_R   0.438580 0.061350 0.425740 -0.594450
C5    C     C_R   0.918916 0.419073 0.499957 0.910379
C6    C     C_R   0.918880 0.580902 0.499974 0.909078
C7    C     C_R   0.418917 0.919075 0.499950 0.910008
C8    C     C_R   0.418882 0.080905 0.499970 0.909070
Zn1   Zn    Zn3+2 0.000010 0.500000 0.599130 1.036839
Zn2   Zn    Zn3+2 0.000010 0.500000 0.400870 1.049727
Zn3   Zn    Zn3+2 0.500010 0.000000 0.599130 1.036111
Zn4   Zn    Zn3+2 0.500010 0.000000 0.400870 1.050098
C9    C     C_3   0.775933 0.274035 0.593646 -0.449377
C10   C     C_3   0.808232 0.241019 0.441067 -0.439431
C11   C     C_3   0.791903 0.741869 0.584779 -0.457298
C12   C     C_3   0.794775 0.745606 0.417543 -0.439880
C13   C     C_3   0.278835 0.771200 0.592856 -0.449759
C14   C     C_3   0.306343 0.742863 0.436208 -0.439979
C15   C     C_3   0.286452 0.236467 0.589352 -0.458111
C16   C     C_3   0.299752 0.250552 0.424470 -0.439783
C17   C     C_3   0.257514 0.693856 0.435051 -0.013409
C18   C     C_3   0.231778 0.720360 0.593854 0.021618
C19   C     C_3   0.251065 0.299687 0.423520 -0.015161
C20   C     C_3   0.239448 0.287354 0.589640 0.018127
C21   C     C_3   0.759525 0.191902 0.439941 -0.013567
C22   C     C_3   0.728877 0.223185 0.594827 0.022180
C23   C     C_3   0.745994 0.794658 0.416582 -0.015070
C24   C     C_3   0.744927 0.792775 0.584576 0.019450
H1    H     H_    0.254530 0.678028 0.614211 0.141990
H2    H     H_    0.277769 0.651161 0.459220 0.146265
H3    H     H_    0.263421 0.330896 0.597283 0.141409
H4    H     H_    0.273091 0.343820 0.435468 0.149726
H5    H     H_    0.750966 0.181561 0.619559 0.144931
H6    H     H_    0.779026 0.150061 0.468409 0.146950
H7    H     H_    0.769102 0.836489 0.582785 0.142272
H8    H     H_    0.768455 0.839261 0.419266 0.150714
H9    H     H_    0.818590 0.257014 0.623024 0.189797
H10   H     H_    0.849879 0.222222 0.471232 0.183053
H11   H     H_    0.837604 0.761956 0.588642 0.185396
H12   H     H_    0.839653 0.767437 0.421718 0.183122
H13   H     H_    0.322324 0.753296 0.618082 0.187336
H14   H     H_    0.348810 0.723156 0.462276 0.182278
H15   H     H_    0.331625 0.256045 0.602259 0.184864
H16   H     H_    0.344097 0.271819 0.437782 0.182576
H17   H     H_    0.820514 0.254136 0.372129 0.258005
H18   H     H_    0.761403 0.312006 0.636509 0.252948
H19   H     H_    0.794669 0.720334 0.353861 0.255738
H20   H     H_    0.786896 0.713332 0.645090 0.248128
H21   H     H_    0.316575 0.758056 0.367470 0.257874
H22   H     H_    0.265767 0.807818 0.639217 0.253575
H23   H     H_    0.303709 0.229338 0.357855 0.255525
H24   H     H_    0.277816 0.204323 0.644522 0.248068
C25   C     C_1   0.124425 0.626352 0.499941 -0.111088
C26   C     C_1   0.124313 0.373565 0.500014 -0.115150
C27   C     C_1   0.624481 0.126283 0.499947 -0.110235
C28   C     C_1   0.624301 0.873548 0.500050 -0.115153
C29   C     C_3   0.786788 0.295915 0.496501 0.038459
C30   C     C_3   0.785917 0.703239 0.498868 0.045929
C31   C     C_3   0.286709 0.796017 0.496642 0.039896
C32   C     C_3   0.286031 0.203362 0.498058 0.046970
C33   C     C_3   0.205406 0.711953 0.498584 0.087326
C34   C     C_3   0.205020 0.287721 0.499371 0.097558
C35   C     C_3   0.705504 0.211833 0.498503 0.086124
C36   C     C_3   0.704971 0.787663 0.499833 0.097317
C37   C     C_3   0.177077 0.771724 0.466230 -0.434988
C38   C     C_3   0.174544 0.225937 0.484313 -0.434180
C39   C     C_3   0.678236 0.270493 0.460188 -0.434885
C40   C     C_3   0.673961 0.725335 0.497674 -0.435874
C41   C     C_3   0.726237 0.322259 0.457213 0.489642
C42   C     C_3   0.721523 0.673119 0.496451 0.496905
C43   C     C_3   0.225081 0.823473 0.463199 0.488631
C44   C     C_3   0.222182 0.173792 0.482683 0.494921
C45   C     C_1   0.160940 0.665017 0.499504 -0.001796
C46   C     C_1   0.160708 0.334794 0.499839 -0.000725
C47   C     C_1   0.661030 0.164911 0.499492 -0.001017
C48   C     C_1   0.660679 0.834759 0.500021 -0.000526
C49   C     C_1   0.834141 0.340041 0.498406 0.066801
C50   C     C_1   0.833533 0.659358 0.499433 0.061867
C51   C     C_1   0.334101 0.840095 0.498385 0.065242
C52   C     C_1   0.333609 0.159442 0.499092 0.061630
C53   C     C_1   0.873215 0.376096 0.499608 -0.065321
C54   C     C_1   0.872889 0.623591 0.499828 -0.075373
C55   C     C_1   0.373198 0.876122 0.499571 -0.066691
C56   C     C_1   0.372928 0.123634 0.499759 -0.075555
H25   H     H_    0.137946 0.783025 0.508686 0.230601
H26   H     H_    0.157125 0.764514 0.399091 0.219281
H27   H     H_    0.139184 0.218988 0.535275 0.233608
H28   H     H_    0.149246 0.227410 0.420414 0.216881
H29   H     H_    0.637705 0.282871 0.498894 0.230362
H30   H     H_    0.660562 0.261226 0.392203 0.219429
H31   H     H_    0.642081 0.721688 0.554178 0.233686
H32   H     H_    0.644672 0.722959 0.437725 0.215945
C57   C     C_3   0.991117 0.434738 0.052839 -0.015276
C58   C     C_3   0.991925 0.434596 0.947326 -0.021826
C59   C     C_3   0.061002 0.523961 0.052765 -0.015475
C60   C     C_3   0.060681 0.524677 0.947274 -0.016553
C61   C     C_3   0.484089 0.936086 0.052720 -0.017307
C62   C     C_3   0.483623 0.936218 0.947204 -0.021777
C63   C     C_3   0.563269 0.017186 0.052855 -0.014229
C64   C     C_3   0.563425 0.016688 0.947352 -0.017692
H33   H     H_    0.031665 0.407922 0.926125 0.125256
H34   H     H_    0.029850 0.407174 0.075647 0.122697
H35   H     H_    0.097121 0.494140 0.924555 0.121315
H36   H     H_    0.096837 0.492248 0.074069 0.123100
H37   H     H_    0.519028 0.904393 0.924777 0.124999
H38   H     H_    0.520164 0.904733 0.074303 0.121564
H39   H     H_    0.595363 0.981121 0.925864 0.122853
H40   H     H_    0.595687 0.982338 0.075385 0.123968
N1    N     N_1   0.999850 0.500000 0.731150 -0.067181
N2    N     N_1   0.999850 0.500000 0.268850 -0.065432
N3    N     N_1   0.499850 0.000000 0.731150 -0.067333
N4    N     N_1   0.499850 0.000000 0.268850 -0.065390
C65   C     C_3   0.000112 0.499700 0.090009 0.006440
C66   C     C_3   0.000076 0.499629 0.910017 0.014677
C67   C     C_3   0.500075 0.999661 0.090001 0.006785
C68   C     C_3   0.500114 0.999681 0.910009 0.016452
C69   C     C_3   0.948471 0.538933 0.947951 -0.341778
C70   C     C_3   0.949066 0.539718 0.051972 -0.338037
C71   C     C_3   0.454068 0.045368 0.947946 -0.344378
C72   C     C_3   0.453633 0.044939 0.051973 -0.337030
C73   C     C_1   0.999905 0.499848 0.809210 0.151293
C74   C     C_1   0.999915 0.499882 0.190798 0.154662
C75   C     C_1   0.499926 0.999878 0.809207 0.150732
C76   C     C_1   0.499910 0.999877 0.190796 0.154430
H41   H     H_    0.904859 0.524158 0.077308 0.218274
H42   H     H_    0.904449 0.521705 0.924235 0.217096
H43   H     H_    0.954628 0.586655 0.075648 0.210976
H44   H     H_    0.952382 0.585624 0.922570 0.209891
H45   H     H_    0.407872 0.033389 0.075930 0.219166
H46   H     H_    0.408319 0.034852 0.922840 0.215061
H47   H     H_    0.463387 0.090851 0.077041 0.210023
H48   H     H_    0.464869 0.091303 0.923951 0.210673
I1    I     I_    0.229320 0.674691 0.299772 -0.203673
I2    I     I_    0.165136 0.735411 0.696287 -0.171829
I3    I     I_    0.211252 0.307751 0.292260 -0.261475
I4    I     I_    0.182257 0.281851 0.705936 -0.238001
I5    I     I_    0.735582 0.168452 0.304342 -0.203367
I6    I     I_    0.659092 0.241160 0.691442 -0.176516
I7    I     I_    0.698070 0.794646 0.290890 -0.259089
I8    I     I_    0.695351 0.794854 0.708600 -0.241732
N5    N     N_R   0.707237 0.374695 0.510895 0.212007
O17   O     O_R   0.733739 0.426166 0.499372 -0.276720
O18   O     O_R   0.665566 0.370938 0.571455 -0.336700
N6    N     N_R   0.732186 0.342553 0.363566 0.221294
O19   O     O_R   0.684643 0.361335 0.321470 -0.290736
O20   O     O_R   0.784292 0.352333 0.327189 -0.345006
N7    N     N_R   0.714576 0.632790 0.574278 0.210321
O21   O     O_R   0.684731 0.648545 0.645139 -0.342949
O22   O     O_R   0.740053 0.580234 0.573495 -0.288516
N8    N     N_R   0.711392 0.636733 0.415186 0.222736
O23   O     O_R   0.755541 0.618850 0.364986 -0.348293
O24   O     O_R   0.658766 0.612935 0.402078 -0.290293
N9    N     N_R   0.207850 0.874342 0.521317 0.211384
O25   O     O_R   0.169187 0.868466 0.585803 -0.337040
O26   O     O_R   0.233431 0.926328 0.510356 -0.273576
N10   N     N_R   0.228222 0.846367 0.370572 0.221744
O27   O     O_R   0.279194 0.857521 0.331609 -0.342478
O28   O     O_R   0.179454 0.866169 0.332824 -0.289024
N11   N     N_R   0.210568 0.128922 0.553470 0.210972
O29   O     O_R   0.175713 0.140126 0.621106 -0.338435
O30   O     O_R   0.236611 0.076710 0.549543 -0.282192
N12   N     N_R   0.217321 0.142532 0.395827 0.221947
O31   O     O_R   0.264467 0.127802 0.349540 -0.352482
O32   O     O_R   0.165858 0.119773 0.372416 -0.290034
I9    I     I_    0.088181 0.606727 0.118459 -0.193122
I10   I     I_    0.085124 0.609028 0.883799 -0.206742
I11   I     I_    0.915587 0.389874 0.116350 -0.145174
I12   I     I_    0.918708 0.387403 0.881546 -0.211241
I13   I     I_    0.598004 0.097725 0.116796 -0.193484
I14   I     I_    0.599859 0.095945 0.882049 -0.210512
I15   I     I_    0.405372 0.898437 0.117989 -0.141206
I16   I     I_    0.403708 0.900097 0.883144 -0.207646

loop_
_geom_bond_atom_site_label_1
_geom_bond_atom_site_label_2
_geom_bond_distance
_ccdc_geom_bond_type
C20   H3    1.113825 S    
C7    C55   1.398254 S    
O14   Zn4   1.970912 S    
N5    O17   1.302038 A    
C6    C54   1.398733 S    
C64   H39   1.113263 S    
C9    C22   1.544410 S    
C14   C17   1.542124 S    
N9    O25   1.301835 A    
C30   C50   1.443351 S    
O7    Zn3   1.970909 S    
N7    O21   1.301719 A    
C42   N8    1.480443 S    
C29   C49   1.442971 S    
C36   C40   1.552141 S    
C27   C47   1.185369 T    
N12   O31   1.301595 A    
C16   H23   1.108228 S    
C31   C51   1.442856 S    
C71   C72   1.559100 S    
N11   O30   1.301989 A    
C37   H25   1.108902 S    
C34   C46   1.441084 S    
C68   C75   1.510698 S    
C10   H10   1.114063 S    
C33   C45   1.441228 S    
C69   H42   1.111773 S    
O13   C7    1.273604 A    
C44   N11   1.480998 S    
N3    C75   1.169831 T    
O10   C5    1.272926 A    
C22   I6    2.163129 S    
C40   C42   1.574516 S    
O5    C3    1.273303 A    
C12   C30   1.554617 S    
C28   C48   1.185380 T    
C25   C45   1.185453 T    
C23   H8    1.113903 S    
O11   Zn1   1.970657 S    
C9    C29   1.554538 S    
C50   C54   1.185433 T    
C63   C64   1.581185 S    
C43   N9    1.480673 S    
C19   I3    2.165027 S    
C59   I9    2.177006 S    
C40   H31   1.108755 S    
C62   I16   2.177240 S    
C20   I4    2.163409 S    
C15   H15   1.114137 S    
Zn2   N2    1.978554 S    
Zn1   N1    1.978558 S    
C18   H1    1.113825 S    
C67   C76   1.510603 S    
C16   C32   1.554655 S    
C70   H43   1.111725 S    
O5    Zn3   1.970950 S    
C62   H37   1.113263 S    
Zn3   N3    1.978558 S    
C59   C65   1.564238 S    
O11   C6    1.273450 A    
O6    Zn4   1.970657 S    
C65   C74   1.510517 S    
O16   C8    1.273153 A    
C35   C39   1.552014 S    
C13   H22   1.110909 S    
O12   C6    1.273205 A    
C38   H27   1.108692 S    
C10   C21   1.541925 S    
C58   C66   1.564449 S    
C41   N6    1.480628 S    
O15   Zn3   1.970657 S    
C32   C44   1.585027 S    
C35   C47   1.441114 S    
C72   H45   1.111728 S    
C38   C44   1.574593 S    
C14   C31   1.554430 S    
C57   I11   2.177641 S    
C58   I12   2.177017 S    
C22   C35   1.555104 S    
N5    O18   1.301709 A    
O1    Zn1   1.970950 S    
N9    O26   1.301979 A    
O9    Zn1   1.970564 S    
C26   C46   1.185346 T    
C41   N5    1.480971 S    
C23   I7    2.164915 S    
C58   H33   1.113298 S    
N10   O28   1.302173 A    
C57   H34   1.113266 S    
C21   I5    2.164815 S    
C37   H26   1.111493 S    
O12   Zn2   1.970950 S    
O7    C4    1.273402 A    
C15   C32   1.554534 S    
C11   C24   1.544058 S    
C61   H38   1.113263 S    
O14   C7    1.272815 A    
C24   I8    2.163445 S    
C19   C34   1.555016 S    
C24   C36   1.554862 S    
N8    O24   1.302118 A    
O1    C1    1.273317 A    
C1    C26   1.398649 S    
C67   C72   1.553843 S    
O6    C3    1.273325 A    
C10   C29   1.554547 S    
C3    C28   1.398705 S    
C11   C30   1.554581 S    
C60   I10   2.176741 S    
O16   Zn4   1.970950 S    
N1    C73   1.169867 T    
C23   C36   1.555128 S    
C64   I14   2.177138 S    
C30   C42   1.584917 S    
C39   H29   1.108765 S    
C59   H36   1.113267 S    
O13   Zn3   1.970564 S    
C36   C48   1.441128 S    
C5    C53   1.398335 S    
C34   C38   1.552066 S    
N12   O32   1.302149 A    
N11   O29   1.301670 A    
C64   C68   1.564339 S    
C33   C37   1.552059 S    
O8    C4    1.273232 A    
C71   H46   1.111653 S    
O9    C5    1.273531 A    
O2    Zn2   1.970657 S    
O10   Zn2   1.970912 S    
C29   C41   1.584953 S    
C37   C43   1.574023 S    
C24   H7    1.113832 S    
C31   C43   1.584859 S    
C39   C41   1.574243 S    
C4    C27   1.398693 S    
C14   H21   1.108274 S    
N8    O23   1.301592 A    
O8    Zn4   1.970561 S    
C20   C34   1.554926 S    
C66   C69   1.553904 S    
C13   C31   1.554487 S    
O4    C2    1.273249 A    
C49   C53   1.185211 T    
C21   H6    1.113894 S    
N10   O27   1.301671 A    
C61   C62   1.581374 S    
C17   C33   1.555488 S    
C9    H18   1.110966 S    
N2    C74   1.169753 T    
C69   H44   1.111611 S    
C13   H13   1.114155 S    
C63   H40   1.113244 S    
C61   C67   1.564366 S    
C59   C60   1.581062 S    
N7    O22   1.302015 A    
C8    C56   1.398746 S    
C62   C68   1.564477 S    
C11   H20   1.110994 S    
C16   C19   1.541932 S    
C12   H19   1.108233 S    
C17   I1    2.164724 S    
C16   H16   1.114081 S    
C21   C35   1.555212 S    
C60   H35   1.113254 S    
O4    Zn2   1.970561 S    
C44   N12   1.480363 S    
C18   C33   1.555032 S    
C13   C18   1.544206 S    
C39   H30   1.111504 S    
C11   H11   1.114144 S    
N6    O19   1.302079 A    
O15   C8    1.273508 A    
N4    C76   1.169789 T    
O3    C2    1.273460 A    
C57   C58   1.581419 S    
C32   C52   1.443386 S    
C70   H41   1.111645 S    
C57   C65   1.564410 S    
O2    C1    1.273285 A    
C69   C70   1.559099 S    
C9    H9    1.114127 S    
C15   H24   1.111042 S    
C68   C71   1.553860 S    
C63   I13   2.177116 S    
C43   N10   1.480746 S    
C52   C56   1.185448 T    
C40   H32   1.111484 S    
C12   C23   1.542099 S    
C12   H12   1.114061 S    
C15   C20   1.544182 S    
C51   C55   1.185150 T    
C72   H47   1.111629 S    
C22   H5    1.113812 S    
C65   C70   1.553872 S    
C2    C25   1.398838 S    
O3    Zn1   1.970909 S    
C63   C67   1.564387 S    
C71   H48   1.111721 S    
C10   H17   1.108250 S    
C14   H14   1.114055 S    
C38   H28   1.111493 S    
C42   N7    1.480870 S    
C60   C66   1.564348 S    
C17   H2    1.113873 S    
C66   C73   1.510796 S    
C18   I2    2.162940 S    
Zn4   N4    1.978554 S    
N6    O20   1.301629 A    
C19   H4    1.113908 S    
C61   I15   2.177502 S    
