data_mof_unit_28477.cif
_audit_creation_date              2012-12-10T20:03:13-0500
_audit_creation_method            fapswitch 2.2
_symmetry_space_group_name_H-M    P1
_symmetry_Int_Tables_number       1
_space_group_crystal_system       triclinic
_cell_length_a                    8.586446
_cell_length_b                    19.302724
_cell_length_c                    18.470761
_cell_angle_alpha                 89.885655
_cell_angle_beta                  98.641093
_cell_angle_gamma                 90.350002
_cell_volume                      3026.56879277

loop_
_atom_site_label
_atom_site_type_symbol
_atom_type_description
_atom_site_fract_x
_atom_site_fract_y
_atom_site_fract_z
_atom_type_partial_charge
C1    C     C_R   0.502453 0.365823 0.500309 0.877996
C2    C     C_R   0.391336 0.461369 0.266564 0.015250
C3    C     C_R   0.608642 0.540398 0.809463 -0.276135
C4    C     C_R   0.388826 0.460821 0.190427 -0.279658
C5    C     C_R   0.499563 0.500089 0.841331 0.118577
C6    C     C_R   0.499108 0.500437 0.158626 0.121129
C7    C     C_R   0.390868 0.459627 0.794355 -0.277580
C8    C     C_R   0.609855 0.539856 0.205643 -0.286084
C9    C     C_R   0.393241 0.460303 0.718548 0.052839
C10   C     C_R   0.608390 0.538797 0.281512 0.015146
C11   C     C_R   0.464836 0.439502 0.959787 -0.180487
C12   C     C_R   0.498851 0.634255 0.499754 0.909014
C13   C     C_R   0.533247 0.561182 0.040231 -0.184448
C14   C     C_R   0.464623 0.439609 0.035797 -0.183238
C15   C     C_R   0.533338 0.561094 0.964195 -0.182735
C16   C     C_R   0.200893 0.499805 0.480902 0.980885
C17   C     C_R   0.799097 0.499760 0.519113 0.962469
C18   C     C_R   0.498918 0.500433 0.077288 0.124204
C19   C     C_R   0.499218 0.500237 0.922686 0.123038
C20   C     C_2   0.035890 0.499676 0.470562 -0.380235
C21   C     C_2   0.964074 0.499106 0.529497 -0.395488
C22   C     C_R   0.430752 0.746661 0.437679 0.467962
C23   C     C_R   0.653957 0.963663 0.526338 -0.192328
C24   C     C_R   0.592224 0.255982 0.562767 0.470615
C25   C     C_R   0.432892 0.818811 0.440286 -0.286497
C26   C     C_R   0.593542 0.183984 0.563146 -0.273370
C27   C     C_R   0.509234 0.853156 0.502416 0.054258
C28   C     C_R   0.520294 0.147247 0.502040 0.045572
C29   C     C_R   0.581291 0.815706 0.563023 -0.173880
C30   C     C_R   0.446600 0.182321 0.439976 -0.180131
C31   C     C_R   0.576061 0.744047 0.561826 -0.266490
C32   C     C_R   0.442770 0.253967 0.439521 -0.266743
C33   C     C_R   0.500836 0.709329 0.499599 -0.131333
C34   C     C_R   0.375327 0.036741 0.482156 -0.192030
C35   C     C_R   0.512241 0.290978 0.501196 -0.144135
C36   C     C_3   0.424542 0.717948 0.317513 0.113958
C37   C     C_3   0.333221 0.677520 0.254134 -0.793655
C38   C     C_3   0.820191 0.307153 0.614895 0.112828
C39   C     C_3   0.896049 0.351262 0.678944 -0.792652
C40   C     C_R   0.656850 0.035468 0.526050 -0.192207
C41   C     C_R   0.372399 0.965044 0.482520 -0.190768
C42   C     C_R   0.517665 0.072061 0.503494 0.141495
C43   C     C_R   0.511850 0.928370 0.504141 0.137207
C44   C     C_R   0.606778 0.539590 0.733357 0.013248
H1    H     H_    0.973971 0.500361 0.414657 0.177509
H2    H     H_    0.557645 0.609217 0.937743 0.129440
H3    H     H_    0.374657 0.848027 0.393938 0.141390
H4    H     H_    0.650043 0.156898 0.611399 0.152718
H5    H     H_    0.639187 0.841954 0.611607 0.142996
H6    H     H_    0.391422 0.154180 0.392116 0.143014
H7    H     H_    0.631876 0.715685 0.609335 0.167351
H8    H     H_    0.382910 0.280435 0.391568 0.168034
H9    H     H_    0.762640 0.935671 0.542504 0.134747
H10   H     H_    0.266648 0.064677 0.465743 0.134078
H11   H     H_    0.767644 0.062435 0.542128 0.131483
H12   H     H_    0.025956 0.498289 0.585411 0.177329
H13   H     H_    0.261509 0.938186 0.466320 0.138167
H14   H     H_    0.691086 0.570598 0.709286 0.120923
H15   H     H_    0.305950 0.430974 0.290592 0.122473
H16   H     H_    0.696332 0.571639 0.843070 0.134258
H17   H     H_    0.299767 0.430334 0.156723 0.135135
H18   H     H_    0.544977 0.695592 0.330072 0.138580
H19   H     H_    0.433590 0.772756 0.299700 0.122630
H20   H     H_    0.215613 0.701144 0.237611 0.243486
H21   H     H_    0.398582 0.678334 0.206613 0.196939
H22   H     H_    0.317129 0.622940 0.270693 0.271874
H23   H     H_    0.302988 0.428421 0.815753 0.134281
H24   H     H_    0.824934 0.337047 0.563546 0.120676
H25   H     H_    0.889777 0.258744 0.613771 0.129387
H26   H     H_    0.898426 0.322178 0.731032 0.248846
H27   H     H_    0.018657 0.364890 0.671764 0.188266
H28   H     H_    0.828192 0.399731 0.681784 0.271440
H29   H     H_    0.698454 0.570568 0.184182 0.135807
H30   H     H_    0.309138 0.429215 0.682810 0.119192
H31   H     H_    0.693877 0.569184 0.317294 0.122868
H32   H     H_    0.440682 0.391303 0.930266 0.133378
H33   H     H_    0.557558 0.609332 0.069847 0.126657
H34   H     H_    0.440247 0.391509 0.062284 0.130684
N1    N     N_R   0.500020 0.499980 0.689440 -0.093428
N2    N     N_R   0.499980 0.500020 0.310560 -0.093640
O1    O     O_R   0.500010 0.398180 0.560840 -0.575223
O2    O     O_3   0.663373 0.291540 0.623950 -0.597682
O3    O     O_R   0.499990 0.601820 0.439160 -0.593737
O4    O     O_R   0.499930 0.398180 0.439210 -0.634650
O5    O     O_R   0.500070 0.601820 0.560790 -0.631846
O6    O     O_R   0.271780 0.500000 0.546590 -0.626070
O7    O     O_R   0.728220 0.500000 0.453410 -0.623680
O8    O     O_R   0.271710 0.499990 0.424960 -0.626667
O9    O     O_R   0.728290 0.500010 0.575040 -0.637650
O10   O     O_3   0.344389 0.712770 0.378738 -0.603933
Zn1   Zn    Zn3+2 0.500050 0.500000 0.581210 0.951319
Zn2   Zn    Zn3+2 0.499950 0.500000 0.418790 0.945468

loop_
_geom_bond_atom_site_label_1
_geom_bond_atom_site_label_2
_ccdc_geom_bond_type
C27   C29   A    
C14   C18   A    
C34   C42   A    
O5    Zn1   S    
C29   H5    S    
C1    O4    A    
C15   C19   A    
O3    Zn2   S    
C11   C19   A    
C12   O5    A    
C36   C37   S    
C24   C26   A    
C11   H32   S    
C38   C39   S    
C11   C14   A    
C1    O1    A    
C23   C40   A    
C23   C43   A    
C9    N1    A    
C24   O2    S    
C32   H8    S    
O8    Zn2   S    
C44   H14   S    
C22   C25   A    
C37   H21   S    
C39   H28   S    
C31   C33   A    
O9    Zn1   S    
C36   H19   S    
C25   H3    S    
N1    Zn1   S    
C20   H1    S    
C26   H4    S    
C3    H16   S    
C40   C42   A    
C30   H6    S    
C38   H25   S    
O7    Zn2   S    
C38   O2    S    
C16   O6    A    
C41   C43   A    
C34   C41   A    
C36   H18   S    
C23   H9    S    
C6    C18   S    
C13   H33   S    
C3    C44   A    
C24   C35   A    
C32   C35   A    
C17   O9    A    
C4    C6    A    
C5    C7    A    
C10   N2    A    
C2    H15   S    
C6    C8    A    
C4    H17   S    
C17   C21   S    
C12   O3    A    
N2    Zn2   S    
C2    C4    A    
C10   H31   S    
C16   C20   S    
C40   H11   S    
C37   H22   S    
C22   O10   S    
C13   C18   A    
C38   H24   S    
C34   H10   S    
C13   C15   A    
C9    H30   S    
C37   H20   S    
C1    C35   S    
C36   O10   S    
C7    C9    A    
C22   C33   A    
C17   O7    A    
C44   N1    A    
C31   H7    S    
C3    C5    A    
C21   H12   S    
C5    C19   S    
C25   C27   A    
C26   C28   A    
O6    Zn1   S    
C28   C30   A    
C41   H13   S    
C29   C31   A    
C30   C32   A    
C28   C42   S    
C8    H29   S    
C39   H26   S    
C14   H34   S    
C2    N2    A    
C7    H23   S    
O1    Zn1   S    
C27   C43   S    
C20   C21   D    
C8    C10   A    
C16   O8    A    
C39   H27   S    
O4    Zn2   S    
C15   H2    S    
C12   C33   S    
