data_mof_unit_56386.cif
_audit_creation_date              2012-12-11T15:55:36-0500
_audit_creation_method            fapswitch 2.2
_symmetry_space_group_name_H-M    P1
_symmetry_Int_Tables_number       1
_space_group_crystal_system       triclinic
_cell_length_a                    6.939409
_cell_length_b                    14.543528
_cell_length_c                    16.097057
_cell_angle_alpha                 90.006761
_cell_angle_beta                  89.880177
_cell_angle_gamma                 90.027812
_cell_volume                      1624.56740151

loop_
_atom_site_label
_atom_site_type_symbol
_atom_type_description
_atom_site_fract_x
_atom_site_fract_y
_atom_site_fract_z
_atom_type_partial_charge
O1    O     O_R   0.505680 0.583900 0.413320 -0.496137
O2    O     O_R   0.176010 0.594950 0.586080 -0.547092
O3    O     O_R   0.005680 0.416100 0.586680 -0.542686
C1    C     C_R   0.344904 0.617207 0.614914 0.704530
O4    O     O_R   0.175960 0.594930 0.413930 -0.537219
O5    O     O_R   0.005640 0.416080 0.413300 -0.542381
C2    C     C_R   0.345399 0.616876 0.384723 0.746828
O6    O     O_R   0.505720 0.583920 0.586700 -0.544640
O7    O     O_3   0.339190 0.441320 0.500000 -0.384621
V1    V     V_3+5 0.064350 0.510890 0.500000 1.455593
O8    O     O_R   0.675920 0.405050 0.413920 -0.543034
C3    C     C_R   0.845042 0.382804 0.384991 0.714094
O9    O     O_R   0.675960 0.405070 0.586070 -0.548772
C4    C     C_R   0.844664 0.382966 0.614861 0.679053
V2    V     V_3+5 0.564340 0.489110 0.500000 1.454195
O10   O     O_3   0.839370 0.558680 0.500000 -0.352465
C5    C     C_R   0.006724 0.317639 0.741609 0.105620
C6    C     C_R   0.852539 0.317498 0.685487 -0.107841
C7    C     C_R   0.701311 0.255078 0.700826 -0.177299
H1    H     H_    0.579175 0.252402 0.659409 0.132726
C8    C     C_R   0.712703 0.190936 0.766295 -0.162482
H2    H     H_    0.598333 0.141043 0.773495 0.132350
C9    C     C_R   0.875954 0.186978 0.818224 -0.114890
C10   C     C_R   0.018427 0.253892 0.806148 0.099658
C11   C     C_3   0.229974 0.242205 0.794456 -0.408307
C12   C     C_3   0.217378 0.312028 0.724508 -0.398200
H3    H     H_    0.266996 0.171870 0.772706 0.170509
H4    H     H_    0.313611 0.267233 0.848777 0.176037
H5    H     H_    0.248042 0.282469 0.662185 0.170670
H6    H     H_    0.292912 0.377631 0.738541 0.168492
C13   C     C_R   0.046724 0.224585 0.217492 -0.153219
H7    H     H_    0.187374 0.206025 0.193579 0.116096
C14   C     C_R   0.035670 0.288140 0.282713 -0.146784
H8    H     H_    0.168335 0.316725 0.306847 0.117532
C15   C     C_R   0.856239 0.314468 0.316142 -0.048619
C16   C     C_R   0.688175 0.275462 0.282425 -0.149389
H9    H     H_    0.547524 0.294024 0.306336 0.114918
C17   C     C_R   0.699229 0.211905 0.217204 -0.149667
H10   H     H_    0.566564 0.183321 0.193069 0.117063
C18   C     C_R   0.878662 0.185567 0.183784 -0.043514
C19   C     C_R   0.190430 0.711429 0.728257 -0.135704
H11   H     H_    0.051386 0.681857 0.713484 0.148715
C20   C     C_R   0.202735 0.774699 0.793671 -0.200670
H12   H     H_    0.072839 0.791814 0.827561 0.215096
C21   C     C_R   0.380282 0.814701 0.815678 -0.186494
C22   C     C_R   0.545927 0.789470 0.770139 0.614990
C23   C     C_R   0.533542 0.725503 0.705350 -0.227027
H13   H     H_    0.663755 0.707842 0.671745 0.146761
C24   C     C_R   0.355916 0.685747 0.683424 -0.139353
C25   C     C_R   0.192394 0.732240 0.288850 -0.213660
H14   H     H_    0.054634 0.720540 0.318651 0.210423
C26   C     C_R   0.202486 0.795862 0.223695 -0.147284
H15   H     H_    0.071896 0.831037 0.205214 0.141061
C27   C     C_R   0.378724 0.814403 0.183586 -0.129862
C28   C     C_R   0.544216 0.767308 0.210094 -0.231752
H16   H     H_    0.682068 0.779522 0.180388 0.146085
C29   C     C_R   0.534469 0.703152 0.274773 0.618112
C30   C     C_R   0.357828 0.684925 0.315522 -0.177702
O11   O     O_R   0.229200 0.915950 0.913350 -0.541967
O12   O     O_R   0.559090 0.905000 0.086080 -0.547643
O13   O     O_R   0.729280 0.083880 0.086680 -0.545625
C31   C     C_R   0.389904 0.882788 0.114969 0.707215
O14   O     O_R   0.558920 0.904980 0.913920 -0.499646
O15   O     O_R   0.729110 0.083860 0.913300 -0.538413
C32   C     C_R   0.390259 0.882935 0.884774 0.743768
O16   O     O_R   0.229360 0.915970 0.086730 -0.544204
O17   O     O_3   0.395680 0.058580 0.000030 -0.380430
V3    V     V_3+5 0.670570 0.989070 0.999990 1.469811
O18   O     O_R   0.058820 0.094950 0.913870 -0.541874
C33   C     C_R   0.889831 0.116856 0.884941 0.720336
O19   O     O_R   0.058990 0.094970 0.086020 -0.547399
C34   C     C_R   0.889868 0.117205 0.114955 0.671292
V4    V     V_3+5 0.170560 0.010930 0.999930 1.422281
O20   O     O_3   0.895590 0.941310 0.999960 -0.359030
F1    F     F_    0.719913 0.827722 0.786786 -0.712662
F2    F     F_    0.698479 0.658387 0.296305 -0.704253

loop_
_geom_bond_atom_site_label_1
_geom_bond_atom_site_label_2
_ccdc_geom_bond_type
C28   H16   S    
O14   C32   A    
C19   H11   S    
C4    C6    S    
C15   C16   A    
C1    O6    A    
C23   C24   A    
C21   C22   A    
C11   H4    S    
C5    C12   S    
O15   V3    S    
C29   F2    S    
C16   H9    S    
C7    C8    A    
O5    C3    A    
C17   H10   S    
V3    O20   S    
V2    O10   S    
C13   C18   A    
O12   C31   A    
C6    C7    A    
V4    O20   S    
C22   C23   A    
O8    V2    S    
C13   H7    S    
C25   C26   A    
C9    C10   A    
C13   C14   A    
O18   V4    S    
O17   V4    S    
O15   C33   A    
O7    V1    S    
O11   V4    S    
C2    C30   S    
C8    H2    S    
C19   C20   A    
C9    C33   S    
C19   C24   A    
C22   F1    S    
C26   C27   A    
C14   H8    S    
C8    C9    A    
C5    C10   A    
C31   O16   A    
O17   V3    S    
C25   C30   A    
C10   C11   S    
O19   V4    S    
C27   C31   S    
C25   H14   S    
C11   C12   S    
O16   V4    S    
O2    C1    A    
C20   H12   S    
C23   H13   S    
C5    C6    A    
C3    C15   S    
C20   C21   A    
O3    C4    A    
O1    V2    S    
O13   C34   A    
C12   H6    S    
O6    V2    S    
O9    V2    S    
C21   C32   S    
O2    V1    S    
C26   H15   S    
O4    C2    A    
C27   C28   A    
C18   C34   S    
O1    C2    A    
O5    V1    S    
O8    C3    A    
C11   H3    S    
O14   V3    S    
C1    C24   S    
C7    H1    S    
C28   C29   A    
O7    V2    S    
O4    V1    S    
O3    V1    S    
V1    O10   S    
O11   C32   A    
C17   C18   A    
O13   V3    S    
C29   C30   A    
C16   C17   A    
C14   C15   A    
O18   C33   A    
O19   C34   A    
O12   V3    S    
C12   H5    S    
O9    C4    A    
