data_mof_unit_16407.cif
_audit_creation_date              2013-03-05T16:00:37-0500
_audit_creation_method            fapswitch 2.2
_symmetry_space_group_name_H-M    P1
_symmetry_Int_Tables_number       1
_space_group_crystal_system       triclinic
_cell_length_a                    8.347226
_cell_length_b                    12.853327
_cell_length_c                    19.01391
_cell_angle_alpha                 100.078243
_cell_angle_beta                  91.86834
_cell_angle_gamma                 98.480462
_cell_volume                      1982.98011084

loop_
_atom_site_label
_atom_site_type_symbol
_atom_site_description
_atom_site_fract_x
_atom_site_fract_y
_atom_site_fract_z
_atom_type_partial_charge
P1    P     P_3+3 0.042930 0.392230 0.337410 0.468161
O1    O     O_2   0.875110 0.423180 0.326290 -0.361823
O2    O     O_3   0.123410 0.433040 0.414950 -0.426208
O3    O     O_3   0.661010 0.625070 0.369680 -0.367756
O4    O     O_2   0.723066 0.523354 0.245802 -0.419865
O5    O     O_3   0.997147 0.252578 0.325158 -0.529366
O6    O     O_3   0.703489 0.723241 0.243062 -0.531165
H1    H     H_    0.712245 0.839144 0.334502 0.093795
C1    C     C_3   0.717192 0.909463 0.238813 -0.074473
H2    H     H_    0.851581 0.921503 0.239593 0.157333
P2    P     P_3+3 0.672230 0.754900 0.555730 0.448277
P3    P     P_3+3 0.132583 0.820721 0.402803 0.427169
O7    O     O_2   0.847800 0.768730 0.534310 -0.354539
O8    O     O_3   0.082250 0.684470 0.405440 -0.397635
O9    O     O_2   0.003328 0.876286 0.444825 -0.387586
O10   O     O_3   0.711895 0.801243 0.649427 -0.588244
O11   O     O_3   0.098201 0.838403 0.313991 -0.535411
C2    C     C_3   0.083241 0.737697 0.268608 0.237885
H3    H     H_    0.977715 0.683302 0.282102 0.164608
H4    H     H_    0.191795 0.700072 0.275044 0.042031
C3    C     C_3   0.057674 0.745745 0.189639 -0.097858
H5    H     H_    0.942671 0.774567 0.179873 0.194957
C4    C     C_3   0.228154 0.779380 0.610835 0.457456
H6    H     H_    0.331600 0.741502 0.589456 0.050023
H7    H     H_    0.123683 0.756022 0.571070 0.155310
C5    C     C_3   0.274553 0.900771 0.622759 -1.045651
H8    H     H_    0.406976 0.924427 0.633817 0.224249
H9    H     H_    0.243405 0.931019 0.573992 0.255675
H10   H     H_    0.209788 0.939783 0.667636 0.306098
Ba1   Ba    Ba6+2 0.853180 0.547790 0.465300 1.558296
C6    C     C_3   0.963768 0.222049 0.391035 0.432292
H11   H     H_    0.858084 0.256867 0.412588 0.094104
H12   H     H_    0.069010 0.249440 0.430067 0.140357
C7    C     C_3   0.927971 0.100626 0.381046 -0.963643
H13   H     H_    0.796110 0.073506 0.370138 0.231008
H14   H     H_    0.965243 0.073635 0.430376 0.259537
H15   H     H_    0.995483 0.062842 0.336794 0.284330
C8    C     C_3   0.651776 0.733402 0.696396 0.562296
H16   H     H_    0.588037 0.655806 0.667212 0.048566
C9    C     C_3   0.537429 0.790351 0.746831 -0.103779
H17   H     H_    0.454780 0.729845 0.769007 0.139565
H18   H     H_    0.463387 0.833425 0.717096 0.112796
P4    P     P_3+3 0.146790 0.607860 0.662600 0.477132
O12   O     O_2   0.314600 0.576860 0.673750 -0.401373
O13   O     O_3   0.066300 0.567050 0.585060 -0.443932
O14   O     O_3   0.528700 0.375020 0.630330 -0.360795
O15   O     O_3   0.187569 0.747674 0.675807 -0.517986
P5    P     P_3+3 0.063597 0.179296 0.595240 0.415756
O16   O     O_3   0.611760 0.365720 0.463870 -0.388896
O17   O     O_3   0.107460 0.315620 0.594570 -0.387904
O18   O     O_2   0.180624 0.124757 0.545038 -0.387022
O19   O     O_3   0.124568 0.157113 0.679558 -0.526103
Ba2   Ba    Ba6+2 0.336650 0.452300 0.534710 1.538532
P6    P     P_3+3 0.623591 0.610050 0.277859 0.432726
C10   C     C_3   0.655065 0.818512 0.279019 0.286580
H19   H     H_    0.682039 0.985347 0.266505 0.088041
O20   O     O_3   0.577950 0.634370 0.536140 -0.420838
C11   C     C_3   0.413331 0.226886 0.312013 0.182982
H20   H     H_    0.319891 0.263420 0.343758 0.120635
C12   C     C_3   0.325590 0.136282 0.254354 -0.004585
H21   H     H_    0.253492 0.077193 0.281784 0.137699
H22   H     H_    0.416217 0.095095 0.223552 0.182009
P7    P     P_3+3 0.521880 0.229905 0.444107 0.424710
O21   O     O_2   0.341900 0.231310 0.465740 -0.384771
O22   O     O_3   0.518736 0.180534 0.352178 -0.604248
H23   H     H_    0.046713 0.664639 0.156725 0.081302
C13   C     C_3   0.046767 0.220173 0.731350 0.417904
H24   H     H_    0.096067 0.306172 0.734439 0.115546
H25   H     H_    0.913793 0.206183 0.718824 0.016704
C14   C     C_3   0.076596 0.190017 0.804112 -0.875616
H26   H     H_    0.205675 0.215485 0.823222 0.271990
H27   H     H_    0.001346 0.230318 0.844047 0.221558
H28   H     H_    0.044362 0.102168 0.800410 0.291460
P8    P     P_3+3 0.561009 0.390586 0.721857 0.458607
C15   C     C_3   0.510420 0.188568 0.716812 0.421683
H29   H     H_    0.642527 0.201051 0.708621 -0.005020
O23   O     O_2   0.480673 0.488314 0.751024 -0.396355
O24   O     O_3   0.456113 0.281225 0.752426 -0.519916
H30   H     H_    0.443659 0.160794 0.663724 0.149589
H31   H     H_    0.540634 0.130263 0.815876 0.274001
C16   C     C_3   0.480141 0.101693 0.761590 -0.864760
H32   H     H_    0.530979 0.031116 0.735460 0.236179
H33   H     H_    0.348355 0.077966 0.766163 0.272768
C17   C     C_R   0.065112 0.550982 0.800038 -0.192202
H34   H     H_    0.165501 0.611864 0.822935 0.154637
C18   C     C_R   0.019271 0.542777 0.726283 0.313752
C19   C     C_R   0.851605 0.404982 0.805912 -0.434729
H35   H     H_    0.797680 0.335831 0.826592 0.154635
C20   C     C_R   0.779718 0.423549 0.743119 0.277408
C21   C     C_R   0.342772 0.568447 0.184792 -0.337660
H36   H     H_    0.398230 0.633084 0.160327 0.218041
C22   C     C_R   0.411086 0.560026 0.251123 0.279622
C23   C     C_R   0.132132 0.424589 0.196475 -0.190572
H37   H     H_    0.037091 0.358674 0.175734 0.178842
C24   C     C_R   0.172325 0.445383 0.271058 0.273091
C25   C     C_R   0.985415 0.477245 0.841801 0.113740
C26   C     C_R   0.868697 0.483949 0.700183 -0.235361
C27   C     C_R   0.209619 0.492831 0.151175 0.037977
C28   C     C_R   0.319041 0.507085 0.296579 -0.444907
H38   H     H_    0.363933 0.511710 0.351273 0.165998
C29   C     C_R   0.761425 0.413267 0.956510 -0.205378
C30   C     C_R   0.660940 0.368884 0.003827 -0.152205
C31   C     C_R   0.712226 0.385381 0.075277 0.093164
C32   C     C_R   0.864888 0.442838 0.096956 -0.159506
C33   C     C_R   0.984579 0.458888 0.047580 0.039120
C34   C     C_R   0.929669 0.448701 0.973645 0.122541
C35   C     C_R   0.152471 0.487808 0.071602 -0.017171
C36   C     C_R   0.263555 0.510622 0.018017 0.123477
C37   C     C_R   0.208118 0.499660 0.944217 0.061494
C38   C     C_R   0.040628 0.474611 0.920591 -0.039069
C39   C     C_R   0.432924 0.542388 0.034294 -0.146855
C40   C     C_R   0.535001 0.580796 0.985467 -0.001509
C41   C     C_R   0.483420 0.560197 0.914269 -0.067096
C42   C     C_R   0.326650 0.508819 0.893871 -0.190017
H39   H     H_    0.698646 0.423856 0.909225 0.154312
H40   H     H_    0.536845 0.333321 0.986691 0.149533
H41   H     H_    0.888102 0.473874 0.152704 0.165402
H42   H     H_    0.495289 0.533270 0.082143 0.130914
H43   H     H_    0.661045 0.612545 0.001233 0.163794
H44   H     H_    0.569490 0.576045 0.875036 0.206284
H45   H     H_    0.297650 0.475465 0.838538 0.182270
C43   C     C_R   0.758255 0.185600 0.533058 -0.486462
C44   C     C_R   0.434362 0.810720 0.470660 -0.495819
C45   C     C_R   0.401729 0.985547 0.449405 -0.212578
C46   C     C_R   0.340563 0.877086 0.443132 0.204536
C47   C     C_R   0.580255 0.851948 0.511528 0.289294
C48   C     C_R   0.640892 0.964792 0.522181 -0.044111
C49   C     C_R   0.551243 0.030949 0.488094 -0.081840
C50   C     C_R   0.612182 0.141740 0.494756 0.298471
C51   C     C_R   0.850567 0.122477 0.563485 0.135808
C52   C     C_R   0.787968 0.015139 0.563441 -0.060610
H46   H     H_    0.328522 0.033638 0.425007 0.187828
H47   H     H_    0.807108 0.268483 0.534453 0.148023
H48   H     H_    0.387780 0.726175 0.463705 0.169355
N1    N     N_R   0.786667 0.714790 0.741155 0.211436
O25   O     O_R   0.755335 0.660038 0.791779 -0.447371
O26   O     O_R   0.925285 0.777429 0.745522 -0.312698
N2    N     N_R   0.626403 0.867607 0.806145 0.288669
O27   O     O_R   0.598626 0.858513 0.871897 -0.290062
O28   O     O_R   0.734567 0.945140 0.793836 -0.364316
N3    N     N_3   0.478449 0.809048 0.281006 -0.177508
H49   H     H_    0.446299 0.885137 0.295944 0.113835
H50   H     H_    0.444285 0.769515 0.322845 0.065041
N4    N     N_3   0.508156 0.308320 0.279143 -0.195879
H51   H     H_    0.556594 0.371560 0.320074 0.172118
H52   H     H_    0.606451 0.276771 0.255727 0.173310
N5    N     N_R   0.219234 0.173620 0.204911 0.261262
O29   O     O_R   0.065217 0.135251 0.198126 -0.314743
O30   O     O_R   0.282032 0.224051 0.156320 -0.422734
N6    N     N_R   0.649795 0.887745 0.164754 0.309233
O31   O     O_R   0.681604 0.806066 0.119565 -0.328335
O32   O     O_R   0.568428 0.955392 0.141958 -0.296693
N7    N     N_3   0.796023 0.491447 0.632407 -0.146888
H53   H     H_    0.843092 0.441929 0.591447 0.159986
H54   H     H_    0.803927 0.570482 0.625101 0.156726
N8    N     N_3   0.608524 0.347718 0.126769 -0.182963
H55   H     H_    0.583711 0.264325 0.112959 0.180050
H56   H     H_    0.498890 0.376883 0.122984 0.150230
N9    N     N_3   0.873434 0.960844 0.607739 -0.121375
H57   H     H_    0.989648 0.959380 0.590102 0.185070
H58   H     H_    0.879953 0.001792 0.660587 0.169754
N10   N     N_R   0.189365 0.816577 0.165946 0.280295
O33   O     O_R   0.186029 0.919072 0.178371 -0.330392
O34   O     O_R   0.280256 0.777787 0.116640 -0.329906

loop_
_geom_bond_atom_site_label_1
_geom_bond_atom_site_label_2
_geom_bond_distance
_ccdc_geom_bond_type
C19   H35   1.078466 S    
P7    O22   1.750015 S    
C47   C48   1.440450 A    
O16   P7    1.765558 S    
C3    H23   1.107520 S    
C2    C3    1.533220 S    
P2    O7    1.527303 D    
Ba1   O13   2.796404 S    
C39   C40   1.385470 A    
O6    C10   1.414683 S    
C15   H29   1.110754 S    
C49   C50   1.421857 A    
C16   H32   1.104260 S    
N1    O25   1.299761 A    
C33   C35   1.433871 A    
C5    H8    1.105369 S    
C23   H37   1.080335 S    
C39   H42   1.066251 S    
C10   N3    1.463550 S    
P8    C20   1.827455 S    
N8    H55   1.045576 S    
N5    O30   1.299820 A    
C17   C18   1.423203 A    
P1    O1    1.529631 D    
N3    H50   1.042073 S    
N9    H57   1.038372 S    
C8    H16   1.102844 S    
Ba2   O21   2.920041 S    
C24   C28   1.379986 A    
C44   C46   1.393251 A    
C11   C12   1.530942 S    
C7    H15   1.109067 S    
Ba1   O20   2.960066 S    
C36   C37   1.439542 A    
C45   H46   1.078896 S    
C12   H22   1.110858 S    
C7    H13   1.105743 S    
C17   C25   1.443349 A    
C4    C5    1.525822 S    
C18   C26   1.394793 A    
C40   C41   1.375154 A    
C42   H45   1.069693 S    
O12   Ba2   2.867669 S    
P4    Ba2   3.450623 S    
P5    O18   1.544468 D    
N5    O29   1.300993 A    
P2    Ba1   3.475294 S    
P8    O23   1.537533 D    
C9    N2    1.464735 S    
P3    O11   1.762839 S    
C4    H6    1.107028 S    
C6    H12   1.105119 S    
C14   H26   1.108558 S    
C1    C10   1.542658 S    
C12   N5    1.459926 S    
C26   N7    1.430985 S    
N7    H54   1.042043 S    
C1    H2    1.108808 S    
C43   C50   1.389452 A    
C2    H4    1.101196 S    
C45   C49   1.419274 A    
C9    H18   1.093551 S    
O5    C6    1.401111 S    
O13   Ba2   2.968646 S    
C23   C24   1.415952 A    
C3    H5    1.100264 S    
P5    C51   1.858109 S    
O8    Ba1   2.808705 S    
H1    C10   1.114892 S    
C32   C33   1.410770 A    
C16   H33   1.107804 S    
N10   O34   1.302859 A    
Ba1   Ba2   4.605981 S    
C1    N6    1.463467 S    
O17   Ba2   2.809310 S    
C4    O15   1.403481 S    
C44   H48   1.082261 S    
C13   H24   1.111830 S    
C29   C30   1.387838 A    
O7    Ba1   2.919864 S    
P2    C47   1.859861 S    
C17   H34   1.080580 S    
N4    H52   1.046253 S    
Ba2   O20   2.849236 S    
C2    H3    1.107446 S    
C44   C47   1.404105 A    
P3    C46   1.864013 S    
P7    C50   1.834755 S    
C11   H20   1.110272 S    
C25   C38   1.560521 S    
C27   C35   1.559014 S    
P1    O5    1.751520 S    
C20   C26   1.382792 A    
C12   H21   1.111452 S    
P1    O2    1.568739 S    
O2    Ba1   2.967802 S    
P4    O12   1.529910 D    
C43   H47   1.078513 S    
P6    C22   1.818981 S    
C41   H44   1.076606 S    
P2    O10   1.780538 S    
O4    P6    1.539788 D    
C11   O22   1.407946 S    
C21   C22   1.395212 A    
C28   H38   1.082515 S    
P3    O9    1.548004 D    
P1    C24   1.843339 S    
C19   C25   1.413643 A    
C14   H28   1.110709 S    
N9    H58   1.045276 S    
O11   C2    1.410698 S    
C6    C7    1.521878 S    
C31   N8    1.428201 S    
C1    H19   1.108799 S    
C8    N1    1.462014 S    
C52   N9    1.420846 S    
P4    O13   1.568765 S    
O19   C13   1.402163 S    
N2    O28   1.301191 A    
C37   C42   1.405704 A    
C9    H17   1.110874 S    
Ba1   O16   2.849824 S    
P3    O8    1.749600 S    
C19   C20   1.392044 A    
C29   H39   1.065182 S    
N6    O32   1.300789 A    
C35   C36   1.438693 A    
C48   C49   1.432504 A    
O14   P8    1.724237 S    
C41   C42   1.386118 A    
C34   C38   1.440093 A    
C29   C34   1.419649 A    
N1    O26   1.299807 A    
C3    N10   1.456309 S    
O3    P6    1.735393 S    
P4    C18   1.864115 S    
C6    H11   1.105564 S    
C15   C16   1.516298 S    
H31   C16   1.110819 S    
C40   H43   1.083202 S    
N10   O33   1.301717 A    
C33   C34   1.442002 A    
C32   H41   1.065883 S    
C5    H9    1.103991 S    
C36   C39   1.420638 A    
O1    Ba1   2.867284 S    
C13   C14   1.523136 S    
N8    H56   1.043805 S    
C51   C52   1.401215 A    
P2    O20   1.605449 S    
N3    H49   1.046104 S    
C8    C9    1.544842 S    
O2    Ba2   2.797002 S    
C21   H36   1.075532 S    
P4    O15   1.750565 S    
O16   Ba2   2.959221 S    
O14   Ba2   2.788138 S    
P5    O17   1.738786 S    
P1    Ba1   3.450104 S    
C43   C51   1.380698 A    
C7    H14   1.106165 S    
C4    H7    1.105721 S    
C30   C31   1.381427 A    
C15   O24   1.406903 S    
C48   C52   1.437571 A    
C30   H40   1.083658 S    
N2    O27   1.300957 A    
P7    O21   1.572332 D    
C11   N4    1.459283 S    
N4    H51   1.044532 S    
P5    O19   1.749344 S    
C5    H10   1.109995 S    
P8    O24   1.742548 S    
C31   C32   1.385934 A    
N6    O31   1.300894 A    
C14   H27   1.108532 S    
O6    P6    1.754631 S    
C13   H25   1.109046 S    
N7    H53   1.042230 S    
C37   C38   1.426794 A    
C15   H30   1.111504 S    
C23   C27   1.436310 A    
C21   C27   1.416396 A    
O3    Ba1   2.788747 S    
C22   C28   1.376702 A    
O10   C8    1.408008 S    
C45   C46   1.395093 A    
