data_mof_unit_62463.cif
_audit_creation_date              2012-12-10T19:33:09-0500
_audit_creation_method            fapswitch 2.2
_symmetry_space_group_name_H-M    P1
_symmetry_Int_Tables_number       1
_space_group_crystal_system       triclinic
_cell_length_a                    21.618308
_cell_length_b                    21.658629
_cell_length_c                    22.131342
_cell_angle_alpha                 119.232325
_cell_angle_beta                  119.341685
_cell_angle_gamma                 90.199358
_cell_volume                      7470.41058968

loop_
_atom_site_label
_atom_site_type_symbol
_atom_type_description
_atom_site_fract_x
_atom_site_fract_y
_atom_site_fract_z
_atom_type_partial_charge
C1    C     C_R   0.501017 0.120845 0.501501 0.941729
C2    C     C_3   0.709817 0.305991 0.048826 -0.088217
C3    C     C_3   0.787412 0.292180 0.082390 0.236193
C4    C     C_3   0.776087 0.208271 0.047752 -0.389487
C5    C     C_3   0.726483 0.160398 0.950858 -0.398283
C6    C     C_1   0.835116 0.337270 0.173948 -0.057032
C7    C     C_1   0.662211 0.164213 0.826092 -0.024669
C8    C     C_1   0.625668 0.126024 0.751099 -0.145935
C9    C     C_R   0.439009 0.205232 0.470900 -0.058045
C10   C     C_R   0.503787 0.187949 0.504139 -0.243782
C11   C     C_R   0.572159 0.236979 0.537888 0.612706
C12   C     C_R   0.581193 0.081056 0.662168 0.900586
C13   C     C_R   0.573016 0.301064 0.536085 0.028451
C14   C     C_R   0.504349 0.315205 0.500430 -0.168809
C15   C     C_R   0.439268 0.265562 0.468177 -0.010346
C16   C     C_3   0.357000 0.250017 0.426952 0.517068
C17   C     C_3   0.356422 0.179939 0.428981 -0.461635
C18   C     C_3   0.228751 0.726378 0.049526 0.532329
C19   C     C_3   0.343066 0.755967 0.049864 0.728939
C20   C     C_3   0.296168 0.715180 0.952199 -0.074407
C21   C     C_1   0.125984 0.625276 0.750751 -0.193166
C22   C     C_3   0.293120 0.791254 0.082525 0.032854
C23   C     C_R   0.499639 0.879468 0.499226 0.931885
C24   C     C_3   0.181782 0.674390 0.951868 -0.100822
C25   C     C_3   0.211262 0.706331 0.917179 0.140369
C26   C     C_3   0.204756 0.786279 0.949069 -0.541579
C27   C     C_3   0.257326 0.838364 0.046377 -0.175183
C28   C     C_1   0.164307 0.661986 0.825646 -0.013867
C29   C     C_1   0.337654 0.837236 0.174190 0.061723
C30   C     C_1   0.374424 0.874662 0.249122 -0.146772
C31   C     C_R   0.491600 0.809596 0.555981 -0.021854
C32   C     C_R   0.501639 0.814377 0.500761 -0.163471
C33   C     C_R   0.522062 0.758880 0.453209 -0.270030
C34   C     C_R   0.418847 0.918993 0.337907 0.892761
C35   C     C_R   0.521837 0.694370 0.452700 0.629826
C36   C     C_R   0.502935 0.686731 0.501493 -0.292884
C37   C     C_R   0.492746 0.746584 0.556783 0.032466
C38   C     C_3   0.431840 0.750557 0.571776 0.757622
C39   C     C_3   0.430858 0.820406 0.570709 -0.477339
C40   C     C_R   0.879528 0.499237 0.498850 0.941972
C41   C     C_R   0.919165 0.418915 0.337875 0.940765
C42   C     C_R   0.120304 0.500158 0.500331 0.944998
C43   C     C_R   0.080973 0.581023 0.662020 0.875881
C44   C     C_R   0.620623 0.500227 0.500343 0.910546
C45   C     C_3   0.660213 0.256545 0.950010 0.761284
C46   C     C_R   0.500621 0.380086 0.500005 0.906307
C47   C     C_R   0.379505 0.500214 0.499675 0.896939
C48   C     C_R   0.500017 0.620329 0.500144 0.945624
C49   C     C_R   0.814762 0.559355 0.564154 0.022188
C50   C     C_R   0.814069 0.498002 0.499553 -0.226341
C51   C     C_R   0.752880 0.431981 0.441805 0.623045
C52   C     C_R   0.688803 0.432089 0.442360 -0.292143
C53   C     C_R   0.687296 0.497436 0.501975 -0.180298
C54   C     C_R   0.752126 0.558793 0.565847 0.142595
C55   C     C_3   0.762930 0.638897 0.595426 -0.448331
C56   C     C_3   0.780136 0.264533 0.952845 -0.505140
C57   C     C_3   0.832053 0.639413 0.593276 -0.439422
C58   C     C_R   0.245527 0.490468 0.555121 -0.065325
C59   C     C_R   0.184640 0.498156 0.497871 -0.173139
C60   C     C_R   0.184239 0.496832 0.433737 0.615047
C61   C     C_R   0.248289 0.495737 0.433218 -0.278149
C62   C     C_R   0.312676 0.497797 0.497849 -0.107737
C63   C     C_R   0.309163 0.490963 0.555542 -0.072620
C64   C     C_3   0.359738 0.534063 0.649038 0.560414
C65   C     C_3   0.289004 0.533393 0.648966 -0.158259
C66   C     C_3   0.826744 0.314121 0.049683 -0.443837
C67   C     C_1   0.873836 0.374467 0.248950 -0.138180
C68   C     C_3   0.705880 0.211049 0.917636 0.216697
H1    H     H_    0.721747 0.366175 0.072025 0.142022
H2    H     H_    0.831384 0.198659 0.069745 0.187311
H3    H     H_    0.341492 0.292774 0.466559 0.040604
H4    H     H_    0.341474 0.181975 0.471204 0.167723
H5    H     H_    0.327782 0.126532 0.366105 0.227593
H6    H     H_    0.313980 0.752028 0.938013 0.143127
H7    H     H_    0.302926 0.880065 0.063180 0.202150
H8    H     H_    0.145363 0.783269 0.926559 0.216197
H9    H     H_    0.191165 0.749679 0.068948 0.063047
H10   H     H_    0.123478 0.676505 0.928809 0.124137
H11   H     H_    0.813257 0.231430 0.932193 0.212098
H12   H     H_    0.219879 0.810402 0.921870 0.197128
H13   H     H_    0.534603 0.763926 0.413724 0.195506
H14   H     H_    0.378547 0.814149 0.516854 0.188877
H15   H     H_    0.451064 0.872211 0.632620 0.225024
H16   H     H_    0.640124 0.382379 0.395309 0.194531
H17   H     H_    0.717444 0.646488 0.548567 0.221957
H18   H     H_    0.769331 0.299958 0.927965 0.195870
H19   H     H_    0.776100 0.674402 0.659862 0.206029
H20   H     H_    0.826710 0.647191 0.545026 0.224448
H21   H     H_    0.885110 0.675332 0.656461 0.201409
H22   H     H_    0.248815 0.497049 0.385144 0.189896
H23   H     H_    0.392186 0.501659 0.671534 0.027098
H24   H     H_    0.279961 0.499232 0.670245 0.138886
H25   H     H_    0.834339 0.373793 0.071752 0.188445
H26   H     H_    0.883513 0.307853 0.074948 0.211663
H27   H     H_    0.674956 0.121106 0.927830 0.226929
H28   H     H_    0.757063 0.125727 0.926903 0.177993
H29   H     H_    0.750423 0.190171 0.071757 0.191954
O1    O     O_R   0.448270 0.091610 0.500010 -0.631376
O2    O     O_R   0.908540 0.448310 0.500030 -0.581910
O3    O     O_R   0.938770 0.490290 0.377140 -0.605489
O4    O     O_R   0.938740 0.386860 0.377150 -0.604705
O5    O     O_R   0.091820 0.551690 0.499970 -0.586767
O6    O     O_R   0.091790 0.448250 0.499980 -0.631232
O7    O     O_R   0.061630 0.613140 0.622850 -0.621464
O8    O     O_R   0.061600 0.509710 0.622860 -0.621352
O9    O     O_R   0.626360 0.534710 0.569400 -0.635407
O10   O     O_R   0.557050 0.465350 0.430680 -0.603997
O11   O     O_R   0.534700 0.443070 0.569360 -0.638318
O12   O     O_R   0.551720 0.091610 0.499980 -0.560732
O13   O     O_R   0.465400 0.373710 0.430650 -0.583776
O14   O     O_R   0.443050 0.534650 0.569320 -0.564764
O15   O     O_R   0.373740 0.465290 0.430600 -0.629728
O16   O     O_R   0.534700 0.626290 0.569350 -0.600390
O17   O     O_R   0.465390 0.556930 0.430640 -0.582018
O18   O     O_R   0.509700 0.061430 0.622870 -0.610271
O19   O     O_R   0.613150 0.061430 0.622840 -0.606892
O20   O     O_R   0.448280 0.908390 0.500020 -0.620290
O21   O     O_R   0.551730 0.908390 0.499990 -0.625149
O22   O     O_R   0.386850 0.938570 0.377160 -0.618671
O23   O     O_R   0.490300 0.938570 0.377130 -0.614540
O24   O     O_R   0.908570 0.551750 0.500020 -0.635754
Zn1   Zn    Zn3+2 0.430930 0.000000 0.500020 0.984875
Zn2   Zn    Zn3+2 0.569070 0.000000 0.499980 1.035415
Zn3   Zn    Zn3+2 0.000200 0.569060 0.500000 1.007593
Zn4   Zn    Zn3+2 0.000160 0.430940 0.500000 1.015064
Zn5   Zn    Zn3+2 0.546320 0.546310 0.592620 1.035085
Zn6   Zn    Zn3+2 0.453780 0.453690 0.407380 1.058488
F1    F     F_    0.596064 0.205689 0.919403 -0.654429
C69   C     C_3   0.668377 0.295282 0.085096 -0.739235
H30   H     H_    0.654122 0.236920 0.066705 0.271043
H31   H     H_    0.702767 0.333266 0.154520 0.231053
H32   H     H_    0.615627 0.309100 0.061516 0.262473
F2    F     F_    0.637720 0.223284 0.573012 -0.647052
C70   C     C_3   0.646763 0.350689 0.570295 -0.749166
H33   H     H_    0.640915 0.396149 0.560094 0.212470
H34   H     H_    0.684937 0.376049 0.638633 0.253209
H35   H     H_    0.672897 0.316895 0.538728 0.258310
F3    F     F_    0.321431 0.233023 0.346460 -0.622956
C71   C     C_3   0.174266 0.591556 0.918922 -0.709281
H36   H     H_    0.136855 0.570010 0.929972 0.239739
H37   H     H_    0.149093 0.556771 0.850542 0.218640
H38   H     H_    0.228661 0.583869 0.952024 0.300412
C72   C     C_3   0.633155 0.306161 0.916940 -0.901097
H39   H     H_    0.597988 0.333690 0.938188 0.256628
H40   H     H_    0.680751 0.350571 0.940633 0.196442
H41   H     H_    0.598342 0.272354 0.847388 0.254498
F4    F     F_    0.257033 0.687448 0.086238 -0.601808
C73   C     C_3   0.417023 0.813691 0.091062 -0.897641
H42   H     H_    0.449925 0.785024 0.066727 0.259141
H43   H     H_    0.407166 0.857043 0.077608 0.189119
H44   H     H_    0.452222 0.841362 0.159990 0.262806
F5    F     F_    0.363787 0.704824 0.070433 -0.588832
C74   C     C_3   0.313774 0.643679 0.908025 -0.763686
H45   H     H_    0.282210 0.618407 0.839671 0.216529
H46   H     H_    0.374229 0.658060 0.932871 0.243725
H47   H     H_    0.301311 0.601126 0.917675 0.277276
C75   C     C_3   0.215761 0.884471 0.082753 -0.857452
H48   H     H_    0.165891 0.848290 0.065862 0.237208
H49   H     H_    0.253416 0.923205 0.151982 0.249747
H50   H     H_    0.196376 0.918968 0.057260 0.262802
F6    F     F_    0.538267 0.639250 0.403679 -0.647000
C76   C     C_3   0.358839 0.685062 0.501319 -0.856129
H51   H     H_    0.366752 0.634665 0.501661 0.230041
H52   H     H_    0.341168 0.672629 0.439117 0.207373
H53   H     H_    0.313882 0.698806 0.511391 0.258779
F7    F     F_    0.457566 0.765607 0.650022 -0.600347
F8    F     F_    0.753361 0.369629 0.381974 -0.653552
F9    F     F_    0.123051 0.498317 0.373435 -0.657823
F10   F     F_    0.403246 0.604341 0.684158 -0.604269
C77   C     C_3   0.280044 0.610507 0.691032 -0.712519
H54   H     H_    0.283842 0.640979 0.663953 0.282299
H55   H     H_    0.224865 0.603994 0.682428 0.197412
H56   H     H_    0.324454 0.644035 0.759254 0.248641

loop_
_geom_bond_atom_site_label_1
_geom_bond_atom_site_label_2
_ccdc_geom_bond_type
C65   H24   S    
C75   H48   S    
C22   C29   S    
C72   H41   S    
C71   H37   S    
C13   C70   S    
C51   F8    S    
C19   C20   S    
C73   H44   S    
C3    C6    S    
C42   O6    A    
C70   H35   S    
C4    H2    S    
C7    C8    T    
C14   C46   S    
C53   C54   A    
C52   C53   A    
C25   C28   S    
C69   H31   S    
C40   O24   A    
C26   C27   S    
C35   F6    S    
C56   H11   S    
C57   H21   S    
C18   C24   S    
C36   C37   A    
O19   Zn2   S    
C37   C38   S    
C73   H43   S    
C76   H51   S    
C11   F2    S    
C38   C39   S    
C71   H38   S    
C47   O14   A    
O22   Zn1   S    
C77   H54   S    
C45   F1    S    
C49   C54   A    
C72   H40   S    
C34   O22   A    
C2    C69   S    
C49   C57   S    
O1    Zn1   S    
C43   O8    A    
C64   F10   S    
C52   H16   S    
C43   O7    A    
O15   Zn6   S    
C1    O12   A    
C7    C68   S    
C21   C43   S    
C44   C53   S    
C35   C36   A    
C41   O4    A    
C16   C17   S    
O24   Zn3   S    
C46   O11   A    
C26   H8    S    
C55   H19   S    
C74   H46   S    
C2    H1    S    
C9    C10   A    
O23   Zn2   S    
O13   Zn6   S    
C66   H26   S    
C69   H32   S    
C59   C60   A    
C75   H49   S    
O18   Zn1   S    
C13   C14   A    
C17   H5    S    
C16   H3    S    
C40   O2    A    
C5    C68   S    
O5    Zn3   S    
C42   O5    A    
C5    H27   S    
C19   F5    S    
C76   H52   S    
C24   C71   S    
C34   O23   A    
C20   C74   S    
C30   C34   S    
C51   C52   A    
C19   C22   S    
C73   H42   S    
C41   C67   S    
O2    Zn4   S    
C18   F4    S    
C10   C11   A    
O12   Zn2   S    
C70   H34   S    
O16   Zn5   S    
C58   C59   A    
C56   C68   S    
C26   H12   S    
C31   C37   A    
C60   C61   A    
O3    Zn3   S    
C55   H17   S    
O20   Zn1   S    
C62   C63   A    
C76   H53   S    
C58   C65   S    
C56   H18   S    
C31   C32   A    
C8    C12   S    
C45   C68   S    
C50   C51   A    
C41   O3    A    
C20   H6    S    
C40   C50   S    
C60   F9    S    
C24   C25   S    
C74   H47   S    
O14   Zn5   S    
C66   H25   S    
C9    C17   S    
C6    C67   T    
C21   C28   T    
C75   H50   S    
C22   C27   S    
C55   C57   S    
C3    C66   S    
C3    C4    S    
C5    H28   S    
C61   H22   S    
C48   O17   A    
C69   H30   S    
C44   O10   A    
C24   H10   S    
C58   C63   A    
C38   F7    S    
C54   C55   S    
C18   C22   S    
C16   F3    S    
C1    C10   S    
C39   H14   S    
C4    C5    S    
C27   H7    S    
C42   C59   S    
C23   O20   A    
C71   H36   S    
C70   H33   S    
O7    Zn3   S    
C23   O21   A    
C44   O9    A    
C27   C75   S    
C47   O15   A    
O9    Zn5   S    
C19   C73   S    
C57   H20   S    
O8    Zn4   S    
C65   C77   S    
C32   C33   A    
C12   O18   A    
C46   O13   A    
C2    C3    S    
C25   C26   S    
C1    O1    A    
O10   Zn6   S    
C23   C32   S    
C47   C62   S    
O17   Zn6   S    
C11   C13   A    
C77   H55   S    
C18   H9    S    
C56   C66   S    
C15   C16   S    
C64   C65   S    
C33   C35   A    
C31   C39   S    
C36   C48   S    
O21   Zn2   S    
C9    C15   A    
C61   C62   A    
O6    Zn4   S    
C39   H15   S    
C2    C45   S    
C29   C30   T    
C63   C64   S    
C38   C76   S    
C17   H4    S    
C49   C50   A    
C20   C25   S    
C45   C72   S    
C14   C15   A    
C64   H23   S    
O11   Zn5   S    
C74   H45   S    
C4    H29   S    
C33   H13   S    
O4    Zn4   S    
C72   H39   S    
C48   O16   A    
C12   O19   A    
C77   H56   S    
