data_mof_unit_37966.cif
_audit_creation_date              2012-12-10T17:56:20-0500
_audit_creation_method            fapswitch 2.2
_symmetry_space_group_name_H-M    P1
_symmetry_Int_Tables_number       1
_space_group_crystal_system       triclinic
_cell_length_a                    13.108328
_cell_length_b                    10.832274
_cell_length_c                    9.4977
_cell_angle_alpha                 89.981812
_cell_angle_beta                  95.271453
_cell_angle_gamma                 90.049916
_cell_volume                      1342.90257196

loop_
_atom_site_label
_atom_site_type_symbol
_atom_type_description
_atom_site_fract_x
_atom_site_fract_y
_atom_site_fract_z
_atom_type_partial_charge
C1    C     C_R   0.499807 0.262017 0.499952 0.768807
C2    C     C_R   0.500193 0.737983 0.500048 0.768809
C3    C     C_R   0.500258 0.871798 0.500030 -0.010209
C4    C     C_R   0.499742 0.128202 0.499970 -0.010209
C5    C     C_R   0.454840 0.406160 0.068720 0.010981
C6    C     C_R   0.545160 0.593840 0.931280 0.010980
C7    C     C_R   0.455053 0.406065 0.919908 -0.024925
C8    C     C_R   0.544947 0.593934 0.080092 -0.024927
C9    C     C_R   0.300653 0.495886 0.474937 0.856421
C10   C     C_R   0.699347 0.504113 0.525063 0.856424
C11   C     C_R   0.811633 0.513151 0.537304 -0.269931
C12   C     C_R   0.188367 0.486847 0.462696 -0.269933
C13   C     C_R   0.028057 0.455641 0.318938 -0.247237
C14   C     C_R   0.971943 0.544356 0.681062 -0.247239
C15   C     C_R   0.134495 0.454808 0.332225 0.420026
C16   C     C_R   0.865505 0.545190 0.667775 0.420027
C17   C     C_R   0.133820 0.507482 0.582600 0.415632
C18   C     C_R   0.866180 0.492516 0.417400 0.415631
C19   C     C_R   0.026563 0.512805 0.566336 -0.078036
C20   C     C_R   0.973437 0.487193 0.433664 -0.078037
C21   C     C_R   0.496563 0.063880 0.371681 -0.189232
C22   C     C_R   0.503437 0.936120 0.628319 -0.189232
C23   C     C_R   0.496895 0.936170 0.371718 -0.190388
C24   C     C_R   0.503104 0.063830 0.628282 -0.190388
Cu1   Cu    Cu3+1 0.500000 0.500020 0.640660 0.978935
Cu2   Cu    Cu3+1 0.500000 0.499980 0.359340 0.978934
H1    H     H_    0.494349 0.888136 0.271431 0.145778
H2    H     H_    0.505651 0.111864 0.728569 0.145778
H3    H     H_    0.418856 0.330845 0.859447 0.101526
H4    H     H_    0.581144 0.669155 0.140553 0.101527
N1    N     N_R   0.500030 0.500030 0.852080 -0.146860
N2    N     N_R   0.499970 0.499970 0.147920 -0.146860
O1    O     O_R   0.499990 0.319660 0.618740 -0.603406
O2    O     O_R   0.500010 0.680340 0.381260 -0.603406
O3    O     O_R   0.499990 0.319630 0.381170 -0.595642
O4    O     O_R   0.500010 0.680370 0.618830 -0.595641
O5    O     O_R   0.349000 0.499990 0.599490 -0.541868
O6    O     O_R   0.651000 0.500010 0.400510 -0.541869
O7    O     O_R   0.348990 0.499960 0.361920 -0.533968
O8    O     O_R   0.651010 0.500040 0.638080 -0.533967
O9    O     O_3   0.814916 0.469966 0.285718 -0.553212
C25   C     C_3   0.808219 0.581825 0.208792 -0.271762
H5    H     H_    0.764405 0.652861 0.262649 0.139597
H6    H     H_    0.767084 0.563763 0.103548 0.208012
H7    H     H_    0.885088 0.618829 0.190687 0.152187
O10   O     O_3   0.185084 0.530031 0.714283 -0.553213
C26   C     C_3   0.191781 0.418172 0.791207 -0.271763
H8    H     H_    0.232916 0.436234 0.896452 0.208012
H9    H     H_    0.235596 0.347137 0.737350 0.139598
H10   H     H_    0.114913 0.381167 0.809311 0.152187
O11   O     O_3   0.814952 0.572430 0.785474 -0.550769
C27   C     C_3   0.806357 0.701823 0.795703 -0.329212
H11   H     H_    0.759187 0.740414 0.702512 0.153366
H12   H     H_    0.882911 0.747132 0.808175 0.160430
H13   H     H_    0.767240 0.724107 0.891193 0.161681
O12   O     O_3   0.185048 0.427565 0.214527 -0.550771
C28   C     C_3   0.193651 0.298173 0.204308 -0.329202
H14   H     H_    0.117099 0.252856 0.191847 0.160426
H15   H     H_    0.240828 0.259592 0.297499 0.153365
H16   H     H_    0.232764 0.275888 0.108815 0.161681
H17   H     H_    0.988824 0.432015 0.217140 0.207517
H18   H     H_    0.011176 0.567982 0.782860 0.207516
H19   H     H_    0.493757 0.111949 0.271363 0.144465
H20   H     H_    0.506242 0.888051 0.728637 0.144465
H21   H     H_    0.418565 0.331054 0.120071 0.111296
H22   H     H_    0.581436 0.668946 0.879929 0.111298

loop_
_geom_bond_atom_site_label_1
_geom_bond_atom_site_label_2
_ccdc_geom_bond_type
C12   C17   A    
Cu1   N1    S    
C12   C15   A    
C11   C18   A    
Cu2   N2    S    
C7    H3    S    
C14   C16   A    
C23   H1    S    
O9    C25   S    
C3    C23   A    
C19   C20   A    
C16   O11   S    
C6    H22   S    
C10   O6    A    
C1    C4    S    
C8    H4    S    
C15   O12   S    
C2    O2    A    
C9    O5    A    
C2    C3    S    
C1    O1    A    
C26   H9    S    
C27   H11   S    
O12   C28   S    
C4    C21   A    
C13   C15   A    
C28   H14   S    
C25   H6    S    
C5    H21   S    
C17   C19   A    
C27   H13   S    
C27   H12   S    
C6    N1    A    
C26   H10   S    
C18   C20   A    
C21   C23   A    
Cu1   O8    S    
C4    C24   A    
C9    C12   S    
C22   C24   A    
Cu2   O7    S    
C21   H19   S    
C28   H15   S    
C7    N1    A    
C10   C11   S    
Cu1   O4    S    
C22   H20   S    
O11   C27   S    
C14   H18   S    
C24   H2    S    
Cu2   O3    S    
C9    O7    A    
C13   H17   S    
C17   O10   S    
C1    O3    A    
C10   O8    A    
C11   C16   A    
C18   O9    S    
C2    O4    A    
C5    C7    A    
O10   C26   S    
Cu2   O6    S    
C28   H16   S    
C6    C8    A    
C13   C20   A    
Cu1   O5    S    
Cu1   Cu2   S    
C14   C19   A    
Cu2   O2    S    
C5    N2    A    
C26   H8    S    
C25   H5    S    
Cu1   O1    S    
C3    C22   A    
C25   H7    S    
C8    N2    A    
