data_mof_unit_51106.cif
_audit_creation_date              2012-10-26T19:04:16-0400
_audit_creation_method            fapswitch 2.2
_symmetry_space_group_name_H-M    P1
_symmetry_Int_Tables_number       1
_space_group_crystal_system       triclinic
_cell_length_a                    14.942414
_cell_length_b                    15.889343
_cell_length_c                    9.595649
_cell_angle_alpha                 89.031472
_cell_angle_beta                  89.841335
_cell_angle_gamma                 90.157348
_cell_volume                      2277.90520601

loop_
_atom_site_label
_atom_site_type_symbol
_atom_type_description
_atom_site_fract_x
_atom_site_fract_y
_atom_site_fract_z
_atom_type_partial_charge
C1    C     C_R   0.376173 0.886050 0.501038 0.556892
C2    C     C_R   0.716361 0.224878 0.374178 -0.043691
C3    C     C_R   0.191865 0.257014 0.386222 -0.044532
C4    C     C_R   0.217193 0.723784 0.373914 -0.045836
C5    C     C_R   0.683772 0.808867 0.499225 -0.027416
C6    C     C_R   0.670371 0.199599 0.496460 -0.024846
C7    C     C_R   0.171018 0.300738 0.508802 -0.024498
C8    C     C_R   0.166945 0.702261 0.494762 -0.023382
C9    C     C_R   0.664151 0.001311 0.144893 -0.043417
C10   C     C_R   0.164378 0.495854 0.143601 -0.055240
C11   C     C_R   0.744618 0.007969 0.073201 -0.151762
C12   C     C_R   0.383853 0.121409 0.500247 0.539069
C13   C     C_R   0.244836 0.493682 0.071009 -0.155093
C14   C     C_R   0.744440 0.015380 0.930121 -0.165803
C15   C     C_R   0.244900 0.495921 0.927306 -0.152914
C16   C     C_R   0.664032 0.012611 0.858025 -0.083989
C17   C     C_R   0.164499 0.499006 0.855280 -0.077431
C18   C     C_R   0.580642 0.004305 0.925890 0.162789
C19   C     C_R   0.080883 0.499532 0.924913 0.151358
C20   C     C_R   0.580688 0.001595 0.075179 0.177365
C21   C     C_R   0.080836 0.498532 0.074534 0.166508
C22   C     C_R   0.422785 0.999136 0.073413 0.085699
C23   C     C_R   0.881992 0.380205 0.502519 0.553118
C24   C     C_R   0.922838 0.498662 0.073490 0.083795
C25   C     C_R   0.612561 0.124004 0.498644 0.521538
C26   C     C_R   0.619644 0.880734 0.500159 0.529797
C27   C     C_R   0.112130 0.624397 0.498592 0.533760
C28   C     C_R   0.112397 0.375797 0.501937 0.536104
C29   C     C_R   0.423238 0.998968 0.925732 -0.005418
C30   C     C_R   0.923365 0.497263 0.925956 -0.026099
C31   C     C_R   0.349856 0.228895 0.749312 -0.096661
C32   C     C_R   0.231147 0.883751 0.716810 -0.094376
C33   C     C_R   0.771215 0.655123 0.756991 -0.079960
C34   C     C_R   0.873846 0.610785 0.500038 0.551578
C35   C     C_R   0.786908 0.320422 0.769239 -0.106219
C36   C     C_R   0.319222 0.257470 0.876865 -0.134666
C37   C     C_R   0.168553 0.877529 0.824152 -0.116136
C38   C     C_R   0.764855 0.698968 0.881110 -0.110476
C39   C     C_R   0.724571 0.317554 0.877385 -0.111094
C40   C     C_R   0.749350 0.785110 0.875322 -0.099880
C41   C     C_R   0.640237 0.284156 0.854632 -0.091800
C42   C     C_R   0.232739 0.287266 0.888074 -0.117623
C43   C     C_R   0.105428 0.813395 0.824629 -0.101597
C44   C     C_R   0.727856 0.823375 0.747925 -0.079633
C45   C     C_R   0.263597 0.201550 0.384921 -0.156188
C46   C     C_R   0.622114 0.245275 0.729370 -0.085777
C47   C     C_R   0.179846 0.295441 0.769625 -0.090130
C48   C     C_R   0.104005 0.755711 0.717020 -0.086745
C49   C     C_R   0.722588 0.777451 0.625007 0.011879
C50   C     C_R   0.685669 0.244362 0.620423 0.016443
C51   C     C_R   0.214322 0.276871 0.635556 0.012263
C52   C     C_R   0.169700 0.757877 0.609840 0.016852
C53   C     C_R   0.295041 0.231303 0.628825 0.023282
C54   C     C_R   0.235477 0.822796 0.611364 0.028818
C55   C     C_R   0.761935 0.697669 0.627434 0.022439
C56   C     C_R   0.286062 0.781467 0.381893 -0.144472
C57   C     C_R   0.764123 0.293204 0.633243 0.021277
C58   C     C_R   0.316753 0.189036 0.503441 -0.023198
C59   C     C_R   0.299454 0.828019 0.501723 -0.013409
C60   C     C_R   0.795739 0.666606 0.501346 -0.018542
C61   C     C_R   0.813188 0.314285 0.509165 -0.017347
C62   C     C_1   0.653800 0.780031 0.244971 0.215922
C63   C     C_1   0.687675 0.202522 0.236582 0.213847
C64   C     C_1   0.134424 0.260598 0.265283 0.214314
C65   C     C_1   0.194100 0.697710 0.235154 0.221612
C66   C     C_1   0.337670 0.997952 0.143788 0.226081
C67   C     C_R   0.761523 0.697878 0.375524 -0.151236
C68   C     C_1   0.837719 0.497102 0.143824 0.207589
C69   C     C_R   0.786729 0.281030 0.381856 -0.147735
C70   C     C_R   0.700016 0.763547 0.374685 -0.043607
Cu1   Cu    Cu3+1 0.499990 0.000000 0.640660 0.923402
Cu2   Cu    Cu3+1 0.999990 0.500000 0.640660 0.901212
Cu3   Cu    Cu3+1 0.500010 0.000000 0.359340 0.978231
Cu4   Cu    Cu3+1 0.000010 0.500000 0.359340 0.977161
H1    H     H_    0.276773 0.166612 0.291013 0.156515
H2    H     H_    0.861009 0.492320 0.870534 0.097659
H3    H     H_    0.417034 0.206312 0.748024 0.134202
H4    H     H_    0.271729 0.939669 0.713336 0.133407
H5    H     H_    0.782915 0.588397 0.761829 0.127543
H6    H     H_    0.852422 0.341539 0.798272 0.151511
H7    H     H_    0.361740 0.253879 0.967972 0.114691
H8    H     H_    0.166826 0.924666 0.904293 0.126942
H9    H     H_    0.776309 0.667189 0.980126 0.118166
H10   H     H_    0.741600 0.342033 0.978597 0.129976
H11   H     H_    0.753451 0.822124 0.968642 0.138989
H12   H     H_    0.328206 0.791811 0.290823 0.156848
H13   H     H_    0.589698 0.285653 0.935544 0.135898
H14   H     H_    0.207278 0.305872 0.988217 0.151596
H15   H     H_    0.054673 0.810586 0.905350 0.126771
H16   H     H_    0.723762 0.889404 0.741873 0.115392
H17   H     H_    0.556662 0.219271 0.716005 0.126675
H18   H     H_    0.111136 0.313157 0.786851 0.159203
H19   H     H_    0.047323 0.713657 0.715981 0.161002
H20   H     H_    0.671528 0.999367 0.254756 0.175996
H21   H     H_    0.171821 0.498856 0.253410 0.181729
H22   H     H_    0.807344 0.008779 0.129425 0.121255
H23   H     H_    0.781483 0.670205 0.277723 0.148445
H24   H     H_    0.307653 0.491961 0.126973 0.124089
H25   H     H_    0.820380 0.299797 0.285807 0.153826
H26   H     H_    0.807194 0.020527 0.873844 0.120475
H27   H     H_    0.307740 0.494837 0.870880 0.130383
H28   H     H_    0.671929 0.011587 0.748679 0.173704
H29   H     H_    0.171934 0.499532 0.745226 0.191216
H30   H     H_    0.360672 0.999436 0.870044 0.106538
N1    N     N_R   0.501200 0.000000 0.147910 -0.255625
N2    N     N_1   0.768888 0.495674 0.199463 -0.327452
N3    N     N_R   0.001200 0.500000 0.147910 -0.251708
N4    N     N_R   0.501270 0.000000 0.852040 -0.256132
N5    N     N_R   0.001270 0.500000 0.852040 -0.260662
N6    N     N_1   0.615863 0.792535 0.141722 -0.297778
N7    N     N_1   0.664250 0.186169 0.125676 -0.317790
N8    N     N_1   0.087323 0.263036 0.169762 -0.317856
N9    N     N_1   0.175585 0.680132 0.122340 -0.295549
N10   N     N_1   0.268850 0.996781 0.199472 -0.321965
O1    O     O_R   0.409820 0.909830 0.618810 -0.501116
O2    O     O_R   0.590170 0.909830 0.618760 -0.509560
O3    O     O_R   0.090170 0.590170 0.618760 -0.529443
O4    O     O_R   0.090170 0.409830 0.618760 -0.541300
O5    O     O_R   0.590190 0.090180 0.381190 -0.513629
O6    O     O_R   0.590190 0.909820 0.381190 -0.511285
O7    O     O_R   0.090190 0.590180 0.381190 -0.509424
O8    O     O_R   0.090190 0.409820 0.381190 -0.511830
O9    O     O_R   0.409820 0.090170 0.618810 -0.527624
O10   O     O_R   0.909820 0.409830 0.618810 -0.528364
O11   O     O_R   0.909820 0.590170 0.618810 -0.517096
O12   O     O_R   0.409840 0.909830 0.381240 -0.486146
O13   O     O_R   0.409840 0.090170 0.381240 -0.494700
O14   O     O_R   0.909840 0.409830 0.381240 -0.486993
O15   O     O_R   0.909840 0.590170 0.381240 -0.491819
O16   O     O_R   0.590170 0.090170 0.618760 -0.539915

loop_
_geom_bond_atom_site_label_1
_geom_bond_atom_site_label_2
_ccdc_geom_bond_type
C44   C49   A    
C33   C55   A    
Cu3   O5    S    
C22   C29   A    
C38   H9    S    
C47   H18   S    
C36   C42   A    
C4    C8    A    
C27   O7    A    
C39   C41   A    
C12   O13   A    
C3    C64   S    
C43   H15   S    
Cu1   O9    S    
C19   C21   A    
C26   O6    A    
C39   H10   S    
C3    C7    A    
C1    C59   S    
C4    C65   S    
C11   C14   A    
C28   O8    A    
C64   N8    T    
C6    C25   S    
Cu3   O12   S    
C35   H6    S    
C62   C70   S    
C13   H24   S    
C11   H22   S    
C22   C66   S    
Cu4   N3    S    
C56   H12   S    
Cu4   O14   S    
C34   O15   A    
Cu2   O3    S    
C41   C46   A    
C29   N4    A    
C2    C69   A    
C43   C48   A    
C8    C52   A    
C40   C44   A    
C12   C58   S    
C19   N5    A    
Cu3   O6    S    
C55   C60   A    
Cu2   O10   S    
C34   C60   S    
C5    C49   A    
C2    C6    A    
C68   N2    T    
C25   O16   A    
C25   O5    A    
C32   C54   A    
C52   C54   A    
C31   H3    S    
C18   N4    A    
C54   C59   A    
C27   O3    A    
C10   C21   A    
C41   H13   S    
C45   C58   A    
C48   H19   S    
C30   N5    A    
C1    O12   A    
C60   C67   A    
Cu2   Cu4   S    
Cu1   Cu3   S    
C24   C68   S    
C33   H5    S    
C47   C51   A    
C46   H17   S    
Cu3   O13   S    
C3    C45   A    
C15   H27   S    
C7    C28   S    
C29   H30   S    
C51   C53   A    
C40   H11   S    
C37   C43   A    
C35   C39   A    
C5    C70   A    
C30   H2    S    
C9    C20   A    
Cu3   N1    S    
C62   N6    T    
C23   C61   S    
C36   H7    S    
Cu1   O1    S    
C24   N3    A    
C32   C37   A    
C31   C53   A    
C57   C61   A    
C9    C11   A    
C21   N3    A    
C69   H25   S    
C16   H28   S    
Cu4   O8    S    
C13   C15   A    
C14   C16   A    
C37   H8    S    
C24   C30   A    
C42   H14   S    
C44   H16   S    
C2    C63   S    
C20   N1    A    
C61   C69   A    
C15   C17   A    
Cu2   N5    S    
C66   N10   T    
C50   C57   A    
C65   N9    T    
C10   C13   A    
C53   C58   A    
C14   H26   S    
C23   O10   A    
C22   N1    A    
C46   C50   A    
C33   C38   A    
C56   C59   A    
C45   H1    S    
Cu2   O11   S    
C35   C57   A    
C67   C70   A    
C17   H29   S    
C7    C51   A    
C49   C55   A    
Cu1   O16   S    
C38   C40   A    
C12   O9    A    
C10   H21   S    
C34   O11   A    
C17   C19   A    
Cu1   O2    S    
C18   C20   A    
C42   C47   A    
C63   N7    T    
C26   O2    A    
C67   H23   S    
C32   H4    S    
C5    C26   S    
C6    C50   A    
C48   C52   A    
Cu4   O7    S    
C16   C18   A    
Cu4   O15   S    
Cu2   O4    S    
C8    C27   S    
C31   C36   A    
C28   O4    A    
C1    O1    A    
Cu1   N4    S    
C9    H20   S    
C4    C56   A    
C23   O14   A    
