data_mof_unit_45628.cif
_audit_creation_date              2012-12-11T16:22:19-0500
_audit_creation_method            fapswitch 2.2
_symmetry_space_group_name_H-M    P1
_symmetry_Int_Tables_number       1
_space_group_crystal_system       triclinic
_cell_length_a                    13.482299
_cell_length_b                    14.006202
_cell_length_c                    30.059075
_cell_angle_alpha                 97.549692
_cell_angle_beta                  90.308808
_cell_angle_gamma                 118.752578
_cell_volume                      4917.8535296

loop_
_atom_site_label
_atom_site_type_symbol
_atom_type_description
_atom_site_fract_x
_atom_site_fract_y
_atom_site_fract_z
_atom_type_partial_charge
C1    C     C_R   0.721260 0.098975 0.569129 0.546063
C2    C     C_1   0.342667 0.645966 0.760570 0.084527
C3    C     C_3   0.806210 0.361760 0.332569 -0.236894
C4    C     C_3   0.824324 0.451356 0.372132 -0.307166
C5    C     C_3   0.844355 0.557081 0.355386 -0.437954
C6    C     C_3   0.942158 0.052343 0.103984 -0.214329
C7    C     C_3   0.855513 0.950652 0.071730 -0.297000
C8    C     C_3   0.905741 0.877587 0.053680 -0.408225
C9    C     C_3   0.503960 0.716784 0.922299 -0.223455
C10   C     C_3   0.496066 0.805100 0.955789 -0.291624
C11   C     C_3   0.596052 0.860375 0.991479 -0.447906
C12   C     C_1   0.344998 0.651731 0.721149 0.044856
C13   C     C_R   0.383805 0.788124 0.550935 0.542450
C14   C     C_R   0.295120 0.592115 0.895474 -0.000210
C15   C     C_3   0.220249 0.092462 0.723609 0.223431
C16   C     C_3   0.280471 0.057455 0.756605 -0.121740
C17   C     C_1   0.297074 0.197912 0.876693 0.007318
C18   C     C_1   0.364514 0.135482 0.613715 0.046444
C19   C     C_3   0.250795 0.199305 0.756199 -0.077127
C20   C     C_3   0.313421 0.165339 0.788568 -0.027805
C21   C     C_R   0.346162 0.662989 0.674535 0.055720
C22   C     C_3   0.362206 0.258266 0.733276 0.277199
C23   C     C_3   0.330179 0.152519 0.700707 0.028574
C24   C     C_3   0.425212 0.226607 0.766308 -0.096548
C25   C     C_R   0.397223 0.118612 0.569535 0.546246
C26   C     C_3   0.392317 0.118788 0.733453 -0.184910
C27   C     C_1   0.305136 0.178465 0.837145 -0.024514
C28   C     C_1   0.345037 0.144812 0.652522 0.062145
C29   C     C_3   0.934964 0.244568 0.730645 -0.098391
C30   C     C_3   0.871685 0.283324 0.765149 -0.124201
C31   C     C_1   0.896993 0.205870 0.878243 0.015253
C32   C     C_R   0.247097 0.643089 0.649604 0.015226
C33   C     C_1   0.770874 0.132134 0.614408 0.001677
C34   C     C_3   0.913174 0.149131 0.756903 -0.049804
C35   C     C_3   0.849374 0.187439 0.790575 0.034196
C36   C     C_3   0.799738 0.073310 0.728254 -0.055183
C37   C     C_R   0.718443 0.094970 0.442203 0.528902
C38   C     C_3   0.821776 0.168912 0.702717 0.047491
C39   C     C_3   0.736341 0.111893 0.762598 -0.105624
C40   C     C_3   0.757997 0.207405 0.736356 -0.119908
C41   C     C_1   0.869897 0.196442 0.839079 -0.024743
C42   C     C_1   0.799686 0.152635 0.653956 -0.030412
C43   C     C_R   0.258773 0.678847 0.607245 -0.096113
C44   C     C_3   0.266170 0.583294 0.259058 0.292777
C45   C     C_3   0.246332 0.654927 0.229503 0.006561
C46   C     C_1   0.309455 0.607081 0.111232 -0.000237
C47   C     C_1   0.367499 0.737075 0.378195 0.016061
C48   C     C_3   0.360026 0.583980 0.229660 -0.086234
C49   C     C_R   0.382376 0.784631 0.424390 0.548441
C50   C     C_3   0.340590 0.657079 0.200405 0.010702
C51   C     C_3   0.449831 0.689700 0.260404 -0.147538
C52   C     C_3   0.354787 0.687378 0.289195 0.025971
C53   C     C_3   0.430392 0.762170 0.230253 -0.122529
C54   C     C_R   0.223751 0.568051 0.818677 -0.168008
C55   C     C_3   0.335801 0.760614 0.259807 -0.124063
C56   C     C_1   0.328199 0.635103 0.151269 -0.046712
C57   C     C_1   0.360655 0.709550 0.338232 0.002050
C58   C     C_R   0.364473 0.131836 0.399238 0.036022
C59   C     C_R   0.454646 0.183121 0.372157 -0.130151
C60   C     C_R   0.433965 0.184372 0.327307 -0.126471
C61   C     C_R   0.395839 0.115245 0.443274 0.531937
C62   C     C_R   0.323022 0.134465 0.308502 0.027414
C63   C     C_R   0.231511 0.087687 0.334964 -0.079204
C64   C     C_R   0.250779 0.087235 0.380995 -0.008813
C65   C     C_R   0.204989 0.547260 0.862178 -0.141055
C66   C     C_R   0.248715 0.073869 0.141319 0.247014
C67   C     C_R   0.248494 0.100176 0.098018 -0.128570
C68   C     C_R   0.384958 0.291300 0.125498 -0.098901
C69   C     C_R   0.382900 0.266315 0.168689 -0.106799
C70   C     C_R   0.312399 0.159093 0.176940 0.033793
C71   C     C_1   0.305316 0.141346 0.222642 0.082809
C72   C     C_1   0.307024 0.134129 0.261751 0.038844
C73   C     C_R   0.365775 0.729722 0.589969 0.001698
C74   C     C_R   0.313877 0.209525 0.090297 -0.024165
C75   C     C_R   0.765846 0.129553 0.399456 -0.002033
C76   C     C_R   0.407273 0.665594 0.885291 -0.013455
C77   C     C_R   0.765935 0.051954 0.365020 -0.137314
C78   C     C_R   0.774824 0.072844 0.320850 -0.122285
C79   C     C_R   0.783765 0.171192 0.310591 0.046487
C80   C     C_R   0.793434 0.254549 0.345001 0.021175
C81   C     C_R   0.785508 0.232661 0.389594 -0.103717
C82   C     C_R   0.808742 0.269993 0.153511 0.282369
C83   C     C_R   0.852433 0.278848 0.111007 -0.126701
C84   C     C_R   0.895508 0.130313 0.118340 -0.013034
C85   C     C_R   0.460167 0.737554 0.613613 -0.131503
C86   C     C_R   0.851620 0.123043 0.160315 -0.135809
C87   C     C_R   0.425693 0.690549 0.840364 0.295401
C88   C     C_R   0.812388 0.193652 0.178459 0.027070
C89   C     C_1   0.791389 0.191992 0.224955 0.071398
C90   C     C_1   0.784723 0.184703 0.264194 0.007039
C91   C     C_R   0.898608 0.211854 0.093250 -0.023524
C92   C     C_R   0.284067 0.232655 0.922081 0.550077
C93   C     C_R   0.266744 0.548295 0.938302 0.533466
C94   C     C_R   0.945316 0.222399 0.922858 0.550582
C95   C     C_R   0.292861 0.243022 0.048785 0.544447
C96   C     C_R   0.275363 0.558562 0.065138 0.545874
C97   C     C_R   0.450500 0.705496 0.655794 -0.086545
C98   C     C_R   0.332559 0.636505 0.807266 0.038944
C99   C     C_R   0.956635 0.232977 0.050925 0.541907
C100  C     C_3   0.133077 0.639496 0.210598 -0.231384
C101  C     C_3   0.063482 0.656474 0.248020 -0.285953
C102  C     C_3   0.972300 0.678582 0.229379 -0.395218
C103  C     C_3   0.133193 0.588806 0.670070 -0.254417
C104  C     C_3   0.028051 0.552368 0.637957 -0.305950
C105  C     C_3   0.918946 0.486519 0.660298 -0.425020
C106  C     C_3   0.149461 0.041478 0.409021 -0.264127
C107  C     C_3   0.092907 0.114431 0.413285 -0.304751
C108  C     C_3   0.994430 0.072129 0.443376 -0.428964
Cr1   Cr    Cr6+3 0.583430 0.162610 0.509470 1.027277
Cr2   Cr    Cr6+3 0.584210 0.916680 0.495400 1.029725
Cr3   Cr    Cr6+3 0.332380 0.920740 0.495100 1.035942
Cr4   Cr    Cr6+3 0.086810 0.177030 0.983130 1.021846
Cr5   Cr    Cr6+3 0.337180 0.419300 0.994610 1.032136
Cr6   Cr    Cr6+3 0.084840 0.422330 0.995830 1.049225
H1    H     H_    0.119350 0.490153 0.869196 0.144105
H2    H     H_    0.152498 0.528018 0.793360 0.111236
H3    H     H_    0.977066 0.125382 0.766305 0.171423
H4    H     H_    0.326768 0.833855 0.272688 0.138243
H5    H     H_    0.497885 0.835842 0.217877 0.123651
H6    H     H_    0.533511 0.703855 0.273751 0.119241
H7    H     H_    0.369630 0.511106 0.216713 0.130722
H8    H     H_    0.194103 0.036732 0.070784 0.149112
H9    H     H_    0.145604 0.051350 0.319768 0.125617
H10   H     H_    0.542277 0.217667 0.384993 0.135688
H11   H     H_    0.433445 0.331774 0.196048 0.141292
H12   H     H_    0.450723 0.085927 0.723723 0.128503
H13   H     H_    0.435581 0.376326 0.120451 0.156320
H14   H     H_    0.505013 0.221739 0.306894 0.121423
H15   H     H_    0.852287 0.339297 0.091994 0.169853
H16   H     H_    0.786665 0.292342 0.416607 0.119662
H17   H     H_    0.750787 0.972036 0.371627 0.129877
H18   H     H_    0.186582 0.671897 0.588345 0.132767
H19   H     H_    0.852149 0.063913 0.180228 0.124982
H20   H     H_    0.769938 0.010021 0.294282 0.110191
H21   H     H_    0.543610 0.775788 0.601050 0.149496
H22   H     H_    0.525961 0.719340 0.674856 0.153945
H23   H     H_    0.510036 0.282490 0.784248 0.150385
H24   H     H_    0.246193 0.974399 0.766560 0.130154
H25   H     H_    0.019042 0.901648 0.747150 0.341395
H26   H     H_    0.504458 0.557544 0.754966 0.390858
H27   H     H_    0.012352 0.760540 0.218191 0.235148
H28   H     H_    0.921073 0.614858 0.200384 0.236606
H29   H     H_    0.915419 0.678006 0.256047 0.127352
H30   H     H_    0.022260 0.581743 0.264505 0.213201
H31   H     H_    0.118864 0.727436 0.274078 0.169911
H32   H     H_    0.151533 0.699685 0.187067 0.220292
H33   H     H_    0.083585 0.555656 0.190910 0.168194
H34   H     H_    0.192838 0.232814 0.765708 0.130283
H35   H     H_    0.011030 0.400517 0.234739 0.356417
H36   H     H_    0.307050 0.913706 0.170982 0.343091
H37   H     H_    0.915466 0.410787 0.669543 0.153806
H38   H     H_    0.914288 0.537210 0.691060 0.174900
H39   H     H_    0.844388 0.461906 0.636553 0.171886
H40   H     H_    0.027364 0.625955 0.628256 0.189869
H41   H     H_    0.029627 0.499725 0.607173 0.167903
H42   H     H_    0.124773 0.514344 0.682808 0.156369
H43   H     H_    0.134019 0.646595 0.699406 0.148502
H44   H     H_    0.927265 0.988363 0.428395 0.158272
H45   H     H_    0.901080 0.369708 0.780965 0.113926
H46   H     H_    0.024361 0.069405 0.477449 0.167472
H47   H     H_    0.957740 0.128414 0.446820 0.159426
H48   H     H_    0.156471 0.200058 0.428038 0.184746
H49   H     H_    0.060055 0.116234 0.379588 0.181664
H50   H     H_    0.087352 0.956513 0.392958 0.140190
H51   H     H_    0.173816 0.036263 0.443468 0.169185
H52   H     H_    0.758797 0.447802 0.238809 0.355168
H53   H     H_    0.922339 0.590523 0.336921 0.171202
H54   H     H_    0.770796 0.540916 0.332741 0.150358
H55   H     H_    0.855212 0.619811 0.384516 0.147970
H56   H     H_    0.016340 0.298693 0.717006 0.136686
H57   H     H_    0.747973 0.422208 0.391659 0.154994
H58   H     H_    0.899457 0.470357 0.394523 0.186516
H59   H     H_    0.879786 0.396273 0.311752 0.224106
H60   H     H_    0.728983 0.342028 0.311369 0.151583
H61   H     H_    0.981023 0.924102 0.035050 0.165059
H62   H     H_    0.930939 0.847695 0.081808 0.225244
H63   H     H_    0.841354 0.805238 0.030340 0.142929
H64   H     H_    0.779928 0.902033 0.089898 0.156439
H65   H     H_    0.826245 0.975229 0.042911 0.187920
H66   H     H_    0.025942 0.095463 0.090192 0.184368
H67   H     H_    0.694167 0.231605 0.727233 0.123253
H68   H     H_    0.960999 0.022738 0.133794 0.177549
H69   H     H_    0.639934 0.855312 0.766477 0.364972
H70   H     H_    0.597781 0.798434 0.010612 0.148533
H71   H     H_    0.677163 0.901847 0.975430 0.175100
H72   H     H_    0.587741 0.923229 0.015373 0.154659
H73   H     H_    0.495651 0.868962 0.937518 0.204961
H74   H     H_    0.416111 0.767523 0.972871 0.162850
H75   H     H_    0.503835 0.652546 0.940212 0.156885
H76   H     H_    0.588255 0.753600 0.908766 0.225700
H77   H     H_    0.654933 0.058035 0.776261 0.164326
H78   H     H_    0.770876 0.987049 0.712401 0.153173
O1    O     O_R   0.493980 0.188910 0.559650 -0.496183
O2    O     O_R   0.170560 0.527890 0.952050 -0.510309
O3    O     O_R   0.987620 0.318470 0.945550 -0.501267
O4    O     O_R   0.678640 0.153520 0.554450 -0.497992
O5    O     O_R   0.976400 0.159270 0.031530 -0.528035
O6    O     O_R   0.194000 0.188570 0.028560 -0.515009
O7    O     O_R   0.365260 0.335720 0.039020 -0.502802
O8    O     O_R   0.330440 0.515580 0.044910 -0.503821
O9    O     O_R   0.177310 0.536200 0.050190 -0.488913
O10   O     O_R   0.993870 0.326170 0.036530 -0.492124
O11   O     O_3   0.169610 0.339550 0.991190 -0.250616
O12   O     O_R   0.480180 0.824400 0.444640 -0.497796
O13   O     O_R   0.698130 0.004030 0.549500 -0.500642
O14   O     O_R   0.481060 0.827210 0.535360 -0.501114
O15   O     O_R   0.309260 0.811560 0.537660 -0.507093
O16   O     O_R   0.341620 0.023400 0.546290 -0.490676
O17   O     O_R   0.493030 0.185890 0.461780 -0.517298
O18   O     O_R   0.677760 0.150720 0.463730 -0.506650
O19   O     O_R   0.697180 0.001010 0.451640 -0.517544
O20   O     O_2   0.047334 0.069392 0.670410 -0.251899
O21   O     O_2   0.089794 0.916608 0.661485 -0.277794
O22   O     O_3   0.989258 0.942461 0.732055 -0.521513
O23   O     O_R   0.308310 0.808540 0.439800 -0.503843
O24   O     O_2   0.516224 0.415639 0.690521 -0.284858
O25   O     O_2   0.325771 0.397616 0.691203 -0.285101
O26   O     O_3   0.458405 0.485470 0.765241 -0.511977
O27   O     O_2   0.220898 0.406194 0.297844 -0.249513
O28   O     O_2   0.103441 0.493181 0.315828 -0.333334
O29   O     O_3   0.068030 0.375535 0.236564 -0.520131
O30   O     O_2   0.059909 0.922789 0.170939 -0.309249
O31   O     O_2   0.135486 0.857625 0.107193 -0.306249
O32   O     O_3   0.240012 0.906670 0.186708 -0.546441
O33   O     O_2   0.765058 0.435391 0.144351 -0.297781
O34   O     O_R   0.340740 0.020600 0.455570 -0.506181
O35   O     O_2   0.623180 0.278185 0.177150 -0.301307
O36   O     O_3   0.807547 0.417326 0.226553 -0.595493
O37   O     O_2   0.610160 0.891599 0.859545 -0.304801
O38   O     O_2   0.639944 0.738465 0.827100 -0.286709
O39   O     O_3   0.560210 0.822169 0.774469 -0.560984
O40   O     O_3   0.500010 0.000010 0.499990 -0.248056
O41   O     O_R   0.969650 0.150960 0.933380 -0.491460
O42   O     O_R   0.187740 0.180870 0.937580 -0.493302
O43   O     O_R   0.358510 0.327410 0.940870 -0.498011
O44   O     O_R   0.324180 0.507870 0.953930 -0.501571
S1    S     S_3+6 0.083976 0.003265 0.694862 -0.000279
S2    S     S_3+6 0.416670 0.392235 0.718148 0.004287
S3    S     S_3+6 0.162715 0.462391 0.279125 -0.007921
S4    S     S_3+6 0.166489 0.936037 0.150609 -0.042188
S5    S     S_3+6 0.748028 0.352202 0.174585 -0.037569
S6    S     S_3+6 0.562766 0.787824 0.825838 -0.023411

loop_
_geom_bond_atom_site_label_1
_geom_bond_atom_site_label_2
_ccdc_geom_bond_type
C43   C73   A    
Cr5   O44   S    
C105  H39   S    
C44   S3    S    
C101  C102  S    
C4    H57   S    
H69   O39   S    
C11   H72   S    
Cr2   O19   S    
C2    C12   T    
C8    H61   S    
C1    C33   S    
C7    C8    S    
C47   C49   S    
C54   C65   A    
C77   C78   A    
C19   H34   S    
C15   C19   S    
C18   C25   S    
C101  H31   S    
C62   C63   A    
C30   C35   S    
C6    H68   S    
C96   O8    A    
C33   C42   T    
C60   C62   A    
C43   H18   S    
Cr3   O23   S    
C83   H15   S    
O21   S1    D    
O31   S4    D    
C95   O6    A    
C26   H12   S    
C80   C81   A    
Cr1   O40   S    
C86   C88   A    
C23   C26   S    
C108  H44   S    
C106  C107  S    
H25   O22   S    
O33   S5    D    
Cr4   O41   S    
Cr4   O42   S    
C39   H77   S    
Cr1   O4    S    
Cr2   O12   S    
C34   C35   S    
C77   H17   S    
C5    H54   S    
O27   S3    D    
C95   O7    A    
C37   O19   A    
C79   C90   S    
C86   H19   S    
C93   O2    A    
Cr3   O16   S    
C9    H76   S    
C8    H63   S    
C3    H59   S    
C48   C51   S    
Cr5   O8    S    
O36   S5    S    
C20   C24   S    
C100  H32   S    
C68   C69   A    
C54   H2    S    
C29   C38   S    
C10   H74   S    
C107  C108  S    
C13   O15   A    
O28   S3    D    
Cr1   O1    S    
C70   C71   S    
C9    C76   S    
C106  H50   S    
C29   H56   S    
C25   O16   A    
C1    O13   A    
C9    C10   S    
C14   C93   S    
O20   S1    D    
C52   C55   S    
C22   S2    S    
C87   C98   A    
C66   S4    S    
C44   C52   S    
C34   H3    S    
C15   C23   S    
C66   C67   A    
C37   C75   S    
C49   O12   A    
C69   H11   S    
C59   C60   A    
C11   H71   S    
C16   C26   S    
Cr3   O40   S    
C65   H1    S    
C17   C92   S    
H35   O29   S    
C9    H75   S    
C3    C80   S    
Cr4   O6    S    
C104  C105  S    
C51   H6    S    
C53   C55   S    
C93   O44   A    
C58   C64   A    
C30   H45   S    
C105  H37   S    
C21   C32   A    
C32   C103  S    
C50   C53   S    
C6    C84   S    
Cr6   O3    S    
C62   C72   S    
C51   C52   S    
C17   C27   T    
C106  H51   S    
Cr6   O2    S    
C60   H14   S    
O22   S1    S    
C18   C28   T    
C10   C11   S    
C39   C40   S    
C78   C79   A    
C103  H43   S    
C87   S6    S    
C96   O9    A    
C92   O42   A    
C58   C59   A    
C63   C64   A    
C29   C34   S    
C50   C56   S    
C94   O3    A    
C7    H64   S    
C51   C53   S    
C14   C76   A    
C35   C39   S    
C29   C30   S    
O38   S6    D    
C47   C57   T    
C21   C97   A    
C3    H60   S    
C76   C87   A    
C107  H48   S    
C16   C20   S    
C99   O5    A    
Cr6   O10   S    
C10   H73   S    
Cr5   O7    S    
Cr6   O9    S    
C7    H65   S    
Cr2   O14   S    
C67   C74   A    
C61   O17   A    
C23   C28   S    
C75   C77   A    
C68   H13   S    
C73   C85   A    
C6    C7    S    
Cr2   O40   S    
C85   H21   S    
C82   S5    S    
H26   O26   S    
C102  H27   S    
C13   C73   S    
C82   C83   A    
C13   O14   A    
C99   O10   A    
C102  H28   S    
C22   C24   S    
C102  H29   S    
O26   S2    S    
Cr1   O18   S    
C67   H8    S    
Cr3   O15   S    
Cr4   O5    S    
C48   H7    S    
C25   O1    A    
C44   C45   S    
O30   S4    D    
C40   H67   S    
C45   C55   S    
C59   H10   S    
Cr5   O43   S    
C105  H38   S    
C30   C40   S    
C4    H58   S    
C6    H66   S    
C36   H78   S    
Cr3   O34   S    
H36   O32   S    
C74   C95   S    
C36   C39   S    
C16   H24   S    
C11   H70   S    
C61   O34   A    
C53   H5    S    
C107  H49   S    
C4    C5    S    
C45   C100  S    
O35   S5    D    
C63   H9    S    
C8    H62   S    
C94   O41   A    
C64   C106  S    
C1    O4    A    
C108  H46   S    
C20   C27   S    
C75   C81   A    
C24   H23   S    
O29   S3    S    
C31   C94   S    
C83   C91   A    
C108  H47   S    
C49   O23   A    
C92   O43   A    
O39   S6    S    
C97   H22   S    
O24   S2    D    
C19   C20   S    
C36   C38   S    
C89   C90   T    
C71   C72   T    
O32   S4    S    
C44   C48   S    
C91   C99   S    
C38   C40   S    
O37   S6    D    
C24   C26   S    
C81   H16   S    
C66   C70   A    
C45   C50   S    
C58   C61   S    
C84   C91   A    
C82   C88   A    
C15   C16   S    
C12   C21   S    
C84   C86   A    
C48   C50   S    
C100  C101  S    
C101  H30   S    
C32   C43   A    
Cr2   O13   S    
C34   C36   S    
Cr5   O11   S    
C104  H41   S    
C69   C70   A    
C35   C41   S    
C37   O18   A    
C85   C97   A    
C52   C57   S    
C31   C41   T    
C79   C80   A    
C78   H20   S    
C38   C42   S    
C15   S1    S    
C103  H42   S    
C46   C96   S    
C88   C89   S    
C2    C98   S    
H52   O36   S    
C19   C22   S    
C46   C56   T    
C103  C104  S    
C5    H55   S    
C22   C23   S    
C54   C98   A    
C100  H33   S    
Cr4   O11   S    
C104  H40   S    
C5    H53   S    
C68   C74   A    
O25   S2    D    
Cr6   O11   S    
C3    C4    S    
C14   C65   A    
Cr1   O17   S    
C55   H4    S    
