data_mof_unit_14165.cif
_audit_creation_date              2013-03-05T15:40:43-0500
_audit_creation_method            fapswitch 2.2
_symmetry_space_group_name_H-M    P1
_symmetry_Int_Tables_number       1
_space_group_crystal_system       triclinic
_cell_length_a                    15.076878
_cell_length_b                    14.927264
_cell_length_c                    14.978082
_cell_angle_alpha                 109.444258
_cell_angle_beta                  109.531802
_cell_angle_gamma                 109.256892
_cell_volume                      2600.69119718

loop_
_atom_site_label
_atom_site_type_symbol
_atom_site_description
_atom_site_fract_x
_atom_site_fract_y
_atom_site_fract_z
_atom_type_partial_charge
C1    C     C_R   0.989371 0.797032 0.082294 -0.144657
H1    H     H_    0.965115 0.828270 0.140631 0.088423
N1    N     N_R   0.993980 0.704500 0.053430 -0.037614
C2    C     C_R   0.779714 0.230310 0.686060 -0.136492
H2    H     H_    0.800206 0.213114 0.622060 0.094730
N2    N     N_R   0.850110 0.295520 0.792970 -0.044161
C3    C     C_R   0.077825 0.592009 0.785320 -0.136677
H3    H     H_    0.131586 0.676088 0.812038 0.090193
N3    N     N_R   0.053690 0.556380 0.849240 -0.039363
C4    C     C_R   0.685261 0.410134 0.945343 -0.107901
H4    H     H_    0.620793 0.327766 0.907486 0.073669
N4    N     N_R   0.790390 0.443640 0.997160 -0.041807
C5    C     C_R   0.990865 0.409041 0.695216 -0.112429
H5    H     H_    0.964201 0.325415 0.639452 0.080266
N5    N     N_R   0.998260 0.443670 0.792970 -0.040283
C6    C     C_R   0.777423 0.593379 0.033289 -0.126224
H6    H     H_    0.799997 0.678578 0.071073 0.089437
N6    N     N_R   0.845830 0.556350 0.053430 -0.041622
C7    C     C_R   0.687956 0.225993 0.777097 -0.096925
H7    H     H_    0.624744 0.198155 0.796086 0.076448
N7    N     N_R   0.792820 0.295510 0.849240 -0.044747
C8    C     C_R   0.079690 0.795275 0.990281 -0.109925
H8    H     H_    0.134434 0.821835 0.961162 0.080586
N8    N     N_R   0.051260 0.704510 0.997160 -0.041472
C9    C     C_R   0.042202 0.854635 0.043520 0.136760
C10   C     C_R   0.677534 0.189484 0.674462 0.150433
C11   C     C_R   0.039839 0.500838 0.688632 0.134510
C12   C     C_R   0.675260 0.502750 0.964131 0.056855
C13   C     C_R   0.062640 0.592824 0.313033 -0.151132
H9    H     H_    0.118279 0.677471 0.375779 0.099979
N9    N     N_R   0.001740 0.556330 0.207030 -0.044059
C14   C     C_R   0.210779 0.410774 0.906048 -0.158227
H10   H     H_    0.183467 0.326666 0.851162 0.089778
N10   N     N_R   0.154170 0.443650 0.946570 -0.035148
C15   C     C_R   0.297118 0.801814 0.207095 -0.149814
H11   H     H_    0.348953 0.830407 0.175807 0.087777
N11   N     N_R   0.207180 0.704490 0.150760 -0.040086
C16   C     C_R   0.970318 0.242575 0.056663 -0.142453
H12   H     H_    0.929758 0.215362 0.097061 0.086638
N12   N     N_R   0.948740 0.295490 0.002840 -0.042945
C17   C     C_R   0.068738 0.252756 0.973547 -0.117771
H13   H     H_    0.125270 0.247400 0.945955 0.088697
N13   N     N_R   0.006020 0.295500 0.946570 -0.046807
C18   C     C_R   0.205271 0.802427 0.296806 -0.125216
H14   H     H_    0.171905 0.831457 0.346235 0.083510
N14   N     N_R   0.149890 0.704480 0.207030 -0.042672
C19   C     C_R   0.963461 0.410869 0.224832 -0.117186
H15   H     H_    0.918918 0.329489 0.209545 0.081349
N15   N     N_R   0.946310 0.443620 0.150760 -0.045344
C20   C     C_R   0.299815 0.592930 0.999029 -0.140820
H16   H     H_    0.352970 0.678342 0.030176 0.086354
N16   N     N_R   0.209610 0.556360 0.002840 -0.033911
Ni1   Ni    Ni4+2 0.997880 0.629240 0.129060 0.211493
Ni2   Ni    Ni4+2 0.002120 0.370760 0.870940 0.212579
Ni3   Ni    Ni4+2 0.129260 0.629260 0.000000 0.211373
Ni4   Ni    Ni4+2 0.870740 0.370740 0.000000 0.215201
C21   C     C_R   0.043363 0.502335 0.325456 0.132680
C22   C     C_R   0.302391 0.503038 0.937551 0.032771
C23   C     C_R   0.296552 0.865178 0.297558 0.135945
C24   C     C_R   0.050621 0.222914 0.046285 0.131772
C25   C     C_3   0.477073 0.415709 0.832930 0.277257
H17   H     H_    0.466232 0.333784 0.818906 0.027934
C26   C     C_3   0.372036 0.414821 0.826248 -0.520257
H18   H     H_    0.330772 0.428576 0.759346 0.202543
H19   H     H_    0.314762 0.332360 0.806611 0.130252
H20   H     H_    0.540994 0.395584 0.018817 0.159386
H21   H     H_    0.393430 0.401844 0.015083 0.156992
C27   C     C_3   0.552718 0.478189 0.034825 -0.476069
C28   C     C_3   0.587724 0.619195 0.975630 -0.361154
C29   C     C_3   0.575177 0.504407 0.950138 0.209919
H22   H     H_    0.651413 0.680996 0.062051 0.141533
H23   H     H_    0.613205 0.647217 0.923863 0.202454
C30   C     C_3   0.399484 0.504183 0.937263 0.344976
C31   C     C_3   0.451453 0.481415 0.029407 -0.377860
C32   C     C_3   0.481593 0.616895 0.961143 -0.395120
H24   H     H_    0.446995 0.632359 0.893323 0.185930
H25   H     H_    0.501572 0.684971 0.037880 0.142103
H26   H     H_    0.622758 0.538342 0.119024 0.183351
H27   H     H_    0.473255 0.546433 0.109583 0.170320
C33   C     C_2   0.380241 0.030596 0.468663 -0.113443
C34   C     C_2   0.373314 0.980571 0.372294 -0.188010
H28   H     H_    0.314593 0.996573 0.483416 0.111223
H29   H     H_    0.436680 0.018393 0.356149 0.132152
C35   C     C_2   0.484732 0.116178 0.565097 -0.035505
C36   C     C_2   0.576983 0.119462 0.572126 -0.213247
H30   H     H_    0.484092 0.166244 0.636341 0.148515
H31   H     H_    0.579713 0.067853 0.503395 0.127303
C37   C     C_2   0.068732 0.422872 0.537393 -0.108778
C38   C     C_2   0.061793 0.503882 0.603032 -0.200655
H32   H     H_    0.060823 0.353078 0.548737 0.118402
H33   H     H_    0.066387 0.572949 0.591595 0.132291
C39   C     C_2   0.065505 0.416237 0.436781 -0.095104
C40   C     C_2   0.096268 0.506301 0.428144 -0.180163
H34   H     H_    0.019724 0.335215 0.365444 0.111601
H35   H     H_    0.150352 0.586934 0.500385 0.131029
C41   C     C_2   0.156284 0.131496 0.066613 -0.108674
C42   C     C_2   0.102196 0.175798 0.101392 -0.178889
H36   H     H_    0.186252 0.151884 0.015578 0.112576
H37   H     H_    0.079055 0.160786 0.158519 0.130709
C43   C     C_2   0.151152 0.033481 0.070531 -0.107922
C44   C     C_2   0.065356 0.964381 0.068152 -0.191812
H38   H     H_    0.208775 0.010065 0.058018 0.115758
H39   H     H_    0.004953 0.984520 0.077328 0.129768
N17   N     N_R   0.494891 0.431934 0.747524 0.241605
O1    O     O_R   0.487065 0.509075 0.729141 -0.411838
O2    O     O_R   0.513970 0.365157 0.685466 -0.417696

loop_
_geom_bond_atom_site_label_1
_geom_bond_atom_site_label_2
_geom_bond_distance
_ccdc_geom_bond_type
C25   C29   1.564354 S    
C6    C12   1.378895 A    
H20   C27   1.113658 S    
C26   H19   1.111457 S    
C30   C32   1.555831 S    
C30   C31   1.548898 S    
C7    H7    1.077293 S    
C14   C22   1.379861 A    
C33   C35   1.456918 S    
N17   O2    1.300535 A    
C3    H3    1.081682 S    
C19   N15   1.337696 A    
N8    Ni3   1.875157 S    
C15   N11   1.334413 A    
C35   H30   1.085357 S    
C16   H12   1.073440 S    
C18   C23   1.379787 A    
C27   C31   1.519269 S    
C3    C11   1.377139 A    
C15   C23   1.374937 A    
C1    H1    1.081461 S    
C17   H13   1.078025 S    
C28   H22   1.112733 S    
C7    C10   1.381707 A    
C43   C44   1.342789 D    
N6    Ni1   1.876188 S    
C42   H37   1.086178 S    
N12   N13   1.393858 A    
C15   H11   1.081922 S    
C6    H6    1.077066 S    
N12   Ni4   1.875158 S    
C8    C9    1.379039 A    
C41   H36   1.084522 S    
C20   N16   1.316756 A    
C28   C32   1.528164 S    
N3    Ni3   1.845864 S    
C38   H33   1.084197 S    
N16   Ni3   1.876018 S    
C40   H35   1.086272 S    
C21   C40   1.446820 S    
C5    H5    1.080654 S    
C1    C9    1.378802 A    
C17   N13   1.333655 A    
N1    N8    1.393857 A    
C28   C29   1.555604 S    
N9    N15   1.377286 A    
C43   H38   1.085175 S    
N17   O1    1.301812 A    
C34   H29   1.086066 S    
C18   N14   1.333441 A    
C36   H31   1.084526 S    
C27   H26   1.114447 S    
C20   C22   1.373173 A    
N5    Ni2   1.842359 S    
C37   C39   1.459998 S    
C25   N17   1.469812 S    
C35   C36   1.342249 D    
C33   H28   1.084338 S    
C24   C42   1.448667 S    
C2    H2    1.080163 S    
C26   C30   1.553878 S    
N2    N7    1.393983 A    
C1    N1    1.336194 A    
C14   N10   1.327407 A    
C28   H23   1.110349 S    
C32   H24   1.112873 S    
C13   H9    1.080085 S    
C19   C21   1.384897 A    
N13   Ni2   1.842572 S    
C19   H15   1.073784 S    
C41   C42   1.335704 D    
C39   H34   1.084750 S    
C20   H16   1.079564 S    
H21   C31   1.114255 S    
N9    Ni1   1.842359 S    
C32   H25   1.110598 S    
N4    Ni4   1.876017 S    
C4    N4    1.326978 A    
C16   C24   1.380570 A    
C2    N2    1.335112 A    
C13   C21   1.374106 A    
N2    Ni2   1.875369 S    
C31   H27   1.114348 S    
C5    N5    1.331294 A    
C8    N8    1.330206 A    
C18   H14   1.080827 S    
C4    C12   1.385677 A    
C3    N3    1.332736 A    
C7    N7    1.331551 A    
C25   C26   1.548340 S    
C12   C29   1.462205 S    
C23   C34   1.447257 S    
C17   C24   1.379067 A    
C37   H32   1.085339 S    
C33   C34   1.334964 D    
C6    N6    1.318805 A    
N7    Ni4   1.846055 S    
C2    C10   1.380655 A    
N10   Ni2   1.876188 S    
N15   Ni4   1.845863 S    
N10   N16   1.377286 A    
C14   H10   1.080344 S    
N3    N5    1.377286 A    
C13   N9    1.334211 A    
C16   N12   1.340797 A    
N1    Ni1   1.842572 S    
C9    C44   1.440816 S    
C10   C36   1.440347 S    
C41   C43   1.461382 S    
N14   Ni1   1.875369 S    
C39   C40   1.335622 D    
C11   C38   1.438103 S    
C25   H17   1.113797 S    
C4    H4    1.075651 S    
C26   H18   1.112536 S    
N11   Ni3   1.846054 S    
C37   C38   1.341832 D    
C44   H39   1.084145 S    
N4    N6    1.377285 A    
C27   C29   1.551463 S    
C8    H8    1.081034 S    
C5    C11   1.379802 A    
N11   N14   1.393983 A    
C22   C30   1.459789 S    
