data_mof_unit_50030.cif
_audit_creation_date              2012-12-10T16:58:57-0500
_audit_creation_method            fapswitch 2.2
_symmetry_space_group_name_H-M    P1
_symmetry_Int_Tables_number       1
_space_group_crystal_system       triclinic
_cell_length_a                    9.830627
_cell_length_b                    10.930776
_cell_length_c                    17.31693
_cell_angle_alpha                 91.518647
_cell_angle_beta                  84.825441
_cell_angle_gamma                 88.417363
_cell_volume                      1851.73824625

loop_
_atom_site_label
_atom_site_type_symbol
_atom_type_description
_atom_site_fract_x
_atom_site_fract_y
_atom_site_fract_z
_atom_type_partial_charge
C1    C     C_R   0.499485 0.734064 0.496543 0.860584
C2    C     C_R   0.353289 0.465987 0.778186 -0.192032
C3    C     C_R   0.386381 0.533086 0.155005 0.253395
C4    C     C_R   0.399156 0.505520 0.231501 -0.232297
C5    C     C_R   0.641987 0.550480 0.216873 0.082122
C6    C     C_R   0.627861 0.575420 0.138799 -0.235997
C7    C     C_R   0.501389 0.567908 0.108187 0.057432
C8    C     C_2   0.459411 0.497564 0.980208 -0.198118
C9    C     C_2   0.492123 0.592140 0.025882 0.102651
C10   C     C_R   0.524359 0.516406 0.264757 -0.104521
C11   C     C_2   0.590983 0.065266 0.468318 -0.279429
C12   C     C_R   0.481208 0.500239 0.649708 0.806038
C13   C     C_2   0.502115 0.136505 0.513448 0.113080
C14   C     C_2   0.608038 0.934798 0.479665 0.340677
C15   C     C_2   0.496918 0.865032 0.484607 -0.337580
C16   C     C_2   0.066078 0.560901 0.551689 0.132436
C17   C     C_2   0.914828 0.576791 0.540035 0.015973
C18   C     C_R   0.500907 0.266411 0.502262 0.816073
C19   C     C_R   0.518888 0.502860 0.349876 0.771113
C20   C     C_R   0.472154 0.501297 0.734470 -0.017964
C21   C     C_R   0.586833 0.534317 0.772299 -0.171957
C22   C     C_R   0.582559 0.532937 0.852421 -0.175412
C23   C     C_R   0.462606 0.501405 0.895951 0.149741
C24   C     C_R   0.348840 0.465623 0.858854 -0.131892
Cu1   Cu    Cu3+1 0.361370 0.499980 0.499980 0.948411
Cu2   Cu    Cu3+1 0.638630 0.500020 0.500020 0.960263
H1    H     H_    0.680347 0.560938 0.740043 0.148174
H2    H     H_    0.715985 0.601848 0.101416 0.151354
H3    H     H_    0.658203 0.104956 0.423125 0.139790
H4    H     H_    0.397437 0.906839 0.477245 0.171742
H5    H     H_    0.135277 0.515125 0.444389 0.197302
H6    H     H_    0.854419 0.646503 0.573980 0.167893
H7    H     H_    0.307448 0.479022 0.265606 0.192594
H8    H     H_    0.256993 0.437808 0.892327 0.155340
H9    H     H_    0.265393 0.436265 0.750296 0.151740
H10   H     H_    0.432556 0.410801 0.005995 0.168380
H11   H     H_    0.672663 0.556732 0.880602 0.138633
N1    N     N_2   0.152990 0.501340 0.500850 -0.321863
N2    N     N_2   0.846850 0.501370 0.500880 -0.168802
O1    O     O_R   0.382960 0.678040 0.499990 -0.590768
O2    O     O_R   0.617100 0.678080 0.500010 -0.535681
O3    O     O_R   0.369350 0.500000 0.613580 -0.600548
O4    O     O_R   0.603500 0.500040 0.613610 -0.577176
O5    O     O_R   0.382900 0.321920 0.499990 -0.540425
O6    O     O_R   0.617040 0.321960 0.500010 -0.604134
O7    O     O_R   0.396500 0.499960 0.386390 -0.591366
O8    O     O_R   0.630650 0.500000 0.386420 -0.598059
Br1   Br    Br    0.388590 0.081098 0.601665 -0.512998
Br2   Br    Br    0.794503 0.878557 0.483503 -0.565435
C25   C     C_3   0.113703 0.608765 0.627578 -0.310555
C26   C     C_3   0.011524 0.690006 0.680019 -0.456805
C27   C     C_3   0.074513 0.732817 0.753165 -0.783563
H12   H     H_    0.103768 0.652950 0.787110 0.248783
H13   H     H_    0.166446 0.787070 0.737728 0.269641
H14   H     H_    0.998923 0.791329 0.789906 0.250623
H15   H     H_    0.981338 0.772131 0.648298 0.260834
H16   H     H_    0.919282 0.637626 0.698129 0.217244
H17   H     H_    0.138411 0.528008 0.661499 0.212994
H18   H     H_    0.204848 0.664424 0.614004 0.250112
C28   C     C_3   0.923260 0.408745 0.447794 -0.161100
C29   C     C_3   0.852670 0.297821 0.415233 -0.330691
C30   C     C_3   0.949742 0.225690 0.355307 -0.917382
H19   H     H_    0.978933 0.282994 0.304748 0.261961
H20   H     H_    0.043516 0.194786 0.381437 0.277808
H21   H     H_    0.898137 0.143629 0.334403 0.263910
H22   H     H_    0.827570 0.233713 0.462779 0.256928
H23   H     H_    0.763238 0.323485 0.384744 0.253368
H24   H     H_    0.965784 0.456332 0.395621 0.147883
H25   H     H_    0.999291 0.359280 0.479771 0.187265
C31   C     C_3   0.781940 0.566824 0.245226 -0.387500
C32   C     C_3   0.793456 0.695585 0.281084 -0.322885
C33   C     C_3   0.937859 0.717492 0.303150 -0.748451
H26   H     H_    0.962344 0.657080 0.350742 0.250661
H27   H     H_    0.013885 0.700077 0.252336 0.265016
H28   H     H_    0.945391 0.814124 0.323251 0.264437
H29   H     H_    0.767789 0.764919 0.238410 0.212596
H30   H     H_    0.720140 0.708896 0.333488 0.250849
H31   H     H_    0.807216 0.494512 0.285598 0.217035
H32   H     H_    0.861417 0.554513 0.195435 0.219499
C34   C     C_3   0.519950 0.720287 0.997254 -0.396241
C35   C     C_3   0.426291 0.816353 0.043297 -0.318478
C36   C     C_3   0.450984 0.944569 0.013211 -0.832205
H33   H     H_    0.558610 0.969559 0.018424 0.255554
H34   H     H_    0.429034 0.948926 0.951511 0.262805
H35   H     H_    0.382506 0.011959 0.047911 0.249922
H36   H     H_    0.317680 0.794073 0.038322 0.251155
H37   H     H_    0.445314 0.816101 0.105613 0.226227
H38   H     H_    0.628431 0.740931 0.003770 0.185223
H39   H     H_    0.503095 0.728501 0.935149 0.216379
Br3   Br    Br    0.207113 0.528750 0.118871 -0.629334

loop_
_geom_bond_atom_site_label_1
_geom_bond_atom_site_label_2
_ccdc_geom_bond_type
C2    H9    S    
C8    C9    D    
C31   H31   S    
C35   C36   S    
C19   O7    A    
C30   H19   S    
C13   C18   S    
C3    Br3   S    
C25   H18   S    
C16   C25   S    
C12   O4    A    
C3    C7    A    
Cu1   O1    S    
C8    H10   S    
C5    C6    A    
C11   C14   S    
C19   O8    A    
Cu2   N2    S    
C14   Br2   S    
C8    C23   S    
C26   H15   S    
C17   N2    D    
C34   H39   S    
C30   H20   S    
C1    O1    A    
C29   H22   S    
C6    H2    S    
C16   C17   S    
C12   O3    A    
C23   C24   A    
C31   C32   S    
C1    C15   S    
C35   H36   S    
Cu2   O6    S    
C27   H14   S    
C21   H1    S    
C21   C22   A    
C33   H28   S    
Cu1   O5    S    
C27   H13   S    
Cu2   O4    S    
C2    C20   A    
C26   C27   S    
C25   H17   S    
C33   H27   S    
C34   C35   S    
Cu1   Cu2   S    
C22   H11   S    
C24   H8    S    
C28   C29   S    
C9    C34   S    
C5    C31   S    
C18   O5    A    
Cu1   N1    S    
C29   H23   S    
C10   C19   S    
C12   C20   S    
C25   C26   S    
C11   H3    S    
C35   H37   S    
Cu2   O8    S    
C26   H16   S    
C1    O2    A    
C36   H34   S    
C2    C24   A    
C4    C10   A    
C3    C4    A    
C18   O6    A    
C32   H30   S    
C27   H12   S    
C15   H4    S    
C7    C9    S    
C4    H7    S    
C30   H21   S    
C31   H32   S    
C14   C15   D    
C33   H26   S    
Cu1   O3    S    
C13   Br1   S    
C6    C7    A    
C36   H35   S    
H5    N1    S    
C32   C33   S    
C34   H38   S    
C11   C13   D    
C32   H29   S    
C28   H25   S    
N2    C28   S    
C29   C30   S    
C5    C10   A    
C20   C21   A    
C28   H24   S    
C36   H33   S    
C17   H6    S    
C22   C23   A    
Cu1   O7    S    
Cu2   O2    S    
C16   N1    D    
