data_mof_unit_64529.cif
_audit_creation_date              2012-12-10T19:28:56-0500
_audit_creation_method            fapswitch 2.2
_symmetry_space_group_name_H-M    P1
_symmetry_Int_Tables_number       1
_space_group_crystal_system       triclinic
_cell_length_a                    17.740236
_cell_length_b                    16.456865
_cell_length_c                    10.640875
_cell_angle_alpha                 90.227571
_cell_angle_beta                  90.206108
_cell_angle_gamma                 90.000214
_cell_volume                      3106.54468769

loop_
_atom_site_label
_atom_site_type_symbol
_atom_type_description
_atom_site_fract_x
_atom_site_fract_y
_atom_site_fract_z
_atom_type_partial_charge
C1    C     C_R   0.355282 0.500000 0.499874 0.881646
C2    C     C_R   0.644706 0.500001 0.500123 0.882048
C3    C     C_1   0.966186 0.499847 0.500034 -0.007919
C4    C     C_1   0.033764 0.499847 0.499924 -0.007769
C5    C     C_R   0.547892 0.829312 0.581380 0.262979
C6    C     C_R   0.452792 0.170691 0.417496 0.261193
C7    C     C_R   0.452070 0.828903 0.418708 0.262574
C8    C     C_R   0.547240 0.171102 0.582411 0.260907
C9    C     C_R   0.546702 0.742984 0.579318 -0.023502
C10   C     C_R   0.454000 0.257015 0.419541 -0.036562
C11   C     C_R   0.453261 0.742588 0.420751 -0.017150
C12   C     C_R   0.546036 0.257412 0.580387 -0.030658
C13   C     C_R   0.499989 0.872974 0.500033 0.033101
C14   C     C_R   0.500007 0.127028 0.499963 0.034529
C15   C     C_1   0.499996 0.962744 0.500012 0.164755
C16   C     C_1   0.499999 0.037259 0.499983 0.164169
C17   C     C_R   0.499947 0.499804 0.258812 0.791883
C18   C     C_R   0.500084 0.500195 0.741189 0.791956
C19   C     C_3   0.438364 0.538854 0.041832 -0.160134
C20   C     C_3   0.561715 0.461142 0.958162 -0.173683
C21   C     C_3   0.500613 0.577357 0.960062 -0.130223
C22   C     C_3   0.499464 0.422641 0.039939 -0.131785
C23   C     C_3   0.437836 0.462187 0.957328 -0.153591
C24   C     C_3   0.562242 0.537811 0.042679 -0.165271
C25   C     C_3   0.500082 0.500615 0.877843 0.015187
C26   C     C_3   0.499991 0.499383 0.122158 0.015519
C27   C     C_R   0.846611 0.562374 0.440477 -0.256439
C28   C     C_R   0.153129 0.436887 0.440877 -0.253053
C29   C     C_R   0.153335 0.562990 0.558655 -0.257108
C30   C     C_R   0.846824 0.437501 0.559921 -0.252334
C31   C     C_R   0.767471 0.563123 0.439650 0.333252
C32   C     C_R   0.232268 0.436230 0.439976 0.339264
C33   C     C_R   0.232475 0.563755 0.559480 0.333793
C34   C     C_R   0.767686 0.436861 0.560844 0.338706
C35   C     C_R   0.727769 0.500000 0.500222 -0.118121
C36   C     C_R   0.272197 0.499999 0.499763 -0.120589
C37   C     C_R   0.885668 0.499901 0.500145 0.051187
C38   C     C_R   0.114282 0.499903 0.499817 0.051172
Cu1   Cu    Cu3+1 0.500000 0.580420 0.500000 0.991262
Cu2   Cu    Cu3+1 0.500000 0.419580 0.500000 0.984570
H1    H     H_    0.386970 0.431335 0.919191 0.142111
H2    H     H_    0.613100 0.568664 0.080866 0.154787
H3    H     H_    0.387943 0.570574 0.079311 0.136667
H4    H     H_    0.612127 0.429423 0.920633 0.149367
H5    H     H_    0.501106 0.640729 0.924672 0.150839
H6    H     H_    0.498958 0.359269 0.075331 0.149560
H7    H     H_    0.877792 0.610257 0.394087 0.144544
H8    H     H_    0.121783 0.388493 0.395139 0.144457
H9    H     H_    0.122147 0.611352 0.604401 0.144724
H10   H     H_    0.878170 0.389585 0.606291 0.144291
H11   H     H_    0.583327 0.709100 0.641500 0.132277
H12   H     H_    0.417966 0.290888 0.356410 0.166577
H13   H     H_    0.416599 0.708399 0.358611 0.132338
H14   H     H_    0.582112 0.291592 0.643475 0.166576
N1    N     N_R   0.500000 0.701220 0.500000 -0.189934
N2    N     N_R   0.500000 0.298780 0.500000 -0.200480
O1    O     O_R   0.391260 0.567930 0.500000 -0.546485
O2    O     O_R   0.608740 0.432070 0.500000 -0.545761
O3    O     O_R   0.608740 0.567930 0.500000 -0.546413
O4    O     O_R   0.391260 0.432070 0.500000 -0.545220
O5    O     O_R   0.499980 0.567900 0.316850 -0.584236
O6    O     O_R   0.500020 0.432100 0.683150 -0.587397
O7    O     O_R   0.500020 0.567900 0.683150 -0.588564
O8    O     O_R   0.499980 0.432100 0.316850 -0.591645
O9    O     O_3   0.728073 0.623636 0.378097 -0.717621
H15   H     H_    0.764281 0.662525 0.340794 0.326069
O10   O     O_3   0.271425 0.375146 0.379123 -0.735706
H16   H     H_    0.235095 0.335804 0.342394 0.323716
O11   O     O_3   0.271845 0.624934 0.620207 -0.714022
H17   H     H_    0.235624 0.664210 0.656963 0.326583
O12   O     O_3   0.728508 0.376441 0.622522 -0.739330
H18   H     H_    0.764831 0.337480 0.659779 0.323246
O13   O     O_3   0.595094 0.871688 0.661589 -0.694986
H19   H     H_    0.624688 0.832303 0.711926 0.324392
O14   O     O_3   0.406236 0.128326 0.336220 -0.694589
H20   H     H_    0.376998 0.167720 0.285316 0.327102
O15   O     O_3   0.404848 0.870874 0.338541 -0.694837
H21   H     H_    0.375235 0.831235 0.288223 0.324513
O16   O     O_3   0.593815 0.129143 0.663644 -0.694433
H22   H     H_    0.623071 0.168791 0.714535 0.327156

loop_
_geom_bond_atom_site_label_1
_geom_bond_atom_site_label_2
_ccdc_geom_bond_type
C2    C35   S    
Cu2   O4    S    
C24   H2    S    
O13   H19   S    
C9    H11   S    
C10   H12   S    
C6    O14   S    
C29   H9    S    
O15   H21   S    
C7    C11   A    
C17   C26   S    
C32   C36   A    
C19   C21   S    
C24   C26   S    
C17   O8    A    
C18   O7    A    
C20   C25   S    
C15   C16   T    
Cu1   O1    S    
C29   C33   A    
C33   C36   A    
Cu2   O6    S    
C34   C35   A    
C19   C26   S    
C17   O5    A    
Cu1   N1    S    
C20   C24   S    
Cu2   N2    S    
C29   C38   A    
C8    O16   S    
C9    N1    A    
C10   N2    A    
C5    C13   A    
C11   H13   S    
C33   O11   S    
C7    O15   S    
C30   H10   S    
C18   C25   S    
C20   H4    S    
C19   H3    S    
C21   H5    S    
Cu1   O5    S    
Cu2   O2    S    
C30   C34   A    
C27   C31   A    
O10   H16   S    
C28   C32   A    
C1    O4    A    
Cu1   Cu2   S    
C2    O3    A    
C18   O6    A    
C30   C37   A    
C19   C23   S    
O14   H20   S    
C5    C9    A    
C1    O1    A    
C6    C14   A    
C28   C38   A    
C8    C12   A    
Cu1   O3    S    
C12   N2    A    
C32   O10   S    
C22   H6    S    
C20   C22   S    
C13   C15   S    
C31   C35   A    
C3    C4    T    
C11   N1    A    
C27   H7    S    
C31   O9    S    
C21   C25   S    
C28   H8    S    
C8    C14   A    
C4    C38   S    
Cu2   O8    S    
C6    C10   A    
C2    O2    A    
Cu1   O7    S    
C23   H1    S    
O12   H18   S    
C27   C37   A    
C14   C16   S    
C23   C25   S    
C5    O13   S    
O11   H17   S    
O16   H22   S    
C7    C13   A    
C3    C37   S    
O9    H15   S    
C22   C26   S    
C21   C24   S    
C22   C23   S    
C34   O12   S    
C12   H14   S    
C1    C36   S    
