data_mof_unit_24978.cif
_audit_creation_date              2013-03-05T16:00:38-0500
_audit_creation_method            fapswitch 2.2
_symmetry_space_group_name_H-M    P1
_symmetry_Int_Tables_number       1
_space_group_crystal_system       triclinic
_cell_length_a                    10.76598
_cell_length_b                    14.740989
_cell_length_c                    14.821983
_cell_angle_alpha                 63.760447
_cell_angle_beta                  104.524906
_cell_angle_gamma                 102.993183
_cell_volume                      2024.77442594

loop_
_atom_site_label
_atom_site_type_symbol
_atom_site_description
_atom_site_fract_x
_atom_site_fract_y
_atom_site_fract_z
_atom_type_partial_charge
O1    O     O_R   0.455060 0.022100 0.338110 -0.607722
O2    O     O_R   0.512640 0.160150 0.379180 -0.471383
C1    C     C_R   0.474194 0.120590 0.311995 0.908845
O3    O     O_R   0.288900 0.930980 0.479450 -0.569908
O4    O     O_R   0.346480 0.069030 0.520520 -0.543895
C2    C     C_R   0.259940 0.003620 0.494699 0.953520
Cu1   Cu    Cu3+1 0.465900 0.918260 0.475680 1.113891
Cu2   Cu    Cu3+1 0.534100 0.081740 0.524320 1.136574
O5    O     O_R   0.487360 0.839850 0.620820 -0.553330
O6    O     O_R   0.544940 0.977900 0.661890 -0.544534
O7    O     O_R   0.653520 0.930970 0.479480 -0.480030
O8    O     O_R   0.711100 0.069020 0.520550 -0.610626
C3    C     C_R   0.519594 0.879717 0.688198 0.886710
C4    C     C_R   0.738940 0.002631 0.495735 0.969446
C5    C     C_3   0.032530 0.967783 0.409734 0.036028
H1    H     H_    0.049385 0.887531 0.435127 0.238467
C6    C     C_3   0.886280 0.961824 0.411920 0.758047
C7    C     C_3   0.084932 0.931400 0.598770 0.650204
C8    C     C_3   0.097246 0.116685 0.465803 0.430683
C9    C     C_3   0.121844 0.006482 0.491272 -0.520397
H2    H     H_    0.156913 0.142151 0.525137 0.188326
C10   C     C_3   0.875998 0.006225 0.489476 -0.470007
C11   C     C_3   0.942840 0.937791 0.598881 0.365531
C12   C     C_3   0.952974 0.116788 0.465486 -0.081984
H3    H     H_    0.954037 0.134437 0.531605 0.132904
H4    H     H_    0.939888 0.970580 0.652925 0.102710
C13   C     C_R   0.437549 0.190149 0.204539 -0.164192
C14   C     C_R   0.517505 0.812218 0.796970 -0.184351
C15   C     C_R   0.309040 0.221187 0.036553 -0.021973
C16   C     C_R   0.356960 0.153312 0.134383 -0.196886
C17   C     C_R   0.470329 0.295682 0.175279 0.757324
C18   C     C_R   0.409372 0.364781 0.081860 -0.071301
C19   C     C_R   0.335138 0.326886 0.009352 -0.176898
C20   C     C_R   0.426027 0.471065 0.056568 -0.161010
C21   C     C_R   0.399268 0.539432 0.952772 -0.212445
C22   C     C_R   0.321678 0.500072 0.881953 0.614494
C23   C     C_R   0.288103 0.395195 0.911038 0.606795
C24   C     C_R   0.459900 0.510885 0.131827 0.703104
C25   C     C_R   0.493955 0.615659 0.105219 0.236308
C26   C     C_R   0.498525 0.681951 0.002200 -0.148501
C27   C     C_R   0.449774 0.644173 0.925114 0.092364
C28   C     C_R   0.554173 0.784494 0.974882 -0.107100
C29   C     C_R   0.562927 0.849131 0.873563 0.642479
C30   C     C_R   0.462774 0.710307 0.823722 -0.089006
H5    H     H_    0.435452 0.682794 0.764594 0.262225
H6    H     H_    0.249649 0.190714 0.982947 0.223323
H7    H     H_    0.330125 0.072139 0.155279 0.205963
H8    H     H_    0.594905 0.815027 0.031865 0.227959
N1    N     N_R   0.585360 0.204570 0.560800 -0.264995
N2    N     N_R   0.414550 0.795430 0.439160 -0.244237
C31   C     C_R   0.733743 0.295137 0.649920 -0.177699
C32   C     C_R   0.689482 0.206810 0.633515 0.034769
C33   C     C_R   0.515285 0.284578 0.507309 0.901558
C34   C     C_R   0.547160 0.373166 0.528150 -0.117059
C35   C     C_R   0.667479 0.381035 0.593437 -0.059123
C36   C     C_R   0.469778 0.455834 0.483457 -0.057462
C37   C     C_R   0.521196 0.547063 0.498154 -0.028607
C38   C     C_R   0.650159 0.557300 0.547210 -0.057955
C39   C     C_R   0.721258 0.475358 0.598364 0.338126
C40   C     C_R   0.341654 0.450744 0.428398 0.678791
C41   C     C_R   0.278894 0.538419 0.372283 0.244339
C42   C     C_R   0.332928 0.629285 0.385291 -0.067462
C43   C     C_R   0.445115 0.628820 0.458674 -0.093556
C44   C     C_R   0.275626 0.719678 0.330063 -0.099538
C45   C     C_R   0.321980 0.803103 0.355743 0.059333
C46   C     C_R   0.473443 0.708213 0.493673 0.524872
H9    H     H_    0.280320 0.873053 0.311200 0.186516
H10   H     H_    0.819999 0.295709 0.706054 0.224260
H11   H     H_    0.741914 0.141504 0.675195 0.188076
H12   H     H_    0.699330 0.630844 0.543432 0.233657
H13   H     H_    0.196455 0.726997 0.266718 0.207513
N3    N     N_R   0.173152 0.951912 0.683509 0.096232
O9    O     O_R   0.247035 0.884445 0.750351 -0.267758
O10   O     O_R   0.169466 0.031155 0.699580 -0.396828
F1    F     F_    0.211690 0.360486 0.841690 -0.573554
F2    F     F_    0.618368 0.947160 0.851449 -0.623324
N4    N     N_R   0.524602 0.653257 0.183779 0.138480
O11   O     O_R   0.468362 0.727550 0.173480 -0.343925
O12   O     O_R   0.596680 0.605772 0.270523 -0.272178
F3    F     F_    0.569958 0.330215 0.234168 -0.557190
N5    N     N_R   0.067129 0.022469 0.306718 0.155253
O13   O     O_R   0.102763 0.971810 0.266757 -0.363119
O14   O     O_R   0.045440 0.115815 0.248472 -0.184337
F4    F     F_    0.265593 0.561656 0.787729 -0.553924
F5    F     F_    0.443848 0.450085 0.229755 -0.548501
N6    N     N_R   0.851410 0.491842 0.649232 0.142722
O15   O     O_R   0.878239 0.549958 0.698729 -0.193461
O16   O     O_R   0.946281 0.464880 0.630827 -0.240369
N7    N     N_R   0.541598 0.687123 0.595687 0.096123
O17   O     O_R   0.506166 0.602812 0.670190 -0.350691
O18   O     O_R   0.652442 0.739394 0.611811 -0.228282
N8    N     N_R   0.153876 0.530305 0.310716 0.162351
O19   O     O_R   0.055915 0.559268 0.322913 -0.273070
O20   O     O_R   0.133390 0.480059 0.253833 -0.180633
F6    F     F_    0.425192 0.281166 0.426559 -0.521023
N9    N     N_R   0.810374 0.008103 0.308394 0.175089
O21   O     O_R   0.804605 0.969479 0.243389 -0.220450
O22   O     O_R   0.727076 0.069328 0.287319 -0.350693
F7    F     F_    0.268724 0.360151 0.438017 -0.548624
F8    F     F_    0.836783 0.858840 0.450378 -0.566280
F9    F     F_    0.093228 0.832314 0.614658 -0.521393
F10   F     F_    0.876054 0.840552 0.636082 -0.488898
F11   F     F_    0.139991 0.188101 0.377049 -0.478431
N10   N     N_R   0.891615 0.198564 0.374969 0.241862
O23   O     O_R   0.910771 0.222153 0.283582 -0.137285
O24   O     O_R   0.831190 0.258234 0.387609 -0.234751

loop_
_geom_bond_atom_site_label_1
_geom_bond_atom_site_label_2
_geom_bond_distance
_ccdc_geom_bond_type
C35   C39   1.407260 A    
C33   F6    1.350857 S    
N2    C45   1.357816 A    
C21   C22   1.420224 A    
C40   F7    1.355167 S    
N10   O24   1.302356 A    
N5    O13   1.299830 A    
Cu1   Cu2   2.709495 S    
C5    N5    1.477124 S    
C33   C34   1.421447 A    
Cu1   O7    1.974946 S    
C15   C16   1.394213 A    
C25   N4    1.437915 S    
C22   C23   1.394324 A    
C8    H2    1.107746 S    
C24   C25   1.398093 A    
O7    C4    1.302588 A    
N6    O16   1.301460 A    
C11   H4    1.112815 S    
C11   F10   1.382817 S    
C5    H1    1.114721 S    
C15   C19   1.404881 A    
C36   C37   1.423449 A    
C5    C6    1.564851 S    
C20   C21   1.415185 A    
C44   H13   1.081678 S    
O5    C3    1.310175 A    
C42   C44   1.406418 A    
C32   H11   1.081938 S    
C8    F11   1.382685 S    
C8    C9    1.566101 S    
C45   H9    1.075983 S    
N9    O22   1.300184 A    
C3    C14   1.476287 S    
N7    O18   1.296609 A    
C31   C35   1.407971 A    
C41   N8    1.437576 S    
C26   C28   1.407490 A    
C23   F1    1.358925 S    
C43   C46   1.424359 A    
C20   C24   1.414406 A    
C13   C16   1.401349 A    
O3    Cu1   1.973032 S    
N10   O23   1.299854 A    
N5    O14   1.298529 A    
C37   C43   1.430264 A    
C46   N7    1.432386 S    
N4    O12   1.301225 A    
C7    N3    1.476270 S    
C5    C9    1.578185 S    
C34   C36   1.443516 A    
C24   F5    1.358601 S    
C13   C17   1.402153 A    
C7    C11   1.554108 S    
C16   H7    1.083005 S    
C17   F3    1.359871 S    
C12   H3    1.116570 S    
N3    O10   1.301700 A    
C25   C26   1.409104 A    
N6    O15   1.301440 A    
C38   H12   1.077873 S    
C38   C39   1.390911 A    
N4    O11   1.301254 A    
C14   C30   1.397732 A    
C19   C23   1.398387 A    
C31   C32   1.387203 A    
C40   C41   1.406746 A    
O1    C1    1.307164 A    
C7    F9    1.393126 S    
C18   C20   1.419637 A    
C42   C43   1.407139 A    
C17   C18   1.408238 A    
Cu2   O8    1.973033 S    
N1    C32   1.352065 A    
N9    O21   1.302124 A    
N8    O20   1.301372 A    
C6    N9    1.477785 S    
C28   H8    1.081590 S    
N2    C46   1.377973 A    
O3    C2    1.301664 A    
C26   C27   1.421770 A    
O8    C4    1.299351 A    
C27   C30   1.406103 A    
C10   C12   1.580347 S    
C28   C29   1.391876 A    
C30   H5    1.072581 S    
C29   F2    1.357686 S    
Cu1   O5    1.920767 S    
C34   C35   1.425036 A    
O1    Cu1   1.927558 S    
O2    Cu2   1.920767 S    
Cu1   N2    2.035550 S    
N3    O9    1.300958 A    
O6    C3    1.303068 A    
O4    Cu2   1.974946 S    
C2    C9    1.484313 S    
C14   C29   1.404339 A    
C6    C10   1.588643 S    
C15   H6    1.083292 S    
C44   C45   1.396036 A    
C4    C10   1.489251 S    
C1    C13   1.471873 S    
C8    C12   1.552405 S    
C39   N6    1.438714 S    
C18   C19   1.415990 A    
C37   C38   1.405545 A    
O4    C2    1.299123 A    
C22   F4    1.357049 S    
N1    C33   1.364538 A    
N8    O19   1.301378 A    
O2    C1    1.304320 A    
C7    C9    1.575462 S    
C31   H10   1.081574 S    
C41   C42   1.411177 A    
C21   C27   1.422047 A    
C6    F8    1.391726 S    
C36   C40   1.420304 A    
Cu2   O6    1.927558 S    
C10   C11   1.568340 S    
C12   N10   1.474092 S    
N7    O17   1.301578 A    
Cu2   N1    2.035196 S    
