data_mof_unit_58366.cif
_audit_creation_date              2012-12-11T15:56:59-0500
_audit_creation_method            fapswitch 2.2
_symmetry_space_group_name_H-M    P1
_symmetry_Int_Tables_number       1
_space_group_crystal_system       triclinic
_cell_length_a                    17.40742
_cell_length_b                    24.359318
_cell_length_c                    14.943856
_cell_angle_alpha                 90.107613
_cell_angle_beta                  126.054982
_cell_angle_gamma                 89.918197
_cell_volume                      5122.90089275

loop_
_atom_site_label
_atom_site_type_symbol
_atom_type_description
_atom_site_fract_x
_atom_site_fract_y
_atom_site_fract_z
_atom_type_partial_charge
C1    C     C_R   0.308073 0.123583 0.907255 -0.132683
C2    C     C_R   0.555346 0.152943 0.909003 -0.124658
C3    C     C_R   0.813702 0.361192 0.000452 0.019430
C4    C     C_R   0.571302 0.000602 0.371125 0.089465
C5    C     C_R   0.070071 0.500444 0.370504 0.086221
C6    C     C_R   0.190793 0.999563 0.636954 0.039342
C7    C     C_R   0.690417 0.500297 0.637478 0.038850
C8    C     C_R   0.521120 0.046021 0.753646 -0.143127
C9    C     C_R   0.521706 0.954059 0.753959 -0.128732
C10   C     C_R   0.021638 0.545958 0.754210 -0.141071
C11   C     C_R   0.021919 0.454041 0.754254 -0.139134
C12   C     C_R   0.769277 0.954039 0.246459 -0.141345
C13   C     C_R   0.056694 0.347248 0.909006 -0.133923
C14   C     C_R   0.769042 0.046309 0.247141 -0.126510
C15   C     C_R   0.269089 0.453642 0.247280 -0.129094
C16   C     C_R   0.269265 0.545900 0.246543 -0.137174
C17   C     C_3   0.942682 0.240893 0.158214 0.311554
C18   C     C_3   0.997883 0.187905 0.181070 -0.971434
C19   C     C_3   0.942050 0.767008 0.157962 0.308032
C20   C     C_3   0.042480 0.744985 0.238424 -0.964155
C21   C     C_3   0.443198 0.733018 0.158808 0.315124
C22   C     C_3   0.543255 0.755438 0.239819 -0.972825
C23   C     C_3   0.441839 0.267392 0.153569 0.306649
C24   C     C_R   0.056566 0.652651 0.909005 -0.123419
C25   C     C_3   0.541772 0.244773 0.234371 -0.964385
C26   C     C_3   0.769963 0.051395 0.795021 0.359554
C27   C     C_3   0.851920 0.091923 0.857881 -0.985228
C28   C     C_3   0.739776 0.886074 0.766060 0.260711
C29   C     C_3   0.834071 0.880800 0.879714 -0.935558
C30   C     C_3   0.284531 0.550149 0.779429 0.404732
C31   C     C_3   0.349963 0.596764 0.796043 -1.051823
C32   C     C_3   0.240145 0.386588 0.766265 0.259985
C33   C     C_3   0.334172 0.381686 0.880281 -0.934822
C34   C     C_R   0.552041 0.000099 0.728223 0.103670
C35   C     C_R   0.052716 0.500028 0.728915 0.133172
C36   C     C_R   0.824125 0.000333 0.270370 0.026997
C37   C     C_R   0.324121 0.499572 0.270464 0.028261
C38   C     C_R   0.615292 0.184573 0.001167 0.053167
C39   C     C_R   0.615914 0.815448 0.001184 0.057871
C40   C     C_R   0.117345 0.684080 0.001282 0.051464
C41   C     C_R   0.308538 0.875746 0.907055 -0.133523
C42   C     C_R   0.117266 0.315840 0.001361 0.059178
C43   C     C_3   0.032630 0.949582 0.487639 -0.169259
C44   C     C_3   0.021360 0.037116 0.514505 -0.157226
C45   C     C_3   0.521182 0.462377 0.514267 -0.155804
C46   C     C_3   0.531982 0.550135 0.489049 -0.168212
C47   C     C_3   0.954620 0.987468 0.470801 -0.133604
C48   C     C_3   0.454119 0.511903 0.471284 -0.134879
C49   C     C_3   0.925441 0.000548 0.354214 0.188917
C50   C     C_3   0.425316 0.499369 0.354592 0.187876
C51   C     C_3   0.002562 0.962584 0.369881 -0.159421
C52   C     C_R   0.808373 0.624056 0.907116 -0.134066
C53   C     C_3   0.991742 0.050379 0.397322 -0.168237
C54   C     C_3   0.491904 0.449661 0.396950 -0.166449
C55   C     C_3   0.502279 0.537684 0.371191 -0.160288
C56   C     C_3   0.071481 0.012526 0.415463 -0.144026
C57   C     C_3   0.571485 0.487868 0.416004 -0.147115
C58   C     C_R   0.401373 0.877384 0.092635 -0.013992
C59   C     C_R   0.401112 0.122156 0.092747 -0.015518
C60   C     C_R   0.902729 0.375729 0.092999 -0.067252
C61   C     C_R   0.901180 0.622500 0.092636 -0.014729
C62   C     C_3   0.099016 0.999330 0.531111 0.187325
C63   C     C_R   0.809220 0.374717 0.907072 -0.125827
C64   C     C_3   0.598663 0.500506 0.531750 0.189237
C65   C     C_3   0.262645 0.817353 0.109376 -0.419918
C66   C     C_3   0.264360 0.183226 0.111320 -0.423769
C67   C     C_3   0.764098 0.316395 0.110125 -0.417355
C68   C     C_3   0.762079 0.682335 0.109551 -0.421417
C69   C     C_3   0.710787 0.266582 0.110886 -0.407695
C70   C     C_3   0.709135 0.732549 0.110332 -0.410184
C71   C     C_3   0.210272 0.766993 0.110252 -0.409701
C72   C     C_3   0.212842 0.234065 0.112477 -0.405504
C73   C     C_3   0.793282 0.261371 0.983846 0.494205
C74   C     C_R   0.647179 0.152433 0.092582 -0.139547
C75   C     C_3   0.796000 0.736803 0.988482 0.489429
C76   C     C_3   0.297293 0.762782 0.988700 0.481534
C77   C     C_3   0.295117 0.236259 0.985997 0.490747
C78   C     C_3   0.150079 0.822333 0.903808 -0.496366
C79   C     C_3   0.149229 0.176300 0.906182 -0.501144
C80   C     C_3   0.649928 0.322997 0.905422 -0.487263
C81   C     C_3   0.649309 0.676960 0.903991 -0.495809
C82   C     C_3   0.257345 0.817624 0.001804 0.250751
C83   C     C_3   0.256881 0.181716 0.002316 0.254750
C84   C     C_3   0.757568 0.316722 0.001676 0.218120
C85   C     C_R   0.647520 0.847636 0.092581 -0.140479
C86   C     C_3   0.756609 0.681931 0.001856 0.251772
C87   C     C_3   0.663544 0.233700 0.001189 0.334535
C88   C     C_3   0.663801 0.765833 0.001581 0.353136
C89   C     C_3   0.165120 0.733584 0.001485 0.350776
C90   C     C_3   0.164915 0.266096 0.001975 0.354295
C91   C     C_3   0.740342 0.212463 0.988006 -0.558043
C92   C     C_3   0.742406 0.786290 0.991281 -0.597607
C93   C     C_3   0.243776 0.713138 0.990959 -0.587337
C94   C     C_3   0.241569 0.286037 0.987885 -0.598948
C95   C     C_3   0.594564 0.273148 0.904017 -0.399958
C96   C     C_R   0.148377 0.652155 0.092720 -0.139351
C97   C     C_3   0.594727 0.727095 0.903003 -0.396848
C98   C     C_3   0.095801 0.772201 0.902957 -0.401370
C99   C     C_3   0.094926 0.226467 0.905757 -0.396619
C100  C     C_3   0.608500 0.056184 0.634385 0.449915
C101  C     C_3   0.621296 0.948186 0.643824 0.459450
C102  C     C_3   0.114770 0.554484 0.639664 0.490331
C103  C     C_3   0.120310 0.447812 0.643543 0.472293
C104  C     C_R   0.552457 0.045832 0.306167 -0.175434
C105  C     C_R   0.552140 0.954820 0.306578 -0.173787
C106  C     C_R   0.051813 0.545772 0.305973 -0.178285
C107  C     C_R   0.148139 0.347832 0.092711 -0.147203
C108  C     C_R   0.051318 0.454701 0.306119 -0.167146
C109  C     C_3   0.621736 0.054770 0.541115 -0.558459
C110  C     C_3   0.634779 0.952324 0.550585 -0.562981
C111  C     C_3   0.121850 0.554426 0.540902 -0.588297
C112  C     C_3   0.132270 0.451373 0.548877 -0.573652
C113  C     C_3   0.464756 0.995798 0.529922 -0.595503
C114  C     C_3   0.965198 0.498102 0.530602 -0.613626
C115  C     C_3   0.566287 0.000167 0.640521 0.094803
C116  C     C_3   0.066991 0.500108 0.641055 0.105177
C117  C     C_3   0.575836 0.001157 0.472588 0.304923
C118  C     C_R   0.555923 0.847078 0.908967 -0.136381
C119  C     C_3   0.075021 0.500978 0.472168 0.317321
C120  C     C_3   0.470863 0.996748 0.432257 -0.397672
C121  C     C_3   0.970391 0.497609 0.432454 -0.392745
C122  C     C_R   0.239750 0.953803 0.696959 -0.145475
C123  C     C_R   0.239924 0.045676 0.695940 -0.156705
C124  C     C_R   0.739655 0.454209 0.696307 -0.156932
C125  C     C_R   0.739560 0.546117 0.697162 -0.146222
C126  C     C_R   0.311692 0.136271 0.000513 0.003345
C127  C     C_R   0.312205 0.862951 0.000190 0.003546
C128  C     C_R   0.811870 0.636741 0.000230 0.004376
H1    H     H_    0.251659 0.132471 0.821942 0.082968
H2    H     H_    0.973123 0.091505 0.357861 0.106792
H3    H     H_    0.689481 0.835065 0.178248 0.085915
H4    H     H_    0.190552 0.664829 0.178398 0.085830
H5    H     H_    0.189796 0.335177 0.178316 0.083813
H6    H     H_    0.513630 0.834227 0.823384 0.078850
H7    H     H_    0.512932 0.165770 0.823462 0.079981
H8    H     H_    0.014657 0.334297 0.823485 0.078160
H9    H     H_    0.014093 0.665529 0.823512 0.078382
H10   H     H_    0.905221 0.977254 0.492462 0.111045
H11   H     H_    0.404471 0.521703 0.492847 0.111495
H12   H     H_    0.897433 0.235472 0.186875 0.071910
H13   H     H_    0.473532 0.408678 0.356734 0.099267
H14   H     H_    0.994372 0.273927 0.209363 0.093554
H15   H     H_    0.047852 0.192836 0.158570 0.260879
H16   H     H_    0.038965 0.177496 0.270348 0.209376
H17   H     H_    0.948447 0.153645 0.131909 0.255815
H18   H     H_    0.904347 0.761911 0.196541 0.080084
H19   H     H_    0.947470 0.811467 0.145835 0.098728
H20   H     H_    0.081830 0.747539 0.201288 0.260575
H21   H     H_    0.080592 0.769559 0.315891 0.210270
H22   H     H_    0.040658 0.701574 0.259239 0.243747
H23   H     H_    0.449327 0.688569 0.147062 0.096541
H24   H     H_    0.491724 0.568211 0.309795 0.104576
H25   H     H_    0.404951 0.737983 0.196770 0.077895
H26   H     H_    0.583056 0.753202 0.203195 0.261967
H27   H     H_    0.540710 0.798781 0.260669 0.243239
H28   H     H_    0.581391 0.730914 0.317221 0.209239
H29   H     H_    0.404340 0.263505 0.192564 0.080126
H30   H     H_    0.448043 0.311578 0.140329 0.100201
H31   H     H_    0.580538 0.245260 0.196411 0.261321
H32   H     H_    0.581054 0.270275 0.310613 0.210529
H33   H     H_    0.538957 0.201997 0.257493 0.243204
H34   H     H_    0.781632 0.025986 0.742377 0.118615
H35   H     H_    0.122512 0.022697 0.396331 0.108724
H36   H     H_    0.772041 0.025236 0.857163 0.162867
H37   H     H_    0.844315 0.117519 0.913884 0.276492
H38   H     H_    0.920397 0.069344 0.908152 0.218459
H39   H     H_    0.852585 0.119087 0.798725 0.262078
H40   H     H_    0.750452 0.872827 0.702788 0.092764
H41   H     H_    0.687535 0.858350 0.762967 0.075215
H42   H     H_    0.825464 0.893297 0.944881 0.258740
H43   H     H_    0.858918 0.837537 0.894312 0.227292
H44   H     H_    0.888262 0.907443 0.884825 0.251050
H45   H     H_    0.281803 0.519200 0.723504 0.106350
H46   H     H_    0.622761 0.478124 0.396967 0.107048
H47   H     H_    0.316906 0.529630 0.860504 0.143504
H48   H     H_    0.358577 0.626462 0.857874 0.278715
H49   H     H_    0.420850 0.580111 0.826400 0.224247
H50   H     H_    0.319783 0.618501 0.716638 0.263070
H51   H     H_    0.251439 0.373394 0.703482 0.089134
H52   H     H_    0.188057 0.358625 0.762923 0.074413
H53   H     H_    0.324926 0.394110 0.944971 0.260764
H54   H     H_    0.359566 0.338526 0.895354 0.227357
H55   H     H_    0.388245 0.408564 0.885656 0.247428
H56   H     H_    0.336458 0.816712 0.185402 0.148258
H57   H     H_    0.338684 0.184255 0.186315 0.149705
H58   H     H_    0.837889 0.315454 0.186025 0.128497
H59   H     H_    0.835948 0.683285 0.185455 0.149121
H60   H     H_    0.229636 0.855453 0.113832 0.165382
H61   H     H_    0.252517 0.866592 0.821733 0.085463
H62   H     H_    0.231950 0.145485 0.117806 0.166469
H63   H     H_    0.732230 0.354762 0.115596 0.169835
H64   H     H_    0.729609 0.644140 0.114303 0.165208
H65   H     H_    0.154070 0.780605 0.119066 0.168011
H66   H     H_    0.158552 0.221415 0.125056 0.166158
H67   H     H_    0.655632 0.280795 0.121022 0.167727
H68   H     H_    0.652978 0.718783 0.118999 0.168274
H69   H     H_    0.762154 0.240840 0.183702 0.139154
H70   H     H_    0.760610 0.757941 0.183880 0.139548
H71   H     H_    0.261995 0.741716 0.183762 0.138945
H72   H     H_    0.752311 0.633188 0.821847 0.083649
H73   H     H_    0.265661 0.260098 0.184073 0.137907
H74   H     H_    0.788128 0.182846 0.054596 0.176853
H75   H     H_    0.788369 0.816337 0.057783 0.154141
H76   H     H_    0.289872 0.683188 0.057486 0.153320
H77   H     H_    0.287918 0.316906 0.052258 0.155573
H78   H     H_    0.139319 0.824051 0.822873 0.151734
H79   H     H_    0.137067 0.173930 0.824497 0.149674
H80   H     H_    0.637720 0.325458 0.823739 0.149656
H81   H     H_    0.638416 0.675032 0.822987 0.150002
H82   H     H_    0.430343 0.871679 0.178436 0.068791
H83   H     H_    0.753077 0.365706 0.821667 0.082769
H84   H     H_    0.430060 0.127725 0.178590 0.068793
H85   H     H_    0.932827 0.369076 0.178935 0.064052
H86   H     H_    0.930075 0.628287 0.178431 0.069488
H87   H     H_    0.119561 0.860727 0.911398 0.186228
H88   H     H_    0.119958 0.137977 0.915731 0.188583
H89   H     H_    0.621371 0.361545 0.915583 0.185263
H90   H     H_    0.619100 0.638580 0.911860 0.188050
H91   H     H_    0.037783 0.786002 0.908582 0.175180
H92   H     H_    0.038758 0.212735 0.914615 0.184511
H93   H     H_    0.537546 0.287331 0.911126 0.175539
H94   H     H_    0.050116 0.908249 0.526113 0.102472
H95   H     H_    0.536700 0.713287 0.908494 0.181650
H96   H     H_    0.559808 0.252011 0.822960 0.148524
H97   H     H_    0.561321 0.748598 0.822641 0.144524
H98   H     H_    0.062410 0.750622 0.822561 0.148715
H99   H     H_    0.059119 0.247232 0.824312 0.144133
H100  H     H_    0.769025 0.262632 0.896234 0.063492
H101  H     H_    0.774978 0.736164 0.902158 0.046622
H102  H     H_    0.276661 0.763402 0.902555 0.059015
H103  H     H_    0.273161 0.234770 0.899315 0.045759
H104  H     H_    0.706378 0.188636 0.909535 0.168632
H105  H     H_    0.030489 0.067436 0.575690 0.107050
H106  H     H_    0.709399 0.809706 0.912891 0.154781
H107  H     H_    0.211153 0.689570 0.912414 0.171573
H108  H     H_    0.206695 0.308328 0.908013 0.153770
H109  H     H_    0.550022 0.086532 0.603359 0.073104
H110  H     H_    0.574323 0.911975 0.623864 0.008867
H111  H     H_    0.062022 0.587520 0.616989 0.054629
H112  H     H_    0.073227 0.411859 0.624839 -0.001832
H113  H     H_    0.697440 0.057377 0.572725 0.169778
H114  H     H_    0.711106 0.957859 0.585734 0.175040
H115  H     H_    0.195096 0.558606 0.564911 0.169879
H116  H     H_    0.530395 0.431746 0.574852 0.106339
H117  H     H_    0.208315 0.455302 0.581980 0.171875
H118  H     H_    0.586645 0.091829 0.489188 0.143725
H119  H     H_    0.612104 0.912659 0.505351 0.128840
H120  H     H_    0.083077 0.591146 0.489539 0.143961
H121  H     H_    0.106783 0.411997 0.502731 0.127205
H122  H     H_    0.418561 0.030186 0.521337 0.185512
H123  H     H_    0.428638 0.957317 0.526629 0.188259
H124  H     H_    0.922383 0.534136 0.523394 0.187854
H125  H     H_    0.926180 0.460889 0.526717 0.190810
H126  H     H_    0.567120 0.088300 0.331591 0.093240
H127  H     H_    0.549182 0.591317 0.528326 0.101408
H128  H     H_    0.565085 0.912423 0.332495 0.089405
H129  H     H_    0.066377 0.588204 0.331788 0.094110
H130  H     H_    0.064353 0.412304 0.331980 0.085865
H131  H     H_    0.428933 0.032179 0.377817 0.167531
H132  H     H_    0.437591 0.958653 0.382509 0.168778
H133  H     H_    0.928690 0.532856 0.377166 0.168113
H134  H     H_    0.936498 0.459307 0.383772 0.167838
H135  H     H_    0.225852 0.911794 0.667955 0.087040
H136  H     H_    0.225321 0.087521 0.666108 0.090710
H137  H     H_    0.724940 0.412316 0.666537 0.092902
H138  H     H_    0.992063 0.932375 0.307861 0.104587
H139  H     H_    0.725595 0.588064 0.668016 0.085558
H140  H     H_    0.527433 0.088561 0.738996 0.113978
H141  H     H_    0.528528 0.911578 0.739106 0.086873
H142  H     H_    0.028203 0.588481 0.739842 0.104119
H143  H     H_    0.028678 0.411548 0.739505 0.087582
H144  H     H_    0.792937 0.911840 0.262242 0.095875
H145  H     H_    0.791988 0.088616 0.263092 0.092589
H146  H     H_    0.292167 0.411354 0.263526 0.090327
H147  H     H_    0.292949 0.588079 0.262518 0.095290
H148  H     H_    0.689036 0.165086 0.178259 0.086560
N1    N     N_R   0.392450 0.103580 0.942190 -0.035702
N2    N     N_R   0.525490 0.971610 0.207550 -0.042661
N3    N     N_R   0.025490 0.528390 0.207550 -0.042098
N4    N     N_R   0.025490 0.471610 0.207550 -0.039738
N5    N     N_R   0.317450 0.971190 0.792000 -0.037522
N6    N     N_R   0.317450 0.028810 0.792000 -0.036984
N7    N     N_R   0.817450 0.471190 0.792000 -0.036872
N8    N     N_R   0.817450 0.528810 0.792000 -0.037334
N9    N     N_R   0.473900 0.028390 0.792280 -0.046542
N10   N     N_R   0.473900 0.971610 0.792280 -0.044916
N11   N     N_R   0.973900 0.528390 0.792280 -0.047168
N12   N     N_R   0.392450 0.896420 0.942190 -0.035822
N13   N     N_R   0.973900 0.471610 0.792280 -0.045208
N14   N     N_R   0.682310 0.971180 0.208170 -0.038513
N15   N     N_R   0.682310 0.028820 0.208170 -0.039216
N16   N     N_R   0.182310 0.471180 0.208170 -0.039306
N17   N     N_R   0.182310 0.528820 0.208170 -0.038904
N18   N     N_R   0.606470 0.103570 0.057210 -0.035597
N19   N     N_R   0.606470 0.896430 0.057210 -0.034897
N20   N     N_R   0.106470 0.603570 0.057210 -0.034394
N21   N     N_R   0.106470 0.396430 0.057210 -0.034968
N22   N     N_R   0.549740 0.896000 0.943240 -0.034750
N23   N     N_R   0.892450 0.603580 0.942190 -0.036576
N24   N     N_R   0.549740 0.104000 0.943240 -0.035728
N25   N     N_R   0.049740 0.396000 0.943240 -0.033570
N26   N     N_R   0.049740 0.604000 0.943240 -0.034557
N27   N     N_R   0.892450 0.396420 0.942190 -0.035118
N28   N     N_R   0.450490 0.896000 0.057360 -0.037604
N29   N     N_R   0.450490 0.104000 0.057360 -0.037240
N30   N     N_R   0.950490 0.396000 0.057360 -0.038218
N31   N     N_R   0.950490 0.604000 0.057360 -0.037944
N32   N     N_R   0.525490 0.028390 0.207550 -0.042761
Ni1   Ni    Ni4+2 0.433780 0.065390 0.868430 0.208481
Ni2   Ni    Ni4+2 0.433780 0.934610 0.868430 0.210380
Ni3   Ni    Ni4+2 0.933780 0.565390 0.868430 0.210120
Ni4   Ni    Ni4+2 0.933780 0.434610 0.868430 0.211822
Ni5   Ni    Ni4+2 0.565800 0.934190 0.131570 0.212623
Ni6   Ni    Ni4+2 0.565800 0.065810 0.131570 0.213084
Ni7   Ni    Ni4+2 0.065800 0.434190 0.131570 0.208995
Ni8   Ni    Ni4+2 0.065800 0.565810 0.131570 0.213890
O1    O     O_3   0.893938 0.255099 0.045149 -0.631020
O2    O     O_3   0.897651 0.739605 0.055236 -0.634011
O3    O     O_3   0.398986 0.760168 0.055984 -0.631589
O4    O     O_3   0.396679 0.239336 0.051412 -0.633963
O5    O     O_3   0.683851 0.080937 0.735311 -0.653685
O6    O     O_3   0.708874 0.941242 0.749176 -0.667217
O7    O     O_3   0.195762 0.572007 0.745139 -0.646145
O8    O     O_3   0.208556 0.441623 0.748668 -0.651333

loop_
_geom_bond_atom_site_label_1
_geom_bond_atom_site_label_2
_ccdc_geom_bond_type
C81   H81   S    
C87   C91   S    
C97   H97   S    
C19   C20   S    
N16   Ni7   S    
N2    Ni5   S    
C59   C126  A    
C5    C119  S    
C52   N23   A    
C79   C99   S    
C1    H1    S    
C69   H69   S    
C72   H66   S    
N19   Ni5   S    
C23   H30   S    
C15   N16   A    
C20   H21   S    
C75   H101  S    
C44   C53   S    
C66   C72   S    
C68   H59   S    
C111  H120  S    
C49   C51   S    
C46   C55   S    
C25   H31   S    
N11   N13   A    
C81   C86   S    
C31   H48   S    
N13   Ni4   S    
C48   C50   S    
C100  C109  S    
C100  O5    S    
C102  C111  S    
C100  C115  S    
C16   H147  S    
C13   C42   A    
N3    Ni8   S    
C46   C48   S    
C21   O3    S    
C86   C128  S    
C74   N18   A    
C43   H94   S    
N5    Ni2   S    
N21   Ni7   S    
N7    Ni4   S    
C101  C110  S    
C120  H132  S    
N29   Ni6   S    
C97   H95   S    
C103  C112  S    
C1    N1    A    
C112  C119  S    
C113  C120  S    
C110  H114  S    
C75   C86   S    
C125  N8    A    
C95   H93   S    
C92   H75   S    
C27   H37   S    
C55   C57   S    
C76   H102  S    
C9    C34   A    
C101  C115  S    
C56   C62   S    
C39   C85   A    
C19   O2    S    
C46   H127  S    
C111  H115  S    
C73   O1    S    
C39   C118  A    
C41   H61   S    
C11   C35   A    
C103  C116  S    
C32   C33   S    
N1    Ni1   S    
C37   C50   S    
N23   N31   A    
C65   C82   S    
N9    Ni1   S    
C49   C53   S    
C4    C104  A    
C122  N5    A    
N17   Ni8   S    
C28   H40   S    
C54   H13   S    
C99   H92   S    
C33   H54   S    
C21   H25   S    
C32   H52   S    
C43   C47   S    
N22   Ni2   S    
C113  C115  S    
C110  H119  S    
C41   C127  A    
C78   C98   S    
C85   H3    S    
C112  H121  S    
N20   N26   A    
C102  H111  S    
C18   H15   S    
C14   C36   A    
C79   H79   S    
C12   N14   A    
C77   C94   S    
C69   H67   S    
C111  C119  S    
C15   C37   A    
C26   O5    S    
C25   H33   S    
C103  H112  S    
C87   C95   S    
N26   Ni3   S    
N14   Ni5   S    
C20   H20   S    
C10   C35   A    
C52   H72   S    
C40   C89   S    
C118  H6    S    
C70   H70   S    
C125  H139  S    
C105  N2    A    
C6    C123  A    
N8    Ni3   S    
C61   N31   A    
C22   H27   S    
C119  C121  S    
C112  H117  S    
C77   H103  S    
C19   H18   S    
C103  O8    S    
C118  N22   A    
C31   H50   S    
C1    C126  A    
C76   C82   S    
C80   H89   S    
C34   C115  S    
C77   O4    S    
C42   C90   S    
C121  H134  S    
C72   C90   S    
C2    C38   A    
C123  H136  S    
C50   C55   S    
C17   C18   S    
C8    C34   A    
C29   H43   S    
C80   C95   S    
C79   H88   S    
C80   H80   S    
C4    C117  S    
N6    Ni1   S    
C90   C99   S    
C59   N29   A    
C38   C74   A    
C53   C56   S    
C9    H141  S    
C17   O1    S    
C11   H143  S    
C88   C97   S    
C63   H83   S    
C78   H87   S    
C45   C54   S    
C114  C116  S    
C24   H9    S    
C45   C64   S    
C2    H7    S    
C113  H123  S    
C89   C98   S    
C32   O8    S    
C44   H105  S    
C66   H62   S    
C47   H10   S    
C26   H36   S    
C20   H22   S    
C21   H23   S    
C89   C93   S    
C91   H74   S    
C70   H68   S    
N7    N8    A    
N21   N25   A    
C106  N3    A    
C21   C22   S    
C99   H99   S    
C54   C57   S    
C28   O6    S    
N20   Ni8   S    
C80   C84   S    
C18   H17   S    
N1    N29   A    
C52   C128  A    
C109  C117  S    
N28   Ni5   S    
C76   O3    S    
N10   Ni2   S    
C26   C27   S    
C50   C54   S    
N30   Ni7   S    
C28   C29   S    
C30   C31   S    
C122  H135  S    
C71   H65   S    
C85   N19   A    
C124  H137  S    
N14   N15   A    
C66   C83   S    
C114  C121  S    
N24   Ni1   S    
N25   Ni4   S    
C106  H129  S    
N3    N4    A    
C42   C107  A    
C69   C87   S    
C16   C37   A    
C24   N26   A    
C3    C60   A    
C65   H60   S    
C98   H91   S    
C39   C88   S    
C40   C96   A    
C110  C117  S    
C90   C94   S    
N27   N30   A    
C5    C106  A    
C107  N21   A    
C117  C120  S    
C26   H34   S    
C19   H19   S    
C78   H78   S    
N9    N10   A    
C76   C93   S    
C109  H113  S    
C30   O7    S    
C114  H124  S    
C25   H32   S    
C35   C116  S    
C7    C125  A    
C45   H116  S    
N32   Ni6   S    
C8    N9    A    
C33   H53   S    
C30   H47   S    
C75   O2    S    
N2    N32   A    
C45   C48   S    
C114  H125  S    
C23   O4    S    
C12   H144  S    
C2    N24   A    
C123  N6    A    
C73   H100  S    
C71   H71   S    
C3    C63   A    
C120  H131  S    
C16   N17   A    
C38   C87   S    
C102  O7    S    
C6    C62   S    
C18   H16   S    
C107  H5    S    
C79   C83   S    
C43   C51   S    
C61   C128  A    
C27   H38   S    
C60   N30   A    
C57   H46   S    
C28   H41   S    
C11   N13   A    
C101  O6    S    
C10   H142  S    
C66   H57   S    
C3    C84   S    
C68   H64   S    
C17   H14   S    
C105  H128  S    
C36   C49   S    
C43   C62   S    
N27   Ni4   S    
C5    C108  A    
C63   N27   A    
C68   C86   S    
C108  H130  S    
C7    C124  A    
C8    H140  S    
C70   C88   S    
C55   H24   S    
C47   C49   S    
C22   H28   S    
C93   H107  S    
C56   H35   S    
C104  N32   A    
C9    N10   A    
C31   H49   S    
N15   Ni6   S    
N16   N17   A    
C67   H63   S    
C77   C83   S    
C51   H138  S    
C23   H29   S    
C104  H126  S    
C51   C56   S    
C92   H106  S    
C93   H76   S    
C78   C82   S    
C121  H133  S    
N18   Ni6   S    
C88   C92   S    
C33   H55   S    
C32   H51   S    
C29   H42   S    
C12   C36   A    
C41   N12   A    
C73   C84   S    
C67   H58   S    
C96   H4    S    
C58   C127  A    
C13   N25   A    
N12   N28   A    
C94   H77   S    
N12   Ni2   S    
N19   N22   A    
C58   H82   S    
C7    C64   S    
C73   C91   S    
C44   C62   S    
N5    N6    A    
C65   C71   S    
C113  H122  S    
C46   C64   S    
C67   C69   S    
C15   H146  S    
C60   H85   S    
C96   N20   A    
N18   N24   A    
C71   C89   S    
C100  H109  S    
C75   C92   S    
N23   Ni3   S    
C109  H118  S    
C13   H8    S    
C61   H86   S    
C6    C122  A    
C14   N15   A    
C59   H84   S    
C57   C64   S    
C22   H26   S    
C124  N7    A    
C30   H45   S    
C48   H11   S    
C101  H110  S    
C10   N11   A    
C44   C47   S    
C53   H2    S    
C4    C105  A    
C95   H96   S    
C91   H104  S    
C14   H145  S    
C94   H108  S    
C81   C97   S    
N4    Ni7   S    
C81   H90   S    
C74   H148  S    
C24   C40   A    
C17   H12   S    
C23   C25   S    
C29   H44   S    
C58   N28   A    
C82   C127  S    
C102  C116  S    
C67   C84   S    
C68   C70   S    
N31   Ni8   S    
C83   C126  S    
N11   Ni3   S    
C108  N4    A    
C65   H56   S    
C27   H39   S    
C72   H73   S    
C98   H98   S    
