data_mof_unit_66284.cif
_audit_creation_date              2012-12-10T19:04:24-0500
_audit_creation_method            fapswitch 2.2
_symmetry_space_group_name_H-M    P1
_symmetry_Int_Tables_number       1
_space_group_crystal_system       triclinic
_cell_length_a                    10.676809
_cell_length_b                    13.052955
_cell_length_c                    13.632521
_cell_angle_alpha                 85.688519
_cell_angle_beta                  90.069307
_cell_angle_gamma                 92.86937
_cell_volume                      1892.12346481

loop_
_atom_site_label
_atom_site_type_symbol
_atom_type_description
_atom_site_fract_x
_atom_site_fract_y
_atom_site_fract_z
_atom_type_partial_charge
C1    C     C_R   0.498429 0.481158 0.685102 0.947371
C2    C     C_1   0.495861 0.465865 0.788126 -0.113246
C3    C     C_2   0.461867 0.032285 0.474005 0.336261
C4    C     C_R   0.742465 0.499434 0.499318 0.910566
C5    C     C_2   0.537940 0.967710 0.526015 0.327812
C6    C     C_1   0.526665 0.854768 0.519188 0.129180
C7    C     C_1   0.473219 0.145231 0.480811 0.135216
C8    C     C_R   0.501240 0.518813 0.314894 0.855464
C9    C     C_R   0.257380 0.500743 0.497166 0.928097
C10   C     C_3   0.920098 0.388667 0.484020 -0.467395
C11   C     C_3   0.063371 0.388613 0.484356 0.222248
C12   C     C_3   0.120757 0.501239 0.495442 -0.192166
C13   C     C_3   0.929450 0.573633 0.412192 -0.328257
C14   C     C_3   0.928486 0.532644 0.597725 -0.522631
C15   C     C_3   0.878178 0.498529 0.498235 -0.123597
C16   C     C_3   0.074047 0.574720 0.406527 0.728789
C17   C     C_3   0.073944 0.537775 0.596791 0.682420
C18   C     C_1   0.501458 0.533610 0.211834 -0.127124
C19   C     C_2   0.500472 0.541388 0.020792 -0.192495
C20   C     C_2   0.492213 0.451896 0.979811 0.492499
C21   C     C_1   0.493759 0.455878 0.875440 -0.103389
C22   C     C_1   0.501225 0.541447 0.124470 0.117510
Cl1   Cl    Cl    0.127693 0.456096 0.699180 -0.602146
H1    H     H_    0.880021 0.361458 0.414609 0.210742
H2    H     H_    0.201690 0.687767 0.376516 0.364484
H3    H     H_    0.478378 0.303000 0.991612 0.349364
H4    H     H_    0.674663 0.952054 0.618481 0.342058
H5    H     H_    0.325106 0.047957 0.381580 0.353699
H6    H     H_    0.060272 0.360814 0.343105 0.385030
H7    H     H_    0.199616 0.537115 0.311688 0.318454
H8    H     H_    0.898898 0.652594 0.422040 0.198461
H9    H     H_    0.507593 0.614437 0.976702 0.127264
H10   H     H_    0.882861 0.333800 0.544888 0.207694
H11   H     H_    0.090228 0.338252 0.549592 0.208973
H12   H     H_    0.887268 0.550900 0.341734 0.181285
H13   H     H_    0.891388 0.608017 0.613011 0.192509
H14   H     H_    0.891177 0.477163 0.657964 0.213010
H15   H     H_    0.069742 0.690022 0.580957 0.363172
N1    N     N_1   0.479840 0.234530 0.484780 -0.076164
N2    N     N_1   0.520150 0.765470 0.515220 -0.081859
O1    O     O_R   0.492620 0.402510 0.634760 -0.602544
O2    O     O_3   0.120707 0.677348 0.412338 -0.753723
O3    O     O_3   0.483340 0.359406 0.036588 -0.724596
O4    O     O_3   0.627930 0.009245 0.586495 -0.775768
O5    O     O_3   0.371847 0.990759 0.413544 -0.759639
O6    O     O_3   0.111083 0.342984 0.402195 -0.710661
O7    O     O_3   0.107100 0.540676 0.314446 -0.767787
O8    O     O_R   0.505570 0.572960 0.644530 -0.597598
O9    O     O_R   0.678730 0.414780 0.495130 -0.619535
O10   O     O_R   0.691680 0.585220 0.504900 -0.632647
O11   O     O_R   0.494430 0.427040 0.355470 -0.583583
O12   O     O_R   0.507380 0.597490 0.365240 -0.624294
O13   O     O_R   0.308320 0.414780 0.495100 -0.568165
O14   O     O_R   0.321270 0.585220 0.504870 -0.569529
O15   O     O_3   0.123410 0.637552 0.612967 -0.671338
Zn1   Zn    Zn3+2 0.491360 0.386190 0.493470 1.041764
Zn2   Zn    Zn3+2 0.508640 0.613810 0.506530 1.020480

loop_
_geom_bond_atom_site_label_1
_geom_bond_atom_site_label_2
_ccdc_geom_bond_type
C12   C17   S    
H2    O2    S    
H6    O6    S    
C11   C12   S    
C1    O8    A    
C9    O14   A    
O9    Zn1   S    
C8    O12   A    
N1    Zn1   S    
C14   C17   S    
C4    O9    A    
C20   O3    S    
C4    C15   S    
O8    Zn2   S    
O1    Zn1   S    
C14   H14   S    
C8    O11   A    
C17   Cl1   S    
C2    C21   T    
C19   H9    S    
C16   O7    S    
C1    O1    A    
C5    O4    S    
C13   H8    S    
H3    O3    S    
C13   H12   S    
C10   H10   S    
C3    C7    S    
C10   C15   S    
C13   C15   S    
C14   H13   S    
C5    C6    S    
C9    C12   S    
C6    N2    T    
H5    O5    S    
O13   Zn1   S    
C9    O13   A    
C10   C11   S    
C19   C20   D    
C16   O2    S    
H7    O7    S    
C19   C22   S    
C20   C21   S    
C1    C2    S    
O12   Zn2   S    
C13   C16   S    
C17   O15   S    
C14   C15   S    
C11   O6    S    
C7    N1    T    
N2    Zn2   S    
C10   H1    S    
C18   C22   T    
O10   Zn2   S    
H4    O4    S    
C3    O5    S    
C11   H11   S    
C8    C18   S    
H15   O15   S    
C12   C16   S    
C4    O10   A    
C3    C5    D    
O14   Zn2   S    
O11   Zn1   S    
