data_mof_unit_38899.cif
_audit_creation_date              2013-03-05T15:42:07-0500
_audit_creation_method            fapswitch 2.2
_symmetry_space_group_name_H-M    P1
_symmetry_Int_Tables_number       1
_space_group_crystal_system       triclinic
_cell_length_a                    21.981865
_cell_length_b                    7.195978
_cell_length_c                    14.858226
_cell_angle_alpha                 90.319353
_cell_angle_beta                  106.838944
_cell_angle_gamma                 90.102848
_cell_volume                      2249.46630739

loop_
_atom_site_label
_atom_site_type_symbol
_atom_site_description
_atom_site_fract_x
_atom_site_fract_y
_atom_site_fract_z
_atom_type_partial_charge
O1    O     O_R   0.584770 0.505770 0.002090 -0.555399
O2    O     O_R   0.415230 0.005770 0.997910 -0.556627
O3    O     O_R   0.467060 0.173340 0.861950 -0.558651
O4    O     O_R   0.532940 0.673340 0.138050 -0.558031
C1    C     C_R   0.456824 0.343989 0.824836 0.804643
C2    C     C_R   0.543142 0.845311 0.175105 0.805179
O5    O     O_R   0.587510 0.175890 0.993210 -0.564050
O6    O     O_R   0.412490 0.675890 0.006790 -0.561296
O7    O     O_R   0.536540 0.008150 0.130100 -0.555060
O8    O     O_R   0.463460 0.508150 0.869900 -0.555111
C3    C     C_R   0.613450 0.345096 0.000361 0.839620
C4    C     C_R   0.386515 0.844799 0.000086 0.836171
O9    O     O_3   0.483140 0.340040 0.044760 -0.283245
O10   O     O_3   0.516860 0.840040 0.955240 -0.283482
V1    V     V_3+5 0.503130 0.064190 0.991700 1.136520
V2    V     V_3+5 0.496870 0.564190 0.008300 1.137671
C5    C     C_2   0.220679 0.737816 0.033302 0.334574
C6    C     C_2   0.784325 0.220718 0.994684 0.334984
C7    C     C_2   0.180797 0.881793 0.997578 -0.199672
C8    C     C_2   0.819251 0.380711 0.003543 -0.228027
H1    H     H_    0.196342 0.993322 0.960645 0.077623
H2    H     H_    0.798771 0.511729 0.015670 0.107257
C9    C     C_2   0.285267 0.719464 0.019237 -0.137912
C10   C     C_2   0.717730 0.214077 0.001025 -0.132085
C11   C     C_2   0.319762 0.862766 0.002576 -0.263632
C12   C     C_2   0.680374 0.362217 0.999521 -0.264292
H3    H     H_    0.307230 0.583223 0.030735 0.146890
H4    H     H_    0.697754 0.076474 0.003005 0.142323
H5    H     H_    0.300489 0.002253 0.996737 0.103360
H6    H     H_    0.697974 0.501644 0.995488 0.102435
C13   C     C_R   0.929202 0.881972 0.722262 -0.159371
C14   C     C_R   0.070749 0.388534 0.277878 -0.157772
C15   C     C_R   0.569891 0.856694 0.278597 -0.061327
C16   C     C_R   0.430076 0.350069 0.721245 -0.061415
C17   C     C_R   0.936678 0.818713 0.565517 -0.087073
C18   C     C_R   0.063018 0.396119 0.437217 -0.086777
C19   C     C_R   0.966845 0.842763 0.661971 0.315257
C20   C     C_R   0.032904 0.401842 0.340097 0.305414
C21   C     C_R   0.863226 0.896982 0.685491 -0.171446
C22   C     C_R   0.136749 0.369718 0.313561 -0.132019
C23   C     C_R   0.832159 0.870912 0.588576 0.048330
C24   C     C_R   0.167741 0.369872 0.411398 0.044482
C25   C     C_R   0.870384 0.832557 0.528767 0.006377
C26   C     C_R   0.129340 0.382117 0.472908 0.005541
C27   C     C_R   0.764543 0.879703 0.549527 0.043662
C28   C     C_R   0.235410 0.360009 0.449969 0.041420
C29   C     C_R   0.736329 0.854367 0.450319 0.025026
C30   C     C_R   0.263506 0.362096 0.550014 0.026503
C31   C     C_R   0.776836 0.818007 0.393853 -0.075526
C32   C     C_R   0.222743 0.371707 0.607960 -0.077870
C33   C     C_R   0.842328 0.807015 0.432522 -0.029132
C34   C     C_R   0.157209 0.381382 0.569981 -0.027346
C35   C     C_R   0.724154 0.910751 0.606668 -0.095079
C36   C     C_R   0.275952 0.350186 0.391744 -0.076543
C37   C     C_R   0.658892 0.916778 0.568928 -0.102592
C38   C     C_R   0.341257 0.343082 0.429245 -0.101533
C39   C     C_R   0.630839 0.894250 0.472762 0.055664
C40   C     C_R   0.369230 0.345889 0.526103 0.052702
C41   C     C_R   0.668522 0.864335 0.411482 0.046178
C42   C     C_R   0.331407 0.355247 0.588359 0.046788
C43   C     C_R   0.564776 0.901967 0.438349 -0.095975
C44   C     C_R   0.435357 0.339777 0.560240 -0.095630
C45   C     C_R   0.532924 0.883006 0.342493 0.039718
C46   C     C_R   0.467146 0.342394 0.656608 0.041232
C47   C     C_R   0.636601 0.847077 0.314050 -0.123617
C48   C     C_R   0.363312 0.357182 0.686187 -0.122826
H7    H     H_    0.871379 0.777409 0.386365 0.134279
H8    H     H_    0.127971 0.389403 0.617432 0.131185
H9    H     H_    0.662347 0.828897 0.262983 0.061342
H10   H     H_    0.337584 0.362526 0.737802 0.058467
H11   H     H_    0.629960 0.939854 0.615956 0.072156
H12   H     H_    0.370311 0.335885 0.381463 0.076588
H13   H     H_    0.965161 0.789588 0.518519 0.127503
H14   H     H_    0.034564 0.406329 0.485679 0.133920
H15   H     H_    0.837649 0.926678 0.735446 0.124690
H16   H     H_    0.162365 0.356522 0.262199 0.130888
H17   H     H_    0.759467 0.794714 0.319140 0.092279
H18   H     H_    0.239840 0.372858 0.683542 0.084259
H19   H     H_    0.741005 0.929364 0.681660 0.103689
H20   H     H_    0.259126 0.348490 0.316199 0.119780
H21   H     H_    0.537220 0.923701 0.487532 0.058544
H22   H     H_    0.463022 0.333155 0.510413 0.058694
O11   O     O_R   0.036450 0.233070 0.130130 -0.570311
O12   O     O_R   0.963550 0.733070 0.869870 -0.567190
O13   O     O_R   0.912470 0.560570 0.006790 -0.520231
O14   O     O_R   0.087530 0.060570 0.993210 -0.544180
C49   C     C_R   0.886660 0.390884 0.001724 0.883320
C50   C     C_R   0.113554 0.891758 0.999764 0.908466
O15   O     O_R   0.032920 0.562940 0.138050 -0.522037
O16   O     O_R   0.967080 0.062940 0.861950 -0.544333
O17   O     O_R   0.084790 0.730500 0.002090 -0.524190
O18   O     O_R   0.915210 0.230500 0.997910 -0.520415
C51   C     C_R   0.043755 0.394763 0.175087 0.921226
C52   C     C_R   0.956095 0.893551 0.824988 0.919393
O19   O     O_3   0.016820 0.396170 0.955260 -0.290438
O20   O     O_3   0.983180 0.896170 0.044740 -0.264112
V3    V     V_3+5 0.996880 0.672090 0.008300 1.293032
V4    V     V_3+5 0.003120 0.172090 0.991700 1.265754
N1    N     N_R   0.202410 0.597144 0.089038 0.087805
O21   O     O_R   0.216966 0.423997 0.080461 -0.391658
O22   O     O_R   0.181886 0.645722 0.159567 -0.405876
N2    N     N_R   0.810357 0.045532 0.978034 0.101534
O23   O     O_R   0.812085 0.908393 0.035382 -0.357039
O24   O     O_R   0.818449 0.011492 0.896229 -0.408743
N3    N     N_R   0.035033 0.826780 0.696715 0.079339
O25   O     O_R   0.067091 0.917825 0.771318 -0.399517
O26   O     O_R   0.066133 0.734240 0.648867 -0.381679
N4    N     N_R   0.964572 0.418102 0.307119 0.075560
O27   O     O_R   0.936394 0.491634 0.226035 -0.379640
O28   O     O_R   0.930149 0.371836 0.361569 -0.371439
C53   C     C_3   0.460831 0.893366 0.320605 -0.237039
C54   C     C_3   0.420812 0.873189 0.219476 -0.415496
H23   H     H_    0.430662 0.990784 0.177983 0.147583
H24   H     H_    0.429421 0.736349 0.190886 0.141376
H25   H     H_    0.369751 0.879425 0.216353 0.138271
H26   H     H_    0.445275 0.782877 0.361286 0.120326
H27   H     H_    0.448526 0.029110 0.346961 0.115449
C55   C     C_3   0.539315 0.337922 0.678269 -0.235771
C56   C     C_3   0.579284 0.346093 0.779931 -0.421326
H28   H     H_    0.568867 0.474719 0.814054 0.140652
H29   H     H_    0.571251 0.218801 0.816421 0.150224
H30   H     H_    0.630360 0.349566 0.782932 0.127869
H31   H     H_    0.552545 0.209076 0.646784 0.112072
H32   H     H_    0.554054 0.457376 0.642053 0.119044

loop_
_geom_bond_atom_site_label_1
_geom_bond_atom_site_label_2
_geom_bond_distance
_ccdc_geom_bond_type
C40   C44   1.394779 A    
C20   N4    1.443899 S    
C53   C54   1.511302 S    
O1    C3    1.321593 A    
O2    C4    1.323197 A    
C16   C48   1.409065 A    
C2    O7    1.339561 A    
C54   H24   1.108366 S    
O19   V4    1.756809 S    
O18   V4    2.006300 S    
C21   H15   1.073834 S    
C29   C31   1.412941 A    
C48   H10   1.077257 S    
O5    C3    1.334148 A    
N3    O26   1.301615 A    
C5    C9    1.499709 S    
C6    C10   1.494600 S    
O12   V3    2.024354 S    
C7    H1    1.083770 S    
C10   C12   1.343114 D    
C24   C28   1.432852 A    
O14   C50   1.335646 A    
C39   C41   1.413133 A    
C40   C42   1.413003 A    
O11   C51   1.324515 A    
C8    C49   1.491508 S    
C46   C55   1.525052 S    
N4    O27   1.300402 A    
C6    N2    1.434919 S    
C27   C29   1.434446 A    
C43   C45   1.398951 A    
C55   C56   1.512284 S    
C44   C46   1.399585 A    
C31   H17   1.076258 S    
C31   C33   1.389468 A    
O11   V4    2.018808 S    
C32   C34   1.388633 A    
C30   C42   1.436219 A    
C53   H26   1.112900 S    
C14   C20   1.414480 A    
C38   C40   1.391597 A    
C17   C25   1.404228 A    
C34   H8    1.084295 S    
O6    C4    1.335729 A    
C26   C34   1.394212 A    
C30   C32   1.412628 A    
C14   C51   1.470548 S    
C44   H22   1.086626 S    
C42   C48   1.419148 A    
O6    V2    2.017034 S    
C49   O18   1.323453 A    
O20   V3    1.752255 S    
O15   C51   1.325390 A    
C23   C25   1.415126 A    
C24   C26   1.414885 A    
C32   H18   1.076016 S    
C54   H23   1.107051 S    
O16   C52   1.326775 A    
C36   H20   1.075265 S    
C35   C37   1.381588 A    
C11   H5    1.084311 S    
C36   C38   1.382380 A    
O13   C49   1.338009 A    
C15   C47   1.409212 A    
C21   C23   1.414898 A    
C7    C50   1.489692 S    
O12   C52   1.323299 A    
O5    V1    2.014275 S    
C3    C12   1.479697 S    
C38   H12   1.084910 S    
C27   C35   1.412193 A    
C22   H16   1.075567 S    
O15   V3    2.023713 S    
O4    V2    2.014322 S    
C19   N3    1.442010 S    
N1    O21   1.301669 A    
C50   O17   1.325899 A    
C15   C45   1.429332 A    
C1    C16   1.480949 S    
C28   C36   1.412045 A    
C16   C46   1.429136 A    
O1    V2    2.006099 S    
C55   H32   1.112914 S    
O17   V3    2.005061 S    
N2    O24   1.300425 A    
O2    V1    2.004864 S    
C5    N1    1.439561 S    
C56   H29   1.106618 S    
C18   H14   1.084249 S    
O4    C2    1.343389 A    
N1    O22   1.301637 A    
C8    H2    1.081955 S    
C12   H6    1.082869 S    
C9    H3    1.085912 S    
C37   C39   1.390953 A    
C18   C26   1.403559 A    
C14   C22   1.400031 A    
O3    V1    2.023789 S    
C17   C19   1.403489 A    
C56   H30   1.110867 S    
C17   H13   1.084291 S    
C35   H19   1.075051 S    
C10   H4    1.086465 S    
O3    C1    1.341387 A    
C56   H28   1.108602 S    
N4    O28   1.301811 A    
C39   C43   1.394203 A    
C13   C52   1.470276 S    
N3    O25   1.300853 A    
C2    C15   1.480402 S    
C4    C11   1.484358 S    
C53   H27   1.112973 S    
C18   C20   1.403408 A    
O7    V1    2.016436 S    
C1    O8    1.341286 A    
C43   H21   1.086702 S    
C41   C47   1.418696 A    
C25   C33   1.394564 A    
C33   H7    1.084494 S    
C47   H9    1.077521 S    
C22   C24   1.415470 A    
C5    C7    1.365104 D    
C13   C21   1.398427 A    
C6    C8    1.367053 D    
C55   H31   1.112670 S    
C9    C11   1.344768 D    
C45   C53   1.524751 S    
N2    O23   1.300822 A    
O14   V4    2.017119 S    
O13   V3    2.014369 S    
C29   C41   1.436080 A    
C28   C30   1.434971 A    
C13   C19   1.412195 A    
O9    V2    1.757550 S    
C23   C27   1.432109 A    
O10   V1    1.752995 S    
O8    V2    2.011316 S    
O16   V4    2.014245 S    
C54   H25   1.110855 S    
C37   H11   1.084832 S    
