data_mof_unit_62249.cif
_audit_creation_date              2012-10-26T18:57:05-0400
_audit_creation_method            fapswitch 2.2
_symmetry_space_group_name_H-M    P1
_symmetry_Int_Tables_number       1
_space_group_crystal_system       triclinic
_cell_length_a                    23.576386
_cell_length_b                    15.874108
_cell_length_c                    14.622959
_cell_angle_alpha                 90.000653
_cell_angle_beta                  89.996286
_cell_angle_gamma                 90.0098
_cell_volume                      5472.70223308

loop_
_atom_site_label
_atom_site_type_symbol
_atom_type_description
_atom_site_fract_x
_atom_site_fract_y
_atom_site_fract_z
_atom_type_partial_charge
C1    C     C_R   0.500007 0.339393 0.499984 0.540097
C2    C     C_R   0.702635 0.510077 0.582420 0.320518
C3    C     C_R   0.238231 0.490023 0.418010 -0.028723
C4    C     C_R   0.761768 0.510031 0.581982 -0.028723
C5    C     C_R   0.208510 0.499974 0.500041 0.110265
C6    C     C_R   0.791488 0.500033 0.499958 0.110279
C7    C     C_3   0.546098 0.971992 0.544609 -0.094563
C8    C     C_3   0.453902 0.028008 0.455391 -0.094563
C9    C     C_3   0.547013 0.028024 0.457930 -0.094995
C10   C     C_3   0.452987 0.971976 0.542070 -0.094995
C11   C     C_1   0.500007 0.249692 0.499982 0.005365
C12   C     C_R   0.499993 0.660607 0.500016 0.540095
C13   C     C_1   0.499993 0.750308 0.500018 0.005364
C14   C     C_3   0.499088 0.028030 0.586669 -0.095573
C15   C     C_3   0.500911 0.971970 0.413331 -0.095573
C16   C     C_R   0.390559 0.499968 0.500024 0.584341
C17   C     C_R   0.609441 0.500032 0.499976 0.584352
C18   C     C_3   0.500003 0.082529 0.499990 0.043593
C19   C     C_3   0.499997 0.917471 0.500010 0.043593
C20   C     C_1   0.500006 0.174159 0.499983 -0.034006
C21   C     C_1   0.499994 0.825841 0.500017 -0.034006
C22   C     C_3   0.476664 0.572268 0.969262 -0.132474
C23   C     C_R   0.238232 0.509913 0.582070 -0.029985
C24   C     C_3   0.523336 0.427732 0.030738 -0.132477
C25   C     C_3   0.447461 0.505985 0.030780 0.421915
C26   C     C_3   0.552538 0.494015 0.969219 0.421913
C27   C     C_3   0.530500 0.566131 0.030744 -0.132140
C28   C     C_3   0.469499 0.433869 0.969256 -0.132141
C29   C     C_3   0.500439 0.499946 0.091615 -0.039049
C30   C     C_3   0.499561 0.500054 0.908385 -0.039048
C31   C     C_1   0.500142 0.499980 0.194189 0.234448
C32   C     C_1   0.499858 0.500020 0.805810 0.234449
C33   C     C_R   0.880742 0.565261 0.459172 0.414672
C34   C     C_R   0.761767 0.490043 0.417937 -0.029987
C35   C     C_R   0.119256 0.434743 0.540820 0.414668
C36   C     C_R   0.880709 0.434770 0.540756 0.414926
C37   C     C_R   0.119289 0.565241 0.459248 0.414922
C38   C     C_R   0.940197 0.433492 0.541781 0.030680
C39   C     C_R   0.059801 0.566517 0.458220 0.030683
C40   C     C_R   0.970070 0.500006 0.499990 -0.026505
C41   C     C_R   0.029928 0.500001 0.500009 -0.026505
C42   C     C_R   0.940230 0.566526 0.458180 0.030834
C43   C     C_R   0.059767 0.433480 0.541816 0.030836
C44   C     C_R   0.970379 0.367433 0.583235 -0.111577
C45   C     C_R   0.297366 0.509948 0.582499 0.314942
C46   C     C_R   0.029619 0.632575 0.416766 -0.111576
C47   C     C_R   0.029551 0.367427 0.583251 -0.111749
C48   C     C_R   0.970446 0.632579 0.416745 -0.111750
C49   C     C_R   0.702633 0.490005 0.417507 0.314945
C50   C     C_R   0.327805 0.499959 0.500035 0.004058
C51   C     C_R   0.672194 0.500042 0.499965 0.004067
C52   C     C_R   0.297364 0.489975 0.417573 0.320513
Cu1   Cu    Cu3+1 0.500010 0.500000 0.590220 1.122730
Cu2   Cu    Cu3+1 0.499990 0.500000 0.409780 1.122728
F1    F     F_    0.392462 0.512247 0.062842 -0.555697
F2    F     F_    0.607537 0.487753 0.937158 -0.555704
F3    F     F_    0.324415 0.520473 0.663652 -0.590601
F4    F     F_    0.675584 0.479424 0.336364 -0.590606
F5    F     F_    0.324409 0.479451 0.336411 -0.567058
F6    F     F_    0.675589 0.520652 0.663573 -0.567072
H1    H     H_    0.948409 0.315550 0.615791 0.177494
H2    H     H_    0.784679 0.481926 0.354350 0.181885
H3    H     H_    0.215319 0.481952 0.354419 0.184427
H4    H     H_    0.784680 0.518140 0.645567 0.184406
H5    H     H_    0.585607 0.052390 0.423394 0.133469
H6    H     H_    0.414394 0.947610 0.576606 0.133465
H7    H     H_    0.583941 0.947639 0.581228 0.134154
H8    H     H_    0.416059 0.052361 0.418772 0.134151
H9    H     H_    0.501660 0.947597 0.342184 0.130852
H10   H     H_    0.498340 0.052403 0.657816 0.130852
H11   H     H_    0.051588 0.684460 0.384212 0.177495
H12   H     H_    0.456736 0.631440 0.944710 0.154988
H13   H     H_    0.543263 0.368560 0.055290 0.154991
H14   H     H_    0.443714 0.379909 0.944697 0.155695
H15   H     H_    0.556286 0.620091 0.055302 0.155690
H16   H     H_    0.051494 0.315538 0.615819 0.177186
H17   H     H_    0.948504 0.684467 0.384176 0.177184
H18   H     H_    0.215320 0.517992 0.645663 0.181904
N1    N     N_R   0.852324 0.500019 0.499958 -0.394179
N2    N     N_R   0.147675 0.499988 0.500040 -0.394172
N3    N     N_1   0.499980 0.500000 0.274190 -0.155434
N4    N     N_1   0.500020 0.500000 0.725810 -0.155434
O1    O     O_R   0.500010 0.379080 0.576170 -0.502163
O2    O     O_2   0.148517 0.371019 0.579609 -0.475680
O3    O     O_2   0.851415 0.371058 0.579540 -0.473390
O4    O     O_2   0.148582 0.628958 0.420475 -0.473403
O5    O     O_R   0.499990 0.620920 0.423830 -0.502164
O6    O     O_R   0.500000 0.379080 0.423800 -0.494259
O7    O     O_R   0.500000 0.620920 0.576200 -0.494260
O8    O     O_R   0.417890 0.499980 0.576200 -0.446573
O9    O     O_R   0.582110 0.500020 0.423800 -0.446580
O10   O     O_R   0.417870 0.499970 0.423830 -0.437149
O11   O     O_R   0.582130 0.500030 0.576170 -0.437153
O12   O     O_2   0.851480 0.628979 0.420374 -0.475669

loop_
_geom_bond_atom_site_label_1
_geom_bond_atom_site_label_2
_ccdc_geom_bond_type
C38   C40   A    
C16   O8    A    
C23   C45   A    
C27   C29   S    
C14   H10   S    
C14   C18   S    
C17   O9    A    
C28   H14   S    
C33   O12   S    
C17   C51   S    
C39   C41   A    
Cu1   Cu2   S    
C25   C28   S    
Cu2   O10   S    
C45   F3    S    
C26   C27   S    
C33   C42   A    
C19   C21   S    
C24   C26   S    
C47   H16   S    
Cu2   O5    S    
C2    F6    S    
C24   H13   S    
C35   N2    A    
C34   H2    S    
C24   C29   S    
C15   C19   S    
C7    C14   S    
C49   C51   A    
C22   C25   S    
C1    C11   S    
C50   C52   A    
C35   C43   A    
C44   C47   A    
C1    O6    A    
C40   C42   A    
C41   C43   A    
C27   H15   S    
C22   H12   S    
C10   H6    S    
C25   C29   S    
C15   H9    S    
C37   N2    A    
C46   C48   A    
C11   C20   T    
Cu1   O11   S    
C24   C28   S    
C12   O7    A    
C4    C6    A    
C10   C14   S    
C33   N1    A    
C8    C18   S    
C49   F4    S    
C6    C34   A    
Cu1   N4    S    
C48   H17   S    
C2    C4    A    
C38   C44   A    
C52   F5    S    
C37   O4    S    
C5    C23   A    
C10   C19   S    
C3    C52   A    
C13   C21   T    
C42   C48   A    
C5    N2    S    
C46   H11   S    
C39   C46   A    
C8    C10   S    
C40   C41   A    
C8    H8    S    
C8    C15   S    
C7    C19   S    
C22   C27   S    
Cu1   O7    S    
C44   H1    S    
C17   O11   A    
C7    C9    S    
C34   C49   A    
C22   C30   S    
C12   O5    A    
C25   F1    S    
C16   C50   S    
C3    C5    A    
C36   N1    A    
C26   F2    S    
C35   O2    S    
C16   O10   A    
C3    H3    S    
C36   O3    S    
C1    O1    A    
C32   N4    T    
C4    H4    S    
C31   N3    T    
Cu1   O1    S    
Cu2   O6    S    
C28   C30   S    
C9    C15   S    
Cu2   O9    S    
C29   C31   S    
C30   C32   S    
C6    N1    S    
C45   C50   A    
C36   C38   A    
C18   C20   S    
C23   H18   S    
C9    H5    S    
C2    C51   A    
C7    H7    S    
C9    C18   S    
C12   C13   S    
C37   C39   A    
Cu1   O8    S    
C43   C47   A    
Cu2   N3    S    
C26   C30   S    
