data_mof_unit_23272.cif
_audit_creation_date              2012-12-10T19:00:13-0500
_audit_creation_method            fapswitch 2.2
_symmetry_space_group_name_H-M    P1
_symmetry_Int_Tables_number       1
_space_group_crystal_system       triclinic
_cell_length_a                    9.689294
_cell_length_b                    10.997403
_cell_length_c                    13.53053
_cell_angle_alpha                 93.545717
_cell_angle_beta                  72.354934
_cell_angle_gamma                 88.994347
_cell_volume                      1370.31288216

loop_
_atom_site_label
_atom_site_type_symbol
_atom_type_description
_atom_site_fract_x
_atom_site_fract_y
_atom_site_fract_z
_atom_type_partial_charge
C1    C     C_R   0.502201 0.736216 0.492609 0.894086
C2    C     C_R   0.433090 0.528678 0.983075 0.022142
C3    C     C_R   0.464752 0.485006 0.876831 -0.042286
C4    C     C_R   0.543524 0.511402 0.032978 -0.089004
C5    C     C_R   0.678674 0.449639 0.975392 -0.040572
C6    C     C_R   0.699184 0.402800 0.872115 0.201880
C7    C     C_R   0.579165 0.400232 0.834646 0.189145
C8    C     C_R   0.529135 0.557487 0.136068 0.393846
C9    C     C_R   0.762314 0.474596 0.127671 -0.329117
C10   C     C_R   0.372120 0.514215 0.817534 -0.067758
C11   C     C_R   0.374405 0.937447 0.527218 0.035458
C12   C     C_R   0.421011 0.501453 0.700730 0.826964
C13   C     C_R   0.503614 0.869209 0.487406 -0.249009
C14   C     C_R   0.633371 0.932329 0.469767 0.323795
C15   C     C_R   0.628512 0.056667 0.502953 0.284425
C16   C     C_R   0.499167 0.128225 0.520765 -0.233131
C17   C     C_R   0.372285 0.063173 0.547295 -0.005486
C18   C     C_3   0.229703 0.083395 0.532531 0.182430
C19   C     C_3   0.245488 0.950812 0.488334 0.512511
C20   C     C_R   0.966222 0.457600 0.413641 0.132154
C21   C     C_R   0.890853 0.562925 0.576973 0.257215
C22   C     C_R   0.038571 0.559806 0.578067 0.432730
C23   C     C_R   0.498855 0.262440 0.507042 0.791808
C24   C     C_R   0.112591 0.466242 0.411506 0.135208
C25   C     C_3   0.163270 0.353890 0.343504 -0.508017
C26   C     C_3   0.003424 0.332069 0.356301 0.413188
C27   C     C_R   0.577938 0.508547 0.301061 0.832984
C28   C     C_R   0.789861 0.435525 0.023625 0.258583
C29   C     C_R   0.624356 0.515293 0.187000 -0.136645
C30   C     C_R   0.236120 0.567385 0.870015 -0.192185
C31   C     C_R   0.193934 0.595592 0.976029 -0.239016
C32   C     C_R   0.288568 0.576749 0.034543 0.316826
Cu1   Cu    Cu3+1 0.359330 0.500020 0.500010 1.035432
Cu2   Cu    Cu3+1 0.640670 0.499980 0.499990 0.992367
H1    H     H_    0.845993 0.463369 0.164150 0.199879
H2    H     H_    0.223587 0.152428 0.479237 0.111842
H3    H     H_    0.231494 0.371829 0.264659 0.157623
H4    H     H_    0.218319 0.289469 0.379147 0.204562
H5    H     H_    0.158486 0.584191 0.830624 0.233936
H6    H     H_    0.083260 0.628452 0.013067 0.168184
N1    N     N_R   0.852320 0.499070 0.499340 -0.242653
N2    N     N_R   0.148230 0.499110 0.499340 -0.221938
O1    O     O_R   0.381190 0.680360 0.500000 -0.517297
O2    O     O_R   0.618780 0.680320 0.499990 -0.533204
O3    O     O_R   0.323230 0.500000 0.650990 -0.524402
O4    O     O_R   0.560820 0.499960 0.650980 -0.581031
O5    O     O_R   0.381220 0.319680 0.500010 -0.587204
O6    O     O_R   0.618810 0.319640 0.500000 -0.601478
O7    O     O_R   0.439180 0.500040 0.349020 -0.569603
O8    O     O_R   0.676770 0.500000 0.349010 -0.559052
Cl1   Cl    Cl    0.731047 0.083133 0.587641 -0.678253
Cl2   Cl    Cl    0.105407 0.109125 0.660158 -0.575395
Cl3   Cl    Cl    0.096515 0.861218 0.547577 -0.508358
N3    N     N_2   0.280753 0.935704 0.374983 -0.459091
H7    H     H_    0.274790 0.846977 0.347880 0.329180
C33   C     C_3   0.399700 0.998649 0.307239 -0.717830
H8    H     H_    0.390784 0.991806 0.227224 0.270394
H9    H     H_    0.505310 0.955708 0.304370 0.265873
H10   H     H_    0.396959 0.096799 0.331737 0.193814
N4    N     N_2   0.781019 0.621047 0.662939 -0.407264
H11   H     H_    0.779226 0.592624 0.734338 0.248130
C34   C     C_3   0.760355 0.751726 0.664360 -0.376530
H12   H     H_    0.808449 0.798329 0.720602 0.249061
H13   H     H_    0.642564 0.775756 0.688949 0.195111
H14   H     H_    0.810753 0.785296 0.586912 0.304650
Cl4   Cl    Cl    0.076213 0.641488 0.680870 -0.610313
N5    N     N_2   0.965661 0.321306 0.259049 -0.423469
H15   H     H_    0.049841 0.326738 0.191472 0.223451
C35   C     C_3   0.856593 0.236990 0.247524 -0.641017
H16   H     H_    0.802316 0.268380 0.192677 0.216678
H17   H     H_    0.770766 0.227810 0.321935 0.245736
H18   H     H_    0.908718 0.147344 0.212922 0.217490
N6    N     N_2   0.843064 0.379869 0.803132 -0.421641
H19   H     H_    0.912447 0.449425 0.804975 0.284354
C36   C     C_3   0.867376 0.319585 0.701508 -0.531499
H20   H     H_    0.982636 0.325802 0.655273 0.248883
H21   H     H_    0.802399 0.363227 0.658588 0.212513
H22   H     H_    0.840404 0.223143 0.710241 0.321526
N7    N     N_2   0.956270 0.233829 0.423492 -0.436073
H23   H     H_    0.852371 0.244012 0.470858 0.318122
C37   C     C_3   0.008552 0.110938 0.383439 -0.502154
H24   H     H_    0.117333 0.109661 0.324985 0.219196
H25   H     H_    0.932899 0.065851 0.348153 0.258478
H26   H     H_    0.012452 0.057068 0.448517 0.312395
N8    N     N_2   0.923817 0.370173 0.973180 -0.426444
H27   H     H_    0.010618 0.398859 0.996401 0.249945
C38   C     C_3   0.917253 0.238410 0.964098 -0.571170
H28   H     H_    0.964389 0.197341 0.020105 0.198641
H29   H     H_    0.982113 0.203778 0.884562 0.294707
H30   H     H_    0.804277 0.208243 0.978481 0.218936
Cl5   Cl    Cl    0.461858 0.707590 0.178660 -0.659442
N9    N     N_2   0.227725 0.580202 0.144574 -0.418868
H31   H     H_    0.183908 0.498595 0.167004 0.216319
C39   C     C_3   0.128855 0.681732 0.195733 -0.506489
H32   H     H_    0.119492 0.688898 0.279732 0.257550
H33   H     H_    0.018935 0.666758 0.188873 0.204791
H34   H     H_    0.169693 0.768831 0.162480 0.253400
N10   N     N_2   0.548475 0.292968 0.781690 -0.433687
H35   H     H_    0.591417 0.283184 0.702358 0.301006
C40   C     C_3   0.533560 0.182692 0.836491 -0.564081
H36   H     H_    0.490296 0.110441 0.794360 0.260337
H37   H     H_    0.456371 0.199547 0.916063 0.207660
H38   H     H_    0.640122 0.150458 0.841801 0.241045
Cl6   Cl    Cl    0.803312 0.859309 0.404090 -0.641422

loop_
_geom_bond_atom_site_label_1
_geom_bond_atom_site_label_2
_ccdc_geom_bond_type
C38   H28   S    
C7    N10   S    
C27   C29   S    
C24   N2    A    
N6    H19   S    
C4    C8    A    
C37   H24   S    
C18   Cl2   S    
C22   N2    A    
N8    H27   S    
C31   H6    S    
C11   C19   S    
C8    C29   A    
C2    C32   A    
C3    C7    A    
C5    C6    A    
Cu1   O7    S    
C15   C16   A    
Cu1   O3    S    
C33   H8    S    
N4    C34   S    
C18   C19   S    
C35   H17   S    
C22   Cl4   S    
C34   H13   S    
C25   H3    S    
C1    O1    A    
C20   C24   A    
C16   C17   A    
Cu2   O4    S    
C15   Cl1   S    
C27   O8    A    
C9    C29   A    
C19   Cl3   S    
C21   C22   A    
N6    C36   S    
C39   H32   S    
Cu2   N1    S    
C20   N1    A    
C40   H37   S    
C37   H25   S    
Cu1   Cu2   S    
N8    C38   S    
N3    C33   S    
Cu2   O8    S    
C23   O5    A    
N5    H15   S    
Cu1   O1    S    
Cu2   O2    S    
C24   C25   S    
C21   N4    S    
C12   O4    A    
N7    C37   S    
C12   O3    A    
C39   H34   S    
C25   C26   S    
C40   H38   S    
N4    H11   S    
N5    C35   S    
C35   H18   S    
C2    C4    A    
C36   H20   S    
C34   H12   S    
C25   H4    S    
C5    C28   A    
C10   C30   A    
C1    O2    A    
C14   Cl6   S    
C31   C32   A    
C30   C31   A    
N9    C39   S    
C17   C18   S    
C8    Cl5   S    
C39   H33   S    
N9    H31   S    
C36   H21   S    
C10   C12   S    
C21   N1    A    
C19   N3    S    
C16   C23   S    
N10   C40   S    
C38   H29   S    
Cu1   O5    S    
C1    C13   S    
Cu1   N2    S    
C37   H26   S    
C6    N6    S    
N3    H7    S    
C11   C17   A    
C23   O6    A    
C34   H14   S    
C4    C5    A    
C26   N5    S    
C6    C7    A    
C26   N7    S    
C33   H10   S    
C2    C3    A    
C3    C10   A    
C11   C13   A    
C32   N9    S    
C20   C26   S    
C40   H36   S    
C33   H9    S    
C30   H5    S    
C35   H16   S    
C36   H22   S    
N7    H23   S    
Cu2   O6    S    
N10   H35   S    
C38   H30   S    
C28   N8    S    
C9    H1    S    
C14   C15   A    
C13   C14   A    
C18   H2    S    
C27   O7    A    
C9    C28   A    
