data_mof_unit_16284.cif
_audit_creation_date              2013-03-05T15:56:36-0500
_audit_creation_method            fapswitch 2.2
_symmetry_space_group_name_H-M    P1
_symmetry_Int_Tables_number       1
_space_group_crystal_system       triclinic
_cell_length_a                    6.933046
_cell_length_b                    14.52093
_cell_length_c                    15.991917
_cell_angle_alpha                 90.507391
_cell_angle_beta                  90.046725
_cell_angle_gamma                 89.658008
_cell_volume                      1609.88238484

loop_
_atom_site_label
_atom_site_type_symbol
_atom_site_description
_atom_site_fract_x
_atom_site_fract_y
_atom_site_fract_z
_atom_type_partial_charge
O1    O     O_R   0.361600 0.167310 0.164620 -0.577459
O2    O     O_R   0.638400 0.832690 0.835380 -0.577476
O3    O     O_R   0.691080 0.157570 0.338750 -0.562993
O4    O     O_R   0.308920 0.842430 0.661250 -0.562927
O5    O     O_R   0.861410 0.336420 0.339360 -0.602202
O6    O     O_R   0.138590 0.663580 0.660640 -0.602192
C1    C     C_R   0.523110 0.134395 0.366754 0.994459
C2    C     C_R   0.476888 0.865614 0.633253 0.994437
O7    O     O_R   0.691320 0.156280 0.165240 -0.560714
O8    O     O_R   0.308680 0.843720 0.834760 -0.560750
O9    O     O_R   0.861640 0.335130 0.164600 -0.606331
O10   O     O_R   0.138360 0.664870 0.835400 -0.606334
C3    C     C_R   0.523262 0.133054 0.136747 0.995991
C4    C     C_R   0.476740 0.866946 0.863251 0.995957
O11   O     O_R   0.361370 0.168600 0.339370 -0.577669
O12   O     O_R   0.638630 0.831400 0.660630 -0.577658
O13   O     O_3   0.527990 0.310540 0.251980 -0.305038
O14   O     O_3   0.472010 0.689460 0.748020 -0.305034
V1    V     V_3+5 0.802830 0.240980 0.251990 1.259914
V2    V     V_3+5 0.197170 0.759020 0.748010 1.259917
O15   O     O_R   0.191360 0.346160 0.165220 -0.609162
O16   O     O_R   0.808640 0.653840 0.834780 -0.609163
C5    C     C_R   0.022067 0.368187 0.136048 0.915376
C6    C     C_R   0.977933 0.631812 0.863952 0.915368
O17   O     O_R   0.191130 0.347440 0.338740 -0.605482
O18   O     O_R   0.808870 0.652560 0.661260 -0.605477
C7    C     C_R   0.022110 0.369605 0.367657 0.909882
C8    C     C_R   0.977889 0.630395 0.632343 0.909893
V3    V     V_3+5 0.302840 0.262750 0.251990 1.207409
V4    V     V_3+5 0.697160 0.737250 0.748010 1.207410
O19   O     O_3   0.027820 0.193180 0.251990 -0.201535
O20   O     O_3   0.972180 0.806820 0.748010 -0.201516
C9    C     C_3   0.918942 0.420644 0.523627 -0.117226
C10   C     C_3   0.081058 0.579355 0.476374 -0.117243
C11   C     C_3   0.093410 0.467187 0.567162 -0.126672
C12   C     C_3   0.906590 0.532813 0.432838 -0.126689
H1    H     H_    0.170278 0.440485 0.622952 0.123847
H2    H     H_    0.829722 0.559515 0.377048 0.123840
H3    H     H_    0.852018 0.354778 0.542665 0.127922
H4    H     H_    0.147982 0.645221 0.457336 0.127902
C13   C     C_3   0.988563 0.560757 0.562081 -0.097774
C14   C     C_3   0.011437 0.439243 0.437919 -0.097763
C15   C     C_3   0.813877 0.515009 0.519326 -0.102912
C16   C     C_3   0.186123 0.484990 0.480674 -0.102901
H5    H     H_    0.660234 0.527662 0.535591 0.114996
H6    H     H_    0.339766 0.472337 0.464409 0.114993
C17   C     C_R   0.820793 0.525483 0.967121 -0.124193
C18   C     C_R   0.179207 0.474517 0.032879 -0.124199
H7    H     H_    0.680116 0.544079 0.942905 0.119467
H8    H     H_    0.319884 0.455921 0.057095 0.119467
C19   C     C_R   0.831528 0.462406 0.032803 -0.118912
C20   C     C_R   0.168472 0.537594 0.967197 -0.118907
H9    H     H_    0.698706 0.434236 0.056952 0.120926
H10   H     H_    0.301294 0.565764 0.943048 0.120927
C21   C     C_R   0.010887 0.436021 0.066670 -0.122425
C22   C     C_R   0.989113 0.563979 0.933330 -0.122416
C23   C     C_R   0.655201 0.994556 0.443488 0.391094
C24   C     C_R   0.344783 0.005468 0.556526 0.391052
C25   C     C_R   0.637557 0.930181 0.507801 -0.175525
C26   C     C_R   0.362445 0.069846 0.492215 -0.175417
H11   H     H_    0.744803 0.875862 0.512639 0.176791
H12   H     H_    0.255201 0.124166 0.487371 0.176849
C27   C     C_R   0.484524 0.934551 0.565119 -0.349661
C28   C     C_R   0.515466 0.065468 0.434894 -0.349688
C29   C     C_R   0.655342 0.993964 0.056453 0.389825
C30   C     C_R   0.344679 0.006041 0.943537 0.389826
C31   C     C_R   0.637902 0.930501 0.990292 -0.170974
C32   C     C_R   0.362109 0.069502 0.009701 -0.171005
H13   H     H_    0.745366 0.876362 0.984044 0.178930
H14   H     H_    0.254646 0.123642 0.015945 0.178899
C33   C     C_R   0.484748 0.935453 0.932973 -0.348813
C34   C     C_R   0.515262 0.064549 0.067022 -0.348816
N1    N     N_R   0.812719 0.984496 0.386265 0.240198
O21   O     O_R   0.960245 0.038934 0.393104 -0.371435
O22   O     O_R   0.831434 0.908200 0.343774 -0.353573
N2    N     N_R   0.187212 0.015520 0.613730 0.240228
O23   O     O_R   0.039892 0.960936 0.606970 -0.371362
O24   O     O_R   0.168069 0.091960 0.656003 -0.353661
N3    N     N_R   0.813027 0.983284 0.113446 0.240706
O25   O     O_R   0.832488 0.906334 0.153664 -0.349126
O26   O     O_R   0.960072 0.038112 0.108301 -0.369885
N4    N     N_R   0.187027 0.016725 0.886530 0.240661
O27   O     O_R   0.167761 0.093618 0.846212 -0.349173
O28   O     O_R   0.039887 0.961961 0.891707 -0.369907

loop_
_geom_bond_atom_site_label_1
_geom_bond_atom_site_label_2
_geom_bond_distance
_ccdc_geom_bond_type
C18   C21   1.407297 A    
C30   C32   1.402566 A    
C29   N3    1.431350 S    
O13   V3    1.712060 S    
C4    C33   1.488880 S    
C12   C14   1.539866 S    
O4    C2    1.295428 A    
V1    O19   1.703535 S    
C24   N2    1.431421 S    
C17   H7    1.082699 S    
O9    V1    2.007449 S    
C9    H3    1.110602 S    
C10   H4    1.110601 S    
C9    C14   1.540408 S    
C11   H1    1.110520 S    
N2    O24   1.300680 A    
O3    C1    1.295439 A    
C23   C25   1.401846 A    
O12   V4    2.003170 S    
C8    C13   1.506539 S    
C26   H12   1.083964 S    
N1    O21   1.300347 A    
C23   N1    1.431344 S    
O9    C5    1.298877 A    
O7    C3    1.296169 A    
O13   V1    2.151308 S    
O5    C7    1.296156 A    
O7    V1    2.003592 S    
O6    C8    1.296157 A    
O8    V2    2.003592 S    
C29   C31   1.402563 A    
O3    V1    2.008734 S    
O14   V4    1.712061 S    
O14   V2    2.151309 S    
C20   H10   1.082737 S    
C18   H8    1.082699 S    
C2    O12   1.300912 A    
C13   C15   1.541355 S    
C10   C13   1.540408 S    
C14   C16   1.541355 S    
O2    C4    1.300968 A    
C16   H6    1.110570 S    
O11   V3    2.003172 S    
O17   V3    1.999238 S    
C25   H11   1.083959 S    
C9    C15   1.550041 S    
C10   C16   1.550040 S    
N2    O23   1.300427 A    
O8    C4    1.296175 A    
N3    O26   1.300351 A    
C17   C19   1.401383 A    
C19   C21   1.408300 A    
O15   V3    2.001667 S    
C19   H9    1.082737 S    
C30   N4    1.431329 S    
C30   C33   1.416876 A    
C32   C34   1.404136 A    
O10   V2    2.007451 S    
O1    V3    1.999679 S    
C11   C16   1.550082 S    
C15   H5    1.110570 S    
O18   V4    1.999237 S    
N4    O28   1.300339 A    
O15   C5    1.301856 A    
O16   C6    1.301855 A    
O17   C7    1.297824 A    
N1    O22   1.300428 A    
C23   C28   1.417076 A    
V2    O20   1.703535 S    
C24   C27   1.417148 A    
O16   V4    2.001670 S    
C25   C27   1.403446 A    
C5    C21   1.491816 S    
O5    V1    2.002326 S    
C3    C34   1.488899 S    
C6    C22   1.491816 S    
C29   C34   1.416909 A    
O6    V2    2.002326 S    
O10   C6    1.298877 A    
O18   C8    1.297825 A    
C26   C28   1.403417 A    
O2    V4    1.999681 S    
C12   H2    1.110521 S    
V3    O19   2.163135 S    
V4    O20   2.163132 S    
C7    C14   1.506540 S    
C1    O11   1.300887 A    
C9    C11   1.550689 S    
C10   C12   1.550688 S    
C31   C33   1.404111 A    
C11   C13   1.539866 S    
C1    C28   1.487302 S    
C2    C27   1.487323 S    
N3    O25   1.300465 A    
O4    V2    2.008732 S    
C18   C20   1.401383 A    
O1    C3    1.300987 A    
C32   H14   1.083904 S    
N4    O27   1.300425 A    
C12   C15   1.550082 S    
C31   H13   1.083904 S    
C24   C26   1.401870 A    
C20   C22   1.408300 A    
C17   C22   1.407297 A    
