data_mof_unit_58270.cif
_audit_creation_date              2012-12-11T17:19:13-0500
_audit_creation_method            fapswitch 2.2
_symmetry_space_group_name_H-M    P1
_symmetry_Int_Tables_number       1
_space_group_crystal_system       triclinic
_cell_length_a                    14.81103
_cell_length_b                    7.260171
_cell_length_c                    13.327906
_cell_angle_alpha                 89.999844
_cell_angle_beta                  100.011318
_cell_angle_gamma                 90.000143
_cell_volume                      1411.33579289

loop_
_atom_site_label
_atom_site_type_symbol
_atom_type_description
_atom_site_fract_x
_atom_site_fract_y
_atom_site_fract_z
_atom_type_partial_charge
O1    O     O_R   0.648180 0.355050 0.151550 -0.527279
O2    O     O_R   0.351820 0.644950 0.848450 -0.527279
O3    O     O_R   0.851820 0.855050 0.348450 -0.527276
O4    O     O_R   0.148180 0.144950 0.651550 -0.527276
O5    O     O_R   0.835240 0.681980 0.154280 -0.526134
O6    O     O_R   0.164760 0.318020 0.845720 -0.526133
O7    O     O_R   0.664760 0.181980 0.345720 -0.526141
O8    O     O_R   0.335240 0.818020 0.654280 -0.526141
C1    C     C_R   0.862359 0.516416 0.131432 0.905304
C2    C     C_R   0.137641 0.483584 0.868568 0.905303
C3    C     C_R   0.637641 0.016415 0.368568 0.905307
C4    C     C_R   0.362359 0.983585 0.631432 0.905305
O9    O     O_R   0.647870 0.684600 0.139630 -0.524334
O10   O     O_R   0.352130 0.315400 0.860370 -0.524333
O11   O     O_R   0.852130 0.184600 0.360370 -0.524337
O12   O     O_R   0.147870 0.815400 0.639630 -0.524336
O13   O     O_R   0.663110 0.857440 0.333700 -0.538729
O14   O     O_R   0.336890 0.142560 0.666300 -0.538728
O15   O     O_R   0.836890 0.357440 0.166300 -0.538734
O16   O     O_R   0.163110 0.642560 0.833700 -0.538735
C5    C     C_R   0.614444 0.516108 0.113978 0.771455
C6    C     C_R   0.385556 0.483892 0.886022 0.771453
C7    C     C_R   0.885556 0.016108 0.386022 0.771456
C8    C     C_R   0.114444 0.983892 0.613978 0.771456
O17   O     O_3   0.755220 0.522230 0.313690 -0.378749
O18   O     O_3   0.244780 0.477770 0.686310 -0.378748
O19   O     O_3   0.744780 0.022230 0.186310 -0.378748
O20   O     O_3   0.255220 0.977770 0.813690 -0.378748
V1    V     V_3+5 0.749030 0.796100 0.238190 1.565125
V2    V     V_3+5 0.250970 0.203900 0.761810 1.565125
V3    V     V_3+5 0.750970 0.296100 0.261810 1.565114
V4    V     V_3+5 0.249030 0.703900 0.738190 1.565114
C9    C     C_1   0.966287 0.005432 0.466449 -0.135947
C10   C     C_1   0.033713 0.994568 0.533551 -0.135946
C11   C     C_1   0.533713 0.505432 0.033551 -0.135943
C12   C     C_1   0.466287 0.494568 0.966449 -0.135945
C13   C     C_R   0.557506 0.986902 0.717856 0.285915
C14   C     C_R   0.442494 0.013107 0.282145 0.285912
C15   C     C_R   0.942494 0.486881 0.782145 0.285916
C16   C     C_R   0.057507 0.513117 0.217855 0.285911
C17   C     C_R   0.650700 0.007192 0.760960 0.232546
C18   C     C_R   0.349299 0.992817 0.239040 0.232546
C19   C     C_R   0.849299 0.507175 0.739040 0.232552
C20   C     C_R   0.150702 0.492830 0.260960 0.232554
C21   C     C_R   0.717037 0.018390 0.697897 0.202643
C22   C     C_R   0.282963 0.981611 0.302103 0.202640
C23   C     C_R   0.782963 0.518391 0.802103 0.202634
C24   C     C_R   0.217038 0.481617 0.197897 0.202639
C25   C     C_R   0.690042 0.030364 0.591523 0.262174
C26   C     C_R   0.309958 0.969633 0.408476 0.262174
C27   C     C_R   0.809959 0.530374 0.908476 0.262168
C28   C     C_R   0.190042 0.469630 0.091524 0.262171
C29   C     C_R   0.595441 0.012679 0.544918 -0.101217
C30   C     C_R   0.404560 0.987321 0.455082 -0.101217
C31   C     C_R   0.904560 0.512681 0.955082 -0.101216
C32   C     C_R   0.095440 0.487320 0.044918 -0.101216
C33   C     C_R   0.527896 0.996118 0.609150 -0.101766
C34   C     C_R   0.472104 0.003885 0.390850 -0.101766
C35   C     C_R   0.972104 0.496111 0.890850 -0.101767
C36   C     C_R   0.027896 0.503888 0.109150 -0.101765
C37   C     C_R   0.567349 0.011359 0.436079 -0.072908
C38   C     C_R   0.432651 0.988641 0.563921 -0.072908
C39   C     C_R   0.932651 0.511362 0.063921 -0.072905
C40   C     C_R   0.067349 0.488638 0.936079 -0.072905
O21   O     O_3   0.674714 0.020357 0.865750 -0.645367
H1    H     H_    0.730145 0.098504 0.882622 0.310068
O22   O     O_3   0.325286 0.979658 0.134250 -0.645366
H2    H     H_    0.269856 0.901509 0.117376 0.310068
O23   O     O_3   0.825286 0.520327 0.634250 -0.645369
H3    H     H_    0.769858 0.598480 0.617374 0.310072
O24   O     O_3   0.174716 0.479681 0.365750 -0.645369
H4    H     H_    0.230146 0.401534 0.382627 0.310069
O25   O     O_3   0.494493 0.959262 0.781979 -0.645124
H5    H     H_    0.525237 0.924884 0.851423 0.334408
O26   O     O_3   0.505507 0.040756 0.218022 -0.645123
H6    H     H_    0.474761 0.075142 0.148580 0.334407
O27   O     O_3   0.005506 0.459220 0.718023 -0.645123
H7    H     H_    0.974759 0.424830 0.648582 0.334407
O28   O     O_3   0.994493 0.540769 0.281976 -0.645124
H8    H     H_    0.025239 0.575156 0.351419 0.334408
O29   O     O_3   0.190316 0.986413 0.262066 -0.652823
H9    H     H_    0.180895 0.057576 0.197654 0.298770
O30   O     O_3   0.809684 0.013585 0.737934 -0.652823
H10   H     H_    0.819104 0.942427 0.802348 0.298772
O31   O     O_3   0.309685 0.486420 0.237934 -0.652823
H11   H     H_    0.319106 0.557590 0.302343 0.298769
O32   O     O_3   0.690317 0.513594 0.762066 -0.652824
H12   H     H_    0.680894 0.442428 0.697655 0.298769
O33   O     O_3   0.756540 0.057986 0.532191 -0.656165
H13   H     H_    0.813385 0.107205 0.573674 0.338139
O34   O     O_3   0.243461 0.942002 0.467808 -0.656164
H14   H     H_    0.186615 0.892788 0.426325 0.338143
O35   O     O_3   0.743463 0.558018 0.967808 -0.656163
H15   H     H_    0.686616 0.607229 0.926323 0.338143
O36   O     O_3   0.256538 0.441987 0.032192 -0.656164
H16   H     H_    0.313385 0.392783 0.073677 0.338142

loop_
_geom_bond_atom_site_label_1
_geom_bond_atom_site_label_2
_ccdc_geom_bond_type
O17   V3    S    
O32   H12   S    
O1    C5    A    
O35   H15   S    
C16   C36   A    
C31   C35   A    
O19   V1    S    
O13   V1    S    
O25   H5    S    
O3    C7    A    
O36   H16   S    
O15   V3    S    
O29   H9    S    
C33   C38   A    
O27   H7    S    
O7    C3    A    
C35   C40   A    
C26   C30   A    
C28   O36   S    
C36   C39   A    
C15   O27   S    
O9    V1    S    
C14   C18   A    
C30   C34   A    
O4    C8    A    
O1    V3    S    
C20   O24   S    
O2    V4    S    
C18   C22   A    
O3    V1    S    
C14   C34   A    
C29   C37   A    
C1    O15   A    
C23   C27   A    
C11   C12   T    
C2    O16   A    
C7    C9    S    
C31   C39   A    
O2    C6    A    
C32   C40   A    
O14   V2    S    
C16   C20   A    
C34   C37   A    
O11   C7    A    
O12   C8    A    
C21   O30   S    
O10   V2    S    
O5    V1    S    
C14   O26   S    
O7    V3    S    
O22   H2    S    
O8    V4    S    
O34   H14   S    
C29   C33   A    
O18   V4    S    
C17   O21   S    
C30   C38   A    
O31   H11   S    
C8    C10   S    
C32   C36   A    
C23   O32   S    
O26   H6    S    
O5    C1    A    
C22   O29   S    
C4    C38   S    
O30   H10   S    
C21   C25   A    
O8    C4    A    
C15   C35   A    
C9    C10   T    
C16   O28   S    
O9    C5    A    
C27   O35   S    
O6    V2    S    
C18   O22   S    
O16   V4    S    
C13   O25   S    
C3    O13   A    
C1    C39   S    
C2    C40   S    
C25   O33   S    
C3    C37   S    
O6    C2    A    
C15   C19   A    
O11   V3    S    
C5    C11   S    
O12   V4    S    
C6    C12   S    
C22   C26   A    
O10   C6    A    
O20   V2    S    
O24   H4    S    
C25   C29   A    
C27   C31   A    
C13   C17   A    
O23   H3    S    
O4    V2    S    
O28   H8    S    
C28   C32   A    
C26   O34   S    
C24   C28   A    
C19   O23   S    
O21   H1    S    
C4    O14   A    
C17   C21   A    
C24   O31   S    
O33   H13   S    
C19   C23   A    
C13   C33   A    
C20   C24   A    
