data_mof_unit_41369.cif
_audit_creation_date              2012-12-10T17:45:36-0500
_audit_creation_method            fapswitch 2.2
_symmetry_space_group_name_H-M    P1
_symmetry_Int_Tables_number       1
_space_group_crystal_system       triclinic
_cell_length_a                    11.544571
_cell_length_b                    10.726338
_cell_length_c                    9.895123
_cell_angle_alpha                 89.931394
_cell_angle_beta                  90.038372
_cell_angle_gamma                 91.573816
_cell_volume                      1224.85933122

loop_
_atom_site_label
_atom_site_type_symbol
_atom_type_description
_atom_site_fract_x
_atom_site_fract_y
_atom_site_fract_z
_atom_type_partial_charge
C1    C     C_R   0.508227 0.260162 0.501029 0.863654
C2    C     C_R   0.475258 0.872106 0.504512 -0.130219
C3    C     C_R   0.350825 0.333840 0.140009 -0.183273
C4    C     C_R   0.281963 0.499551 0.499972 0.886914
C5    C     C_R   0.279149 0.249954 0.070018 -0.261179
C6    C     C_R   0.278574 0.248654 0.929228 0.038845
C7    C     C_R   0.350829 0.333986 0.859988 -0.203611
C8    C     C_R   0.426475 0.418058 0.927860 0.139634
C9    C     C_R   0.426578 0.417983 0.072319 0.168887
C10   C     C_R   0.569792 0.578974 0.071493 -0.122531
C11   C     C_R   0.569761 0.578946 0.928253 -0.121235
C12   C     C_R   0.526933 0.053347 0.876556 -0.143295
C13   C     C_R   0.488776 0.739193 0.500782 0.880188
C14   C     C_R   0.718049 0.500205 0.500050 0.910893
C15   C     C_1   0.161518 0.499287 0.499930 -0.204964
C16   C     C_1   0.059348 0.499119 0.500071 -0.012544
C17   C     C_1   0.940693 0.499248 0.500207 -0.005570
C18   C     C_1   0.838521 0.499648 0.500179 -0.197119
C19   C     C_R   0.551997 0.113410 0.754614 -0.156674
C20   C     C_R   0.204097 0.157046 0.853812 0.140595
C21   C     C_R   0.190814 0.033141 0.899649 -0.136983
C22   C     C_R   0.124447 0.945917 0.826021 -0.143578
C23   C     C_R   0.465429 0.940305 0.876174 -0.165923
C24   C     C_R   0.069833 0.981373 0.706594 -0.107036
C25   C     C_R   0.081175 0.104275 0.660749 -0.130330
C26   C     C_R   0.147733 0.191762 0.733752 -0.167907
C27   C     C_R   0.438390 0.882434 0.753729 -0.134906
C28   C     C_R   0.474272 0.936983 0.629356 0.103994
C29   C     C_R   0.514626 0.060866 0.629754 0.097864
C30   C     C_R   0.514387 0.126489 0.504927 -0.118211
C31   C     C_R   0.499889 0.063228 0.382457 -0.224524
C32   C     C_R   0.484732 0.936344 0.382154 -0.219188
H1    H     H_    0.500954 0.111427 0.286111 0.172320
H2    H     H_    0.343794 0.330016 0.247082 0.214168
H3    H     H_    0.222492 0.187069 0.126748 0.150607
H4    H     H_    0.233780 0.002927 0.990781 0.119582
H5    H     H_    0.115849 0.850562 0.861313 0.131749
H6    H     H_    0.018563 0.913661 0.649711 0.129044
H7    H     H_    0.038304 0.131898 0.568557 0.132815
H8    H     H_    0.154146 0.286716 0.696940 0.129858
H9    H     H_    0.347147 0.330783 0.753041 0.209870
H10   H     H_    0.626619 0.643488 0.874252 0.154671
H11   H     H_    0.603132 0.199108 0.760063 0.167756
H12   H     H_    0.552841 0.096048 0.971354 0.139359
H13   H     H_    0.440664 0.896157 0.970670 0.130039
H14   H     H_    0.387845 0.796172 0.757939 0.162015
H15   H     H_    0.481848 0.888638 0.285666 0.167383
H16   H     H_    0.626740 0.643480 0.125327 0.148082
N1    N     N_R   0.498930 0.498800 0.142780 -0.117869
N2    N     N_R   0.498900 0.498720 0.857170 -0.120648
O1    O     O_R   0.500000 0.316780 0.614690 -0.650965
O2    O     O_R   0.499990 0.316750 0.385360 -0.639739
O3    O     O_R   0.334450 0.500030 0.614670 -0.638229
O4    O     O_R   0.334440 0.500000 0.385330 -0.625845
O5    O     O_R   0.500010 0.683250 0.614640 -0.627952
O6    O     O_R   0.500000 0.683220 0.385310 -0.618507
O7    O     O_R   0.665560 0.500000 0.614670 -0.611022
O8    O     O_R   0.665550 0.499970 0.385330 -0.606078
Zn1   Zn    Zn3+2 0.500010 0.500020 0.653130 0.922131
Zn2   Zn    Zn3+2 0.499990 0.499980 0.346870 0.934734

loop_
_geom_bond_atom_site_label_1
_geom_bond_atom_site_label_2
_ccdc_geom_bond_type
C24   H6    S    
C31   H1    S    
C6    C7    A    
C3    C9    A    
C23   C27   A    
C4    O3    A    
C6    C20   S    
C14   C18   S    
C31   C32   A    
C3    C5    A    
C13   O6    A    
C4    C15   S    
C22   H5    S    
C17   C18   T    
O3    Zn1   S    
C7    C8    A    
C12   H12   S    
C11   N2    A    
O4    Zn2   S    
C21   C22   A    
C24   C25   A    
C5    C6    A    
C1    O1    A    
C12   C23   A    
C26   H8    S    
C29   C30   A    
N1    Zn2   S    
C20   C26   A    
C23   H13   S    
N2    Zn1   S    
C5    H3    S    
C12   C19   A    
C2    C13   S    
C1    C30   S    
C1    O2    A    
C19   H11   S    
O5    Zn1   S    
C7    H9    S    
C10   H16   S    
C30   C31   A    
C14   O8    A    
C32   H15   S    
C22   C24   A    
O7    Zn1   S    
O1    Zn1   S    
C10   C11   A    
O8    Zn2   S    
C15   C16   T    
C19   C29   A    
C8    N2    A    
C9    N1    A    
C20   C21   A    
C27   H14   S    
C11   H10   S    
C2    C32   A    
C27   C28   A    
C21   H4    S    
C14   O7    A    
C28   C29   A    
C2    C28   A    
O2    Zn2   S    
C3    H2    S    
C4    O4    A    
C25   C26   A    
C10   N1    A    
C25   H7    S    
O6    Zn2   S    
C16   C17   S    
C8    C9    A    
C13   O5    A    
