data_mof_unit_34157.cif
_audit_creation_date              2013-03-05T15:40:46-0500
_audit_creation_method            fapswitch 2.2
_symmetry_space_group_name_H-M    P1
_symmetry_Int_Tables_number       1
_space_group_crystal_system       triclinic
_cell_length_a                    6.926858
_cell_length_b                    17.313449
_cell_length_c                    24.075402
_cell_angle_alpha                 104.451934
_cell_angle_beta                  90.778206
_cell_angle_gamma                 90.165703
_cell_volume                      2795.63118404

loop_
_atom_site_label
_atom_site_type_symbol
_atom_site_description
_atom_site_fract_x
_atom_site_fract_y
_atom_site_fract_z
_atom_type_partial_charge
O1    O     O_R   0.494290 0.391990 0.999150 -0.556393
O2    O     O_R   0.827170 0.534410 0.082350 -0.561380
O3    O     O_R   0.994360 0.608010 0.000850 -0.555535
C1    C     C_R   0.659316 0.551171 0.106053 0.829575
O4    O     O_R   0.824210 0.388010 0.004470 -0.567524
O5    O     O_R   0.991370 0.460560 0.922410 -0.559091
C2    C     C_R   0.654426 0.354850 0.001301 0.857919
O6    O     O_R   0.497270 0.539440 0.077590 -0.558308
O7    O     O_3   0.659770 0.523970 0.973170 -0.271645
V1    V     V_3+5 0.935840 0.495550 0.004980 1.125838
O8    O     O_R   0.320910 0.465590 0.917650 -0.557373
C3    C     C_R   0.151225 0.448092 0.894466 0.824030
O9    O     O_R   0.323870 0.611990 0.995530 -0.565322
C4    C     C_R   0.154510 0.645137 0.998498 0.856402
V2    V     V_3+5 0.435470 0.504450 0.995020 1.129185
O10   O     O_3   0.161670 0.476030 0.026830 -0.275377
C5    C     C_2   0.142755 0.730312 0.998072 -0.260645
H1    H     H_    0.277076 0.761285 0.994731 0.102543
C6    C     C_2   0.972777 0.769694 0.001965 -0.259615
H2    H     H_    0.838455 0.738719 0.005301 0.102395
C7    C     C_R   0.255998 0.281908 0.620927 0.554911
N1    N     N_R   0.109081 0.328079 0.648864 -0.458630
C8    C     C_R   0.945413 0.340647 0.619705 0.582350
C9    C     C_R   0.931782 0.312553 0.559207 -0.106837
C10   C     C_R   0.078084 0.261784 0.530617 -0.067281
C11   C     C_R   0.241814 0.246553 0.561553 0.028700
C12   C     C_R   0.776308 0.332394 0.526383 0.372870
C13   C     C_R   0.759341 0.295380 0.467736 -0.111653
C14   C     C_R   0.900583 0.242792 0.439573 -0.093987
C15   C     C_R   0.061759 0.226676 0.470817 -0.042603
C16   C     C_R   0.207443 0.176063 0.442195 -0.002285
C17   C     C_R   0.369814 0.161294 0.473624 -0.083941
C18   C     C_R   0.387208 0.196386 0.532470 -0.077131
C19   C     C_R   0.888493 0.209091 0.380040 0.581720
N2    N     N_R   0.030567 0.159462 0.352443 -0.445670
C20   C     C_R   0.187764 0.142120 0.382621 0.565493
O11   O     O_2   0.414613 0.269545 0.650606 -0.541838
O12   O     O_2   0.794225 0.377791 0.649505 -0.509520
H3    H     H_    0.639427 0.311341 0.443550 0.168297
O13   O     O_2   0.737477 0.227487 0.349819 -0.554512
O14   O     O_2   0.324398 0.091941 0.355295 -0.561766
H4    H     H_    0.484928 0.123094 0.452787 0.116354
H5    H     H_    0.514897 0.183862 0.555113 0.105031
C21   C     C_R   0.851164 0.086804 0.264698 -0.009858
H6    H     H_    0.735014 0.074406 0.290928 0.127047
C22   C     C_R   0.832473 0.062062 0.204822 -0.132140
H7    H     H_    0.702345 0.030772 0.186130 0.099103
C23   C     C_R   0.981485 0.076615 0.169595 -0.103075
C24   C     C_R   0.149277 0.116558 0.195680 -0.131311
H8    H     H_    0.266644 0.128887 0.169820 0.096761
C25   C     C_R   0.166071 0.142739 0.255437 -0.018090
H9    H     H_    0.294202 0.175474 0.274285 0.121314
C26   C     C_R   0.017288 0.128266 0.290690 0.256951
C27   C     C_R   0.154689 0.441370 0.736224 0.080995
C28   C     C_R   0.167664 0.467951 0.796383 -0.126570
H10   H     H_    0.195452 0.530495 0.816237 0.058040
C29   C     C_R   0.138851 0.415767 0.831582 -0.093843
C30   C     C_R   0.097701 0.334386 0.806106 -0.014807
C31   C     C_R   0.093678 0.307067 0.745911 -0.014209
H11   H     H_    0.063740 0.244703 0.726120 0.070907
C32   C     C_R   0.121533 0.359303 0.710553 0.264848
C33   C     C_R   0.643070 0.880649 0.618737 0.525719
N3    N     N_R   0.498416 0.851745 0.646538 -0.437444
C34   C     C_R   0.365906 0.798002 0.616572 0.515045
C35   C     C_R   0.382314 0.767162 0.557091 -0.025316
C36   C     C_R   0.539774 0.790660 0.528283 -0.052346
C37   C     C_R   0.674710 0.848098 0.558955 -0.036969
C38   C     C_R   0.247098 0.711547 0.526192 -0.085123
C39   C     C_R   0.268692 0.678149 0.467648 -0.053693
C40   C     C_R   0.426399 0.699301 0.438375 -0.020103
C41   C     C_R   0.561551 0.755969 0.468630 -0.048932
C42   C     C_R   0.718355 0.777428 0.439209 -0.042545
C43   C     C_R   0.853379 0.833246 0.469466 -0.080589
C44   C     C_R   0.835714 0.868713 0.528539 0.024728
C45   C     C_R   0.452161 0.664756 0.379399 0.569764
N4    N     N_R   0.604560 0.687163 0.350786 -0.444263
C46   C     C_R   0.736696 0.742641 0.379769 0.558138
O15   O     O_2   0.754581 0.940420 0.649438 -0.596337
O16   O     O_2   0.220778 0.772924 0.644582 -0.617621
H12   H     H_    0.124373 0.693089 0.547235 0.114041
H13   H     H_    0.161570 0.635339 0.445484 0.130571
O17   O     O_2   0.326350 0.608453 0.351110 -0.560756
O18   O     O_2   0.884031 0.765261 0.351175 -0.565007
H14   H     H_    0.975183 0.849557 0.446880 0.124670
C47   C     C_R   0.467015 0.658480 0.252085 -0.019731
H15   H     H_    0.335555 0.688670 0.268870 0.109382
C48   C     C_R   0.479651 0.624573 0.193091 -0.128499
H16   H     H_    0.356573 0.629525 0.165987 0.095213
C49   C     C_R   0.649084 0.585961 0.169259 -0.103641
C50   C     C_R   0.805968 0.582302 0.206318 -0.134495
H17   H     H_    0.938592 0.553190 0.189500 0.100806
C51   C     C_R   0.791842 0.615134 0.265761 -0.012268
H18   H     H_    0.913040 0.610075 0.293487 0.129143
C52   C     C_R   0.621865 0.653611 0.289342 0.262767
C53   C     C_R   0.635200 0.854664 0.743903 0.052573
C54   C     C_R   0.623248 0.880810 0.803973 -0.127860
H19   H     H_    0.735446 0.864318 0.830578 0.083631
C55   C     C_R   0.464509 0.924741 0.830168 -0.111355
C56   C     C_R   0.316563 0.943139 0.795123 -0.150013
H20   H     H_    0.191417 0.976262 0.814033 0.094264
C57   C     C_R   0.330319 0.920341 0.735201 -0.030471
H21   H     H_    0.216086 0.936478 0.709136 0.094498
C58   C     C_R   0.489176 0.876371 0.708761 0.288525
C59   C     C_2   0.643017 0.269651 0.001409 -0.259772
H22   H     H_    0.777842 0.238708 0.003964 0.099569
C60   C     C_2   0.472842 0.230235 0.998208 -0.261289
H23   H     H_    0.338176 0.261266 0.995678 0.099545
O19   O     O_R   0.618210 0.960470 0.922400 -0.558009
O20   O     O_R   0.291310 0.111960 0.995450 -0.569793
O21   O     O_R   0.124210 0.039530 0.077580 -0.557604
C61   C     C_R   0.461170 0.145088 0.998491 0.854610
O22   O     O_R   0.288310 0.965490 0.917650 -0.562951
O23   O     O_R   0.121180 0.892010 0.999220 -0.554438
C62   C     C_R   0.456081 0.951417 0.893832 0.822571
O24   O     O_R   0.621230 0.107990 0.000760 -0.554941
O25   O     O_3   0.455770 0.976060 0.026840 -0.271440
V3    V     V_3+5 0.179680 0.004440 0.995020 1.118602
O26   O     O_R   0.791670 0.888040 0.004570 -0.564493
C63   C     C_R   0.961022 0.854875 0.001554 0.856958
O27   O     O_R   0.794680 0.034510 0.082370 -0.560890
C64   C     C_R   0.965221 0.049091 0.106083 0.831177
V4    V     V_3+5 0.680070 0.995560 0.005010 1.125204
O28   O     O_3   0.953840 0.023940 0.973160 -0.276513
C65   C     C_3   0.161964 0.502798 0.701448 -0.257396
C66   C     C_3   0.354649 0.503902 0.671485 -0.161394
C67   C     C_3   0.349159 0.565666 0.635887 -0.359698
H24   H     H_    0.235365 0.550007 0.601913 0.166094
H25   H     H_    0.319900 0.625623 0.663848 0.130812
H26   H     H_    0.489525 0.568713 0.615259 0.195531
H27   H     H_    0.473269 0.519360 0.703998 0.141462
H28   H     H_    0.383866 0.444301 0.642993 0.218413
H29   H     H_    0.042239 0.492291 0.669475 0.164225
H30   H     H_    0.138292 0.563029 0.730061 0.095854
C68   C     C_3   0.054205 0.275248 0.841198 -0.211764
C69   C     C_3   0.226439 0.220350 0.842436 -0.224446
C70   C     C_3   0.173798 0.154894 0.871885 -0.374862
H31   H     H_    0.121231 0.181376 0.915854 0.140632
H32   H     H_    0.058925 0.115730 0.846974 0.130660
H33   H     H_    0.303065 0.118217 0.874656 0.113452
H34   H     H_    0.273034 0.191889 0.798052 0.139414
H35   H     H_    0.349291 0.256000 0.866047 0.124817
H36   H     H_    0.016136 0.305643 0.885915 0.107662
H37   H     H_    0.925508 0.239167 0.822154 0.114841
C71   C     C_3   0.996196 0.925838 0.556420 -0.148824
C72   C     C_3   0.937526 0.012929 0.561909 -0.168333
C73   C     C_3   0.077838 0.070638 0.600930 -0.378803
H38   H     H_    0.082970 0.059272 0.644343 0.158421
H39   H     H_    0.224975 0.064058 0.582607 0.128515
H40   H     H_    0.028308 0.132706 0.605170 0.112050
H41   H     H_    0.936028 0.025174 0.518702 0.102048
H42   H     H_    0.789787 0.024314 0.579347 0.162847
H43   H     H_    0.041540 0.914503 0.598028 0.156729
H44   H     H_    0.129110 0.914357 0.530214 0.070934
C74   C     C_3   0.797024 0.799027 0.718816 -0.180158
C75   C     C_3   0.721382 0.713249 0.698666 -0.248864
C76   C     C_3   0.876460 0.657674 0.667638 -0.381996
H45   H     H_    0.909398 0.671444 0.626132 0.170381
H46   H     H_    0.009006 0.664637 0.694687 0.152905
H47   H     H_    0.824565 0.595153 0.659083 0.163461
H48   H     H_    0.672903 0.692360 0.736324 0.125052
H49   H     H_    0.596927 0.710199 0.668881 0.140296
H50   H     H_    0.865486 0.817943 0.683067 0.176594
H51   H     H_    0.913470 0.800943 0.751438 0.110243
N5    N     N_R   0.650538 0.397606 0.549589 0.105017
O29   O     O_R   0.470449 0.394413 0.532999 -0.401694
O30   O     O_R   0.726921 0.466612 0.574016 -0.395150

loop_
_geom_bond_atom_site_label_1
_geom_bond_atom_site_label_2
_geom_bond_distance
_ccdc_geom_bond_type
C38   H12   1.082767 S    
C28   H10   1.084451 S    
C67   H24   1.111027 S    
N2    C26   1.451122 S    
C43   C44   1.408535 A    
C53   C54   1.407128 A    
C76   H47   1.108057 S    
C9    C12   1.420152 A    
C1    O6    1.295792 A    
O22   C62   1.299512 A    
C72   C73   1.525318 S    
C50   H17   1.082989 S    
O20   V3    2.011265 S    
C69   C70   1.525012 S    
C47   H15   1.083068 S    
C75   H49   1.106436 S    
C13   C14   1.400338 A    
C57   H21   1.083159 S    
O25   V4    1.706423 S    
C33   C37   1.428855 A    
C19   O13   1.349805 S    
N5    O29   1.301443 A    
C1    C49   1.493034 S    
O20   C61   1.300577 A    
O21   C64   1.294619 A    
O5    C3    1.294001 A    
C15   C16   1.408425 A    
C55   C62   1.488361 S    
C60   H23   1.086365 S    
C46   O18   1.349147 S    
V2    O10   2.155867 S    
C55   C56   1.405733 A    
C33   O15   1.346084 S    
O25   V3    2.153891 S    
C65   H29   1.106926 S    
C19   N2    1.373301 A    
O26   V4    2.015376 S    
O19   C62   1.297323 A    
C71   H44   1.113305 S    
O26   C63   1.302491 A    
C27   C65   1.509932 S    
C42   C46   1.414904 A    
N4    C52   1.454789 S    
C68   H37   1.112601 S    
O23   C63   1.289516 A    
O8    V2    1.970606 S    
C66   H27   1.111827 S    
N2    C20   1.375848 A    
C21   C22   1.401673 A    
C38   C39   1.393847 A    
C24   C25   1.399439 A    
C54   C55   1.403397 A    
C8    C9    1.417509 A    
C40   C41   1.410342 A    
O1    V2    2.016705 S    
O7    V1    2.153895 S    
C43   H14   1.083984 S    
C72   H41   1.112160 S    
C36   C37   1.420273 A    
V3    O28   1.705159 S    
C6    C63   1.479751 S    
C31   H11   1.084028 S    
C57   C58   1.406267 A    
O24   V4    2.017058 S    
O9    C4    1.302453 A    
C4    C5    1.479734 S    
C20   O14   1.348971 S    
C70   H33   1.110067 S    
C21   C26   1.408001 A    
O21   V3    1.971521 S    
C59   C60   1.351961 D    
C59   H22   1.086634 S    
C7    C11   1.409530 A    
C53   C58   1.420511 A    
C73   H39   1.110917 S    
C60   C61   1.477893 S    
C47   C48   1.398941 A    
C69   H34   1.111880 S    
C22   C23   1.406104 A    
C31   C32   1.402668 A    
C25   H9    1.082885 S    
C18   H5    1.083279 S    
C74   H51   1.112737 S    
C9    C10   1.412618 A    
C70   H32   1.110656 S    
C49   C50   1.408279 A    
C23   C64   1.486324 S    
O4    C2    1.300137 A    
C42   C43   1.401513 A    
C13   H3    1.083454 S    
C10   C11   1.409730 A    
C14   C19   1.407418 A    
C30   C68   1.513203 S    
C25   C26   1.404865 A    
O2    C1    1.303477 A    
C45   N4    1.374842 A    
C36   C41   1.421951 A    
C14   C15   1.404934 A    
C12   N5    1.431740 S    
C68   H36   1.109608 S    
C73   H40   1.109615 S    
C47   C52   1.405112 A    
C66   H28   1.108146 S    
C11   C18   1.406989 A    
C50   C51   1.406722 A    
C56   H20   1.082065 S    
C76   H46   1.107029 S    
C69   H35   1.112189 S    
C35   C38   1.405743 A    
C54   H19   1.083895 S    
C33   N3    1.372925 A    
C51   C52   1.409365 A    
C5    H1    1.086464 S    
C37   C44   1.434482 A    
C22   H7    1.083031 S    
N4    C46   1.374864 A    
C74   C75   1.531149 S    
C72   H42   1.110816 S    
O3    C4    1.289483 A    
O23   V3    2.014518 S    
C3    C29   1.478486 S    
C65   H30   1.111020 S    
N3    C58   1.453936 S    
C23   C24   1.407931 A    
C56   C57   1.402086 A    
C35   C36   1.412445 A    
O6    V2    1.968835 S    
C2    C59   1.477628 S    
C28   C29   1.399979 A    
C66   C67   1.528494 S    
C34   O16   1.347548 S    
O2    V1    1.975971 S    
C40   C45   1.410388 A    
O27   C64   1.301218 A    
O27   V4    1.970700 S    
C73   H38   1.110894 S    
C10   C15   1.418958 A    
C44   C71   1.518712 S    
C27   C28   1.407533 A    
C76   H45   1.110075 S    
C67   H25   1.108123 S    
C75   H48   1.112119 S    
O1    C2    1.290639 A    
C74   H50   1.106255 S    
C16   C17   1.406425 A    
C21   H6    1.082880 S    
O19   V4    1.969909 S    
C70   H31   1.110199 S    
O5    V1    1.971735 S    
O8    C3    1.296368 A    
C45   O17   1.349498 S    
C68   C69   1.532113 S    
C27   C32   1.417565 A    
C8    O12   1.348720 S    
C67   H26   1.104834 S    
C71   C72   1.536792 S    
C53   C74   1.511091 S    
C34   C35   1.404233 A    
C6    H2    1.086466 S    
O9    V2    2.015324 S    
C30   C31   1.407611 A    
O4    V1    2.011141 S    
C71   H43   1.109303 S    
O3    V1    2.014561 S    
V1    O10   1.705107 S    
C17   C18   1.398603 A    
N1    C32   1.449490 S    
C29   C30   1.415726 A    
O22   V3    1.976027 S    
N5    O30   1.300155 A    
C51   H18   1.082799 S    
C5    C6    1.354895 D    
N1    C8    1.371677 A    
O7    V2    1.706695 S    
C39   C40   1.404128 A    
C39   H13   1.083218 S    
N3    C34   1.367763 A    
C41   C42   1.403358 A    
C7    O11   1.349031 S    
C48   H16   1.083158 S    
C24   H8    1.083148 S    
C75   C76   1.518801 S    
C48   C49   1.408867 A    
C17   H4    1.083147 S    
C16   C20   1.412314 A    
C61   O24   1.290256 A    
V4    O28   2.155874 S    
C7    N1    1.371845 A    
C65   C66   1.528090 S    
C12   C13   1.400539 A    
