data_mof_unit_52885.cif
_audit_creation_date              2012-12-10T18:53:01-0500
_audit_creation_method            fapswitch 2.2
_symmetry_space_group_name_H-M    P1
_symmetry_Int_Tables_number       1
_space_group_crystal_system       triclinic
_cell_length_a                    9.918379
_cell_length_b                    10.695469
_cell_length_c                    16.648922
_cell_angle_alpha                 91.881485
_cell_angle_beta                  86.104055
_cell_angle_gamma                 90.071856
_cell_volume                      1761.11398279

loop_
_atom_site_label
_atom_site_type_symbol
_atom_type_description
_atom_site_fract_x
_atom_site_fract_y
_atom_site_fract_z
_atom_type_partial_charge
C1    C     C_R   0.500293 0.739823 0.498867 0.845157
C2    C     C_R   0.500220 0.260233 0.500785 0.846449
C3    C     C_R   0.618842 0.934869 0.472458 -0.176993
C4    C     C_R   0.385899 0.065239 0.530067 -0.200582
C5    C     C_R   0.618922 0.063251 0.473273 -0.190177
C6    C     C_R   0.383358 0.937378 0.524837 -0.202736
C7    C     C_R   0.501925 0.127800 0.501853 -0.016548
C8    C     C_R   0.500670 0.872446 0.498130 -0.011409
C9    C     C_R   0.933516 0.424461 0.446626 0.290864
C10   C     C_R   0.067966 0.583266 0.548661 0.323504
C11   C     C_R   0.077991 0.416927 0.451441 0.294546
C12   C     C_R   0.923159 0.573399 0.554656 0.316961
C13   C     C_R   0.482349 0.489217 0.652293 0.857088
C14   C     C_R   0.517208 0.499611 0.346652 0.870534
C15   C     C_R   0.475040 0.437493 0.732082 -0.075409
C16   C     C_R   0.522146 0.486902 0.259349 -0.090919
C17   C     C_R   0.572547 0.349209 0.749937 -0.324429
C18   C     C_R   0.412182 0.431476 0.223325 -0.326033
C19   C     C_R   0.573885 0.303360 0.827355 0.508486
C20   C     C_R   0.415646 0.410390 0.139956 0.504488
C21   C     C_R   0.469842 0.338748 0.884403 0.056979
C22   C     C_R   0.532792 0.445523 0.093340 0.105979
C23   C     C_R   0.364724 0.416569 0.864074 -0.215498
C24   C     C_R   0.639301 0.506846 0.129048 -0.244792
C25   C     C_R   0.368110 0.466950 0.788306 -0.237308
C26   C     C_R   0.633462 0.528575 0.211805 -0.209467
C27   C     C_2   0.490430 0.328479 0.969070 -0.097109
C28   C     C_2   0.541376 0.428856 0.006055 -0.217589
H1    H     H_    0.648779 0.317208 0.704322 0.149735
H2    H     H_    0.322889 0.406597 0.260210 0.191222
H3    H     H_    0.714736 0.578922 0.238352 0.147533
H4    H     H_    0.290744 0.532401 0.775240 0.146910
H5    H     H_    0.584491 0.504845 0.970694 0.142367
H6    H     H_    0.452044 0.247986 0.001369 0.174276
H7    H     H_    0.286332 0.446418 0.909153 0.182390
H8    H     H_    0.726848 0.538167 0.092649 0.151177
H9    H     H_    0.709701 0.884768 0.450712 0.158344
H10   H     H_    0.297553 0.114854 0.555738 0.145794
H11   H     H_    0.709413 0.111619 0.451180 0.178871
H12   H     H_    0.290562 0.889788 0.542583 0.208512
N1    N     N_R   0.142790 0.500030 0.500020 -0.175032
N2    N     N_R   0.857210 0.499970 0.499980 -0.181813
O1    O     O_R   0.385380 0.683250 0.500010 -0.571528
O2    O     O_R   0.614620 0.316750 0.499990 -0.593005
O3    O     O_R   0.614710 0.683220 0.500000 -0.588118
O4    O     O_R   0.385290 0.316780 0.500000 -0.597473
O5    O     O_R   0.371780 0.500040 0.615800 -0.613491
O6    O     O_R   0.628220 0.499960 0.384200 -0.592404
O7    O     O_R   0.601110 0.500010 0.615800 -0.597735
O8    O     O_R   0.398890 0.499990 0.384200 -0.575334
Zn1   Zn    Zn3+2 0.346870 0.500020 0.500000 1.007704
Zn2   Zn    Zn3+2 0.653130 0.499980 0.500000 1.004612
O9    O     O_3   0.300875 0.373505 0.101661 -0.622448
C29   C     C_3   0.239472 0.267308 0.136906 0.059862
H13   H     H_    0.176013 0.295489 0.191990 0.158545
H14   H     H_    0.315750 0.196599 0.151743 0.134873
C30   C     C_3   0.146786 0.206426 0.077852 -0.837124
H15   H     H_    0.206022 0.175496 0.021732 0.251926
H16   H     H_    0.096252 0.123896 0.105287 0.211503
H17   H     H_    0.068276 0.274101 0.062685 0.258163
O10   O     O_3   0.675481 0.224305 0.848243 -0.608228
C31   C     C_3   0.799010 0.290481 0.847685 0.093445
H18   H     H_    0.787432 0.382052 0.881472 0.125309
H19   H     H_    0.838923 0.306526 0.784811 0.125152
C32   C     C_3   0.902297 0.213615 0.888241 -0.809400
H20   H     H_    0.918297 0.122025 0.855615 0.258836
H21   H     H_    0.000049 0.264484 0.887780 0.203778
H22   H     H_    0.866113 0.197431 0.951664 0.255388
O11   O     O_3   0.867101 0.347940 0.393607 -0.586649
C33   C     C_3   0.901443 0.382030 0.313528 0.143003
H23   H     H_    0.011553 0.377622 0.297302 0.160544
H24   H     H_    0.867416 0.478805 0.304259 0.139058
C34   C     C_3   0.834106 0.291574 0.256288 -0.842281
H25   H     H_    0.853883 0.321198 0.193269 0.216548
H26   H     H_    0.875624 0.195988 0.261464 0.240029
H27   H     H_    0.723382 0.289215 0.271249 0.268902
O12   O     O_3   0.132638 0.689401 0.577852 -0.569106
C35   C     C_3   0.136885 0.690293 0.662399 0.159928
H28   H     H_    0.153321 0.595051 0.684402 0.116367
H29   H     H_    0.042744 0.732483 0.690941 0.174708
C36   C     C_3   0.251444 0.773046 0.689542 -0.861702
H30   H     H_    0.230541 0.872432 0.677746 0.242490
H31   H     H_    0.259329 0.765096 0.755390 0.202261
H32   H     H_    0.349217 0.744166 0.658304 0.266070
O13   O     O_3   0.156617 0.337151 0.400566 -0.589762
C37   C     C_3   0.127652 0.211186 0.418048 0.136379
H33   H     H_    0.023018 0.184380 0.405549 0.173975
H34   H     H_    0.141740 0.193729 0.482234 0.129587
C38   C     C_3   0.221569 0.126648 0.364508 -0.844437
H35   H     H_    0.328403 0.154673 0.369802 0.268664
H36   H     H_    0.208546 0.027999 0.382343 0.221988
H37   H     H_    0.197335 0.133715 0.300692 0.226277
O14   O     O_3   0.848743 0.639313 0.615007 -0.558375
C39   C     C_3   0.841978 0.567555 0.685602 0.137813
H38   H     H_    0.941616 0.548003 0.707895 0.045303
H39   H     H_    0.800087 0.473208 0.674871 0.143387
C40   C     C_3   0.758338 0.637583 0.752793 -0.791742
H40   H     H_    0.657938 0.662902 0.732582 0.263383
H41   H     H_    0.743885 0.578249 0.806151 0.183362
H42   H     H_    0.811235 0.724763 0.770433 0.236896

loop_
_geom_bond_atom_site_label_1
_geom_bond_atom_site_label_2
_ccdc_geom_bond_type
O14   C39   S    
C1    C8    S    
C17   H1    S    
C34   H25   S    
C2    C7    S    
O1    Zn1   S    
C40   H42   S    
C40   H40   S    
O9    C29   S    
C2    O4    A    
C9    N2    A    
C24   H8    S    
C22   C24   A    
C19   C21   A    
C24   C26   A    
O13   C37   S    
C35   H29   S    
C15   C25   A    
C12   N2    A    
C40   H41   S    
C21   C23   A    
C1    O1    A    
O5    Zn1   S    
C2    O2    A    
C32   H21   S    
C31   H19   S    
C33   H23   S    
C18   H2    S    
C38   H36   S    
C18   C20   A    
C11   O13   S    
O2    Zn2   S    
C25   H4    S    
C21   C27   S    
C26   H3    S    
C22   C28   S    
C10   N1    A    
C34   H26   S    
O11   C33   S    
C4    C7    A    
C36   H31   S    
C10   O12   S    
C36   H30   S    
C27   H6    S    
C16   C26   A    
C29   H14   S    
C37   H34   S    
C4    C6    A    
C3    C8    A    
C5    C7    A    
C35   H28   S    
C30   H17   S    
C14   O6    A    
C39   C40   S    
O12   C35   S    
O4    Zn1   S    
C31   H18   S    
C32   H22   S    
C33   C34   S    
O8    Zn1   S    
C39   H38   S    
C38   H37   S    
C39   H39   S    
C9    C11   A    
C10   C12   A    
C13   O7    A    
C20   C22   A    
C28   H5    S    
C23   H7    S    
C13   C15   S    
C34   H27   S    
C14   C16   S    
C12   O14   S    
C36   H32   S    
C13   O5    A    
C15   C17   A    
C29   H13   S    
C31   C32   S    
C37   H33   S    
O7    Zn2   S    
C9    O11   S    
C20   O9    S    
C3    C5    A    
C37   C38   S    
C6    C8    A    
O3    Zn2   S    
C5    H11   S    
C35   C36   S    
C1    O3    A    
C30   H15   S    
C14   O8    A    
C19   O10   S    
C17   C19   A    
C11   N1    A    
C6    H12   S    
C23   C25   A    
O10   C31   S    
C30   H16   S    
O6    Zn2   S    
C3    H9    S    
C16   C18   A    
C32   H20   S    
C27   C28   D    
C33   H24   S    
C38   H35   S    
C4    H10   S    
N1    Zn1   S    
N2    Zn2   S    
C29   C30   S    
