data_mof_unit_7836.cif
_audit_creation_date              2013-03-05T16:26:15-0500
_audit_creation_method            fapswitch 2.2
_symmetry_space_group_name_H-M    P1
_symmetry_Int_Tables_number       1
_space_group_crystal_system       triclinic
_cell_length_a                    18.382664
_cell_length_b                    18.379311
_cell_length_c                    18.361002
_cell_angle_alpha                 120.256038
_cell_angle_beta                  90.303261
_cell_angle_gamma                 60.063645
_cell_volume                      4385.2597658

loop_
_atom_site_label
_atom_site_type_symbol
_atom_site_description
_atom_site_fract_x
_atom_site_fract_y
_atom_site_fract_z
_atom_type_partial_charge
Zn1   Zn    Zn3+2 0.043370 0.413240 0.543370 0.973543
Zn2   Zn    Zn3+2 0.869870 0.586760 0.543380 0.973421
Zn3   Zn    Zn3+2 0.043360 0.413260 0.369880 1.041385
Zn4   Zn    Zn3+2 0.043390 0.586740 0.543370 1.017968
O1    O     O_3   0.000000 0.500000 0.500000 -0.506209
O2    O     O_R   0.944950 0.731580 0.615800 -0.620619
O3    O     O_R   0.115780 0.268410 0.444920 -0.660298
O4    O     O_R   0.823470 0.560720 0.615800 -0.664130
O5    O     O_R   0.115800 0.439290 0.323490 -0.618244
O6    O     O_R   0.823460 0.560740 0.444930 -0.652882
O7    O     O_R   0.115830 0.560690 0.615790 -0.617662
O8    O     O_R   0.944900 0.439310 0.323490 -0.608915
O9    O     O_R   0.115810 0.439260 0.615790 -0.638476
O10   O     O_R   0.944910 0.439280 0.615800 -0.622190
O11   O     O_R   0.115820 0.560710 0.444920 -0.621063
O12   O     O_R   0.823500 0.731590 0.615800 -0.647177
O13   O     O_R   0.115770 0.268420 0.323490 -0.616772
C1    C     C_R   0.860253 0.779497 0.640891 0.825648
C2    C     C_R   0.137137 0.219967 0.359956 0.828380
C3    C     C_R   0.860197 0.500161 0.640339 0.810973
C4    C     C_R   0.140896 0.498800 0.359825 0.877105
C5    C     C_R   0.860648 0.503209 0.359956 0.871572
C6    C     C_R   0.141137 0.499242 0.638642 0.931535
C7    C     C_R   0.331180 0.401776 0.562710 0.120565
C8    C     C_R   0.415493 0.378648 0.533222 -0.121048
C9    C     C_R   0.467661 0.382347 0.589441 -0.116041
C10   C     C_R   0.435888 0.407640 0.674193 0.144970
C11   C     C_R   0.344129 0.451510 0.711485 -0.006547
C12   C     C_R   0.290692 0.450074 0.655321 -0.027433
C13   C     C_R   0.304639 0.495279 0.802689 -0.103190
C14   C     C_R   0.212262 0.542269 0.839096 -0.045302
C15   C     C_R   0.157208 0.560031 0.788030 -0.020505
C16   C     C_R   0.197670 0.501549 0.694345 -0.096550
C17   C     C_R   0.171881 0.577324 0.926840 0.110891
C18   C     C_R   0.079364 0.651915 0.970040 0.098720
C19   C     C_R   0.026009 0.686148 0.924418 -0.057490
C20   C     C_R   0.063571 0.637737 0.832691 0.072574
C21   C     C_R   0.258127 0.053426 0.327802 -0.000392
C22   C     C_R   0.190305 0.107764 0.303317 -0.136232
C23   C     C_R   0.185472 0.051176 0.216993 -0.042296
C24   C     C_R   0.245120 0.943212 0.162303 -0.248784
H1    H     H_    0.238601 0.899353 0.098635 0.192454
C25   C     C_R   0.307386 0.891058 0.192650 -0.097997
C26   C     C_R   0.318255 0.948336 0.271775 0.084222
C27   C     C_3   0.333384 0.937896 0.346935 -0.007340
C28   C     C_3   0.262017 0.054199 0.410190 -0.045036
H2    H     H_    0.315766 0.888311 0.347235 0.199655
H3    H     H_    0.284252 0.101383 0.455755 0.150742
C29   C     C_R   0.196116 0.583235 0.331526 -0.044370
C30   C     C_R   0.196814 0.496801 0.302427 -0.088788
C31   C     C_R   0.253497 0.407637 0.214243 0.175982
C32   C     C_R   0.306308 0.409743 0.160717 -0.272229
H4    H     H_    0.350840 0.340721 0.094625 0.164242
C33   C     C_R   0.304175 0.498709 0.193645 -0.070683
C34   C     C_R   0.247019 0.583856 0.279113 0.021287
C35   C     C_3   0.222572 0.688785 0.350812 0.026101
C36   C     C_3   0.162278 0.689361 0.412300 0.035644
C37   C     C_R   0.837708 0.948240 0.731770 -0.009580
C38   C     C_R   0.803578 0.890240 0.700081 -0.074198
C39   C     C_R   0.710452 0.943397 0.727144 -0.284034
H5    H     H_    0.680276 0.901498 0.706112 0.183642
C40   C     C_R   0.654738 0.051708 0.782243 0.202243
C41   C     C_R   0.693051 0.108486 0.807844 -0.127278
C42   C     C_R   0.785301 0.052157 0.780086 0.013177
C43   C     C_3   0.863746 0.058684 0.777662 0.336686
C44   C     C_3   0.923051 0.938890 0.724762 -0.315733
H6    H     H_    0.961269 0.897862 0.654354 0.172757
C45   C     C_R   0.717288 0.555455 0.335856 0.009175
C46   C     C_R   0.806508 0.511347 0.303257 -0.182033
C47   C     C_R   0.840696 0.476086 0.214253 -0.066068
C48   C     C_R   0.786397 0.473572 0.158921 0.119854
C49   C     C_R   0.696405 0.511334 0.194588 -0.131242
C50   C     C_R   0.663484 0.559604 0.285746 0.005772
C51   C     C_3   0.582576 0.617243 0.362749 -0.053283
C52   C     C_3   0.645655 0.613486 0.420052 0.124857
H7    H     H_    0.555146 0.572144 0.351473 0.150828
C53   C     C_R   0.716738 0.576985 0.743419 -0.030686
C54   C     C_R   0.805472 0.495217 0.692458 -0.188103
C55   C     C_R   0.839512 0.406675 0.692844 -0.048611
C56   C     C_R   0.784432 0.404146 0.743720 0.096447
C57   C     C_R   0.695993 0.492069 0.798098 -0.108158
C58   C     C_R   0.665749 0.576276 0.795712 -0.061365
C59   C     C_3   0.588351 0.686369 0.841436 0.125230
C60   C     C_3   0.649986 0.690832 0.786888 0.272363
Zn5   Zn    Zn3+2 0.456670 0.586670 0.956580 0.997314
Zn6   Zn    Zn3+2 0.456680 0.586650 0.130080 1.002254
Zn7   Zn    Zn3+2 0.630180 0.413150 0.956570 0.962793
Zn8   Zn    Zn3+2 0.456650 0.413170 0.956580 0.961130
O14   O     O_3   0.500040 0.499910 0.999960 -0.493988
O15   O     O_R   0.384230 0.439200 0.055040 -0.660296
O16   O     O_R   0.555130 0.560630 0.884160 -0.607396
O17   O     O_R   0.384270 0.731490 0.176470 -0.632967
O18   O     O_R   0.676550 0.268320 0.884150 -0.630052
O19   O     O_R   0.555150 0.560600 0.176460 -0.647552
O20   O     O_R   0.384220 0.439220 0.884170 -0.612447
O21   O     O_R   0.676580 0.439170 0.055020 -0.648084
O22   O     O_R   0.384230 0.560650 0.884170 -0.642335
O23   O     O_R   0.384260 0.731500 0.055040 -0.642269
O24   O     O_R   0.555100 0.268330 0.884160 -0.613613
O25   O     O_R   0.384250 0.560620 0.176470 -0.615432
O26   O     O_R   0.676570 0.439190 0.884150 -0.654706
C61   C     C_R   0.360033 0.499854 0.139660 0.808986
C62   C     C_R   0.639843 0.497669 0.858196 0.876191
C63   C     C_R   0.360905 0.779712 0.139599 0.829943
C64   C     C_R   0.639450 0.220044 0.860721 0.799295
C65   C     C_R   0.639983 0.502718 0.139779 0.818883
C66   C     C_R   0.357116 0.502210 0.862887 0.897241
C67   C     C_2   0.930472 0.773138 0.973107 0.953292
O27   O     O_2   0.883201 0.772178 0.018720 -0.618773
O28   O     O_R   0.894696 0.856574 0.967263 -0.783539
H8    H     H_    0.828999 0.910388 0.002716 0.348119
N1    N     N_2   0.421407 0.908501 0.354736 -0.307883
H9    H     H_    0.424680 0.920974 0.415644 0.246510
C68   C     C_3   0.469211 0.936385 0.323775 -0.708197
H10   H     H_    0.534517 0.907258 0.334755 0.252091
H11   H     H_    0.431177 0.021304 0.361054 0.221892
H12   H     H_    0.482104 0.900544 0.251085 0.251802
N2    N     N_2   0.181127 0.076652 0.454823 -0.270692
H13   H     H_    0.125328 0.147888 0.476988 0.288870
C69   C     C_3   0.187271 0.056429 0.522134 -0.778315
H14   H     H_    0.206989 0.101494 0.574470 0.222818
H15   H     H_    0.236130 0.973452 0.491954 0.256985
H16   H     H_    0.121916 0.078039 0.553454 0.268727
N3    N     N_2   0.264000 0.313348 0.181895 -0.299353
H17   H     H_    0.329422 0.253396 0.161051 0.226592
C70   C     C_3   0.222137 0.285898 0.115486 -0.661052
H18   H     H_    0.254144 0.271143 0.053941 0.207199
H19   H     H_    0.150329 0.348331 0.141953 0.262008
H20   H     H_    0.228967 0.215049 0.098216 0.248414
C71   C     C_2   0.304130 0.682284 0.372550 0.949767
O29   O     O_2   0.316064 0.746650 0.384562 -0.662981
O30   O     O_R   0.367336 0.600475 0.375730 -0.808827
H21   H     H_    0.418941 0.603948 0.390762 0.339081
N4    N     N_2   0.174367 0.765910 0.332014 -0.284955
H22   H     H_    0.141695 0.841220 0.386922 0.275616
C72   C     C_3   0.130761 0.749353 0.264972 -0.745034
H23   H     H_    0.096727 0.817289 0.262372 0.243102
H24   H     H_    0.080688 0.738065 0.280867 0.251439
H25   H     H_    0.180519 0.681461 0.198152 0.213658
N5    N     N_2   0.191434 0.685484 0.485303 -0.294529
H26   H     H_    0.250831 0.618508 0.466863 0.273305
C73   C     C_3   0.177964 0.777914 0.562016 -0.656809
H27   H     H_    0.211202 0.804598 0.542230 0.218327
H28   H     H_    0.206054 0.761815 0.609920 0.255579
H29   H     H_    0.106279 0.840399 0.596915 0.259559
N6    N     N_2   0.287300 0.377320 0.499268 -0.308489
H30   H     H_    0.289870 0.394351 0.454158 0.233185
C74   C     C_3   0.304555 0.276965 0.459350 -0.719486
H31   H     H_    0.265970 0.265592 0.413129 0.216442
H32   H     H_    0.284241 0.270738 0.511701 0.233929
H33   H     H_    0.376255 0.215191 0.421147 0.268023
C75   C     C_2   0.062371 0.764617 0.440818 0.950699
O31   O     O_2   0.028425 0.857155 0.486388 -0.672467
O32   O     O_R   0.008823 0.728633 0.415745 -0.809997
H34   H     H_    0.943431 0.786510 0.439714 0.337251
N7    N     N_2   0.561133 0.101464 0.809789 -0.274059
H35   H     H_    0.539546 0.065851 0.760434 0.218417
C76   C     C_3   0.525729 0.121455 0.892897 -0.716157
H36   H     H_    0.551735 0.047793 0.884841 0.223953
H37   H     H_    0.452092 0.166343 0.912799 0.225286
H38   H     H_    0.543888 0.167031 0.946909 0.245424
N8    N     N_2   0.872699 0.094015 0.724576 -0.284757
H39   H     H_    0.936548 0.072286 0.704248 0.236278
C77   C     C_3   0.833853 0.080513 0.653636 -0.716525
H40   H     H_    0.853145 0.103427 0.615774 0.260717
H41   H     H_    0.760266 0.130237 0.682111 0.220843
H42   H     H_    0.857695 0.998863 0.606481 0.253837
N9    N     N_2   0.866742 0.116750 0.867203 -0.275823
H43   H     H_    0.841912 0.112128 0.913818 0.258712
C78   C     C_3   0.944731 0.117875 0.874944 -0.746303
H44   H     H_    0.936401 0.166418 0.946601 0.249015
H45   H     H_    0.953571 0.151436 0.842744 0.229323
H46   H     H_    0.005306 0.039118 0.844291 0.245154
C79   C     C_2   0.976295 0.892285 0.770624 0.941071
O33   O     O_2   0.941235 0.923431 0.845887 -0.619824
O34   O     O_R   0.066163 0.811181 0.725251 -0.799126
H47   H     H_    0.095308 0.785293 0.761819 0.340421
C80   C     C_2   0.928441 0.452539 0.181239 0.977990
O35   O     O_2   0.981532 0.373786 0.108128 -0.628962
O36   O     O_R   0.948831 0.522746 0.233438 -0.796481
H48   H     H_    0.008438 0.501436 0.202862 0.332583
N10   N     N_2   0.821888 0.440406 0.070834 -0.285671
H49   H     H_    0.827836 0.375647 0.019272 0.261909
C81   C     C_3   0.792286 0.521606 0.058775 -0.667690
H50   H     H_    0.720457 0.561318 0.066464 0.238197
H51   H     H_    0.830273 0.488327 0.990864 0.229967
H52   H     H_    0.804222 0.578446 0.108235 0.241649
N11   N     N_2   0.515724 0.719839 0.386656 -0.269784
H53   H     H_    0.493172 0.718947 0.334918 0.287908
C82   C     C_3   0.443715 0.787200 0.470164 -0.699577
H54   H     H_    0.462372 0.827133 0.527107 0.241970
H55   H     H_    0.425256 0.743957 0.481652 0.246221
H56   H     H_    0.384440 0.847768 0.469606 0.235389
C83   C     C_2   0.448816 0.351948 0.443686 0.950114
O37   O     O_2   0.470969 0.401828 0.437554 -0.603447
O38   O     O_R   0.455796 0.269720 0.366742 -0.807733
H57   H     H_    0.478997 0.259942 0.310323 0.348072
C84   C     C_2   0.632394 0.715208 0.488739 0.957667
O39   O     O_2   0.614310 0.749532 0.567850 -0.682729
O40   O     O_R   0.640525 0.770168 0.461318 -0.787120
H58   H     H_    0.630197 0.836485 0.513036 0.333776
N12   N     N_2   0.656855 0.553018 0.454524 -0.314538
H59   H     H_    0.686876 0.563400 0.503039 0.257134
C85   C     C_3   0.690858 0.445205 0.392604 -0.722321
H60   H     H_    0.686614 0.415289 0.430850 0.261728
H61   H     H_    0.761699 0.399409 0.352816 0.235005
H62   H     H_    0.651577 0.434358 0.347172 0.246439
C86   C     C_2   0.933588 0.317979 0.645541 0.985940
O41   O     O_2   0.954501 0.238524 0.575169 -0.635357
O42   O     O_R   0.997565 0.325874 0.683671 -0.798391
H63   H     H_    0.060034 0.262302 0.645390 0.334705
N13   N     N_2   0.819581 0.312516 0.739137 -0.290130
H64   H     H_    0.777995 0.289564 0.735807 0.250404
C87   C     C_3   0.876227 0.297349 0.792631 -0.667070
H65   H     H_    0.940636 0.221088 0.749178 0.226929
H66   H     H_    0.844227 0.299921 0.845772 0.256162
H67   H     H_    0.889795 0.357141 0.824775 0.237766
N14   N     N_2   0.514085 0.688122 0.810613 -0.300505
H68   H     H_    0.525858 0.648935 0.742618 0.269789
C88   C     C_3   0.423102 0.775892 0.865361 -0.646168
H69   H     H_    0.377173 0.761487 0.830831 0.228309
H70   H     H_    0.412278 0.846444 0.877276 0.240287
H71   H     H_    0.406636 0.787417 0.930034 0.258393
C89   C     C_2   0.563346 0.754360 0.942523 0.931882
O43   O     O_2   0.582683 0.717121 0.985009 -0.665152
O44   O     O_R   0.517273 0.860792 0.987035 -0.801851
H72   H     H_    0.503767 0.898429 0.054037 0.345113
N15   N     N_2   0.613555 0.713829 0.724778 -0.313815
H73   H     H_    0.658875 0.672505 0.663367 0.277949
C90   C     C_3   0.549739 0.821535 0.760929 -0.682300
H74   H     H_    0.502352 0.828765 0.723064 0.261621
H75   H     H_    0.584586 0.854167 0.754879 0.234435
H76   H     H_    0.511662 0.867070 0.832366 0.253155
N16   N     N_2   0.683085 0.752681 0.839032 -0.291375
H77   H     H_    0.703977 0.774243 0.806152 0.241927
C91   C     C_3   0.743940 0.721227 0.884563 -0.738219
H78   H     H_    0.751993 0.783700 0.929158 0.261667
H79   H     H_    0.809670 0.650773 0.835539 0.221917
H80   H     H_    0.719933 0.705164 0.925891 0.261125
C92   C     C_2   0.558812 0.352052 0.557346 0.947479
O45   O     O_2   0.612432 0.269015 0.486945 -0.602186
O46   O     O_R   0.582655 0.419303 0.607380 -0.822969
H81   H     H_    0.646271 0.390275 0.578927 0.343438
N17   N     N_2   0.498225 0.381261 0.718312 -0.307367
H82   H     H_    0.539370 0.405053 0.723410 0.252329
C93   C     C_3   0.544578 0.276091 0.690608 -0.772860
H83   H     H_    0.587857 0.264192 0.731489 0.218516
H84   H     H_    0.586803 0.221750 0.619274 0.245619
H85   H     H_    0.496285 0.259704 0.700455 0.257446
N18   N     N_2   0.221727 0.528405 0.966961 -0.288756
H86   H     H_    0.203505 0.574120 0.035473 0.206641
C94   C     C_3   0.236728 0.429871 0.932018 -0.667186
H87   H     H_    0.277543 0.395668 0.964978 0.240447
H88   H     H_    0.272964 0.375910 0.859009 0.243852
H89   H     H_    0.172593 0.439257 0.944576 0.219091
N19   N     N_2   0.040261 0.699160 0.062015 -0.290190
H90   H     H_    0.070960 0.727014 0.104070 0.212551
C95   C     C_3   0.013633 0.646872 0.081081 -0.654256
H91   H     H_    0.955874 0.704604 0.143574 0.258456
H92   H     H_    0.068637 0.592324 0.091046 0.208166
H93   H     H_    0.993806 0.604620 0.026397 0.255132
N20   N     N_2   0.009426 0.676486 0.788328 -0.301351
H94   H     H_    0.991242 0.747734 0.806967 0.294887
C96   C     C_3   0.941932 0.657165 0.770284 -0.716317
H95   H     H_    0.943093 0.631937 0.701001 0.222949
H96   H     H_    0.875402 0.729148 0.816145 0.227306
H97   H     H_    0.953859 0.595681 0.777105 0.236694
C97   C     C_2   0.114777 0.099401 0.184463 0.948390
O47   O     O_2   0.039563 0.172858 0.236282 -0.621948
O48   O     O_R   0.133543 0.057673 0.093328 -0.805661
H98   H     H_    0.080067 0.096210 0.078962 0.353822

loop_
_geom_bond_atom_site_label_1
_geom_bond_atom_site_label_2
_geom_bond_distance
_ccdc_geom_bond_type
C83   O38   1.397550 S    
C34   C35   1.495666 S    
C23   C24   1.407201 A    
C82   H54   1.106154 S    
C51   H7    1.107823 S    
C86   O42   1.397705 S    
O8    C5    1.276487 A    
C13   C66   1.462192 S    
C19   C67   1.487789 S    
C24   H1    1.084472 S    
Zn8   O15   1.946181 S    
C95   H92   1.110001 S    
C18   C19   1.402158 A    
C73   H29   1.105854 S    
C74   H33   1.109940 S    
C10   N17   1.426838 S    
N15   C90   1.449747 S    
C68   H10   1.110493 S    
Zn5   O16   1.947489 S    
C27   N1    1.460706 S    
C88   H69   1.110499 S    
C53   C54   1.395406 A    
C67   O27   1.222591 D    
C45   C52   1.489838 S    
C35   N4    1.466223 S    
C43   N9    1.460984 S    
C28   N2    1.453484 S    
C9    C10   1.410118 A    
O4    C3    1.284450 A    
N12   C85   1.452863 S    
Zn1   O1    1.953585 S    
N3    C70   1.446079 S    
C11   C12   1.420127 A    
N5    C73   1.450427 S    
N8    H39   1.031008 S    
C96   H97   1.111653 S    
C21   C22   1.399171 A    
C56   C57   1.421419 A    
C87   H66   1.110007 S    
C78   H44   1.110567 S    
N18   C94   1.449099 S    
C55   C86   1.475758 S    
C36   C75   1.518301 S    
C12   C16   1.430983 A    
C29   C36   1.508198 S    
C91   H78   1.109814 S    
O9    C6    1.285395 A    
C90   H76   1.108874 S    
N11   C82   1.452178 S    
C17   C18   1.411526 A    
C50   C51   1.507862 S    
O7    C6    1.272417 A    
C79   O33   1.223426 D    
O15   C61   1.273419 A    
Zn2   O4    1.945625 S    
Zn5   O23   1.940439 S    
Zn6   O19   1.939227 S    
C82   H56   1.107856 S    
O18   C64   1.285949 A    
C25   C63   1.447965 S    
C37   C44   1.489332 S    
O20   C66   1.272543 A    
C59   C60   1.575166 S    
N17   C93   1.446034 S    
O40   H58   1.013890 S    
C6    C16   1.454948 S    
N19   C95   1.447782 S    
C43   N8    1.464595 S    
C19   C20   1.412083 A    
C70   H19   1.108342 S    
C84   O40   1.400045 S    
O34   H47   1.013866 S    
C47   C48   1.420777 A    
Zn3   O8    1.939183 S    
C41   C64   1.450908 S    
Zn2   O12   1.939276 S    
N17   H82   1.029633 S    
C93   H83   1.108887 S    
C5    C46   1.447084 S    
C51   N11   1.455099 S    
C76   H38   1.111325 S    
C69   H16   1.110268 S    
C56   N13   1.425626 S    
C32   C33   1.407397 A    
N9    C78   1.449307 S    
C83   O37   1.223144 D    
Zn8   O20   1.938069 S    
C38   C39   1.408012 A    
O26   C62   1.275389 A    
Zn7   O26   1.945521 S    
N2    H13   1.029092 S    
C76   H37   1.110551 S    
C31   N3    1.422412 S    
C24   C25   1.405640 A    
C48   N10   1.426124 S    
C77   H40   1.110448 S    
C8    C83   1.488739 S    
C49   C65   1.451152 S    
N16   C91   1.454721 S    
C72   H25   1.108561 S    
O24   C64   1.275085 A    
Zn5   O22   1.935386 S    
C88   H70   1.107219 S    
C4    C30   1.450323 S    
C52   N12   1.468734 S    
C69   H15   1.107289 S    
C80   O35   1.222899 D    
N6    C74   1.447784 S    
C27   H2    1.111352 S    
C97   O48   1.398565 S    
C37   C42   1.352061 A    
C68   H12   1.110392 S    
O2    C1    1.281461 A    
C93   H84   1.110972 S    
C21   C28   1.507273 S    
C51   C52   1.561009 S    
C31   C32   1.412724 A    
C40   N7    1.423209 S    
O10   C3    1.280749 A    
C44   H6    1.109933 S    
C7    C8    1.412608 A    
C49   C50   1.390407 A    
C72   H24   1.109019 S    
N12   H59   1.031058 S    
O16   C62   1.282477 A    
C22   C23   1.425232 A    
O48   H98   1.014005 S    
C59   N14   1.466769 S    
Zn5   O14   1.953734 S    
C87   H65   1.108917 S    
C96   H95   1.108924 S    
C85   H60   1.110862 S    
N20   C96   1.446404 S    
C89   O43   1.222948 D    
C45   C50   1.347735 A    
C29   C34   1.353932 A    
C87   H67   1.112041 S    
C90   H74   1.109488 S    
C57   C58   1.384036 A    
O28   H8    1.013813 S    
C36   N5    1.462727 S    
C39   H5    1.083635 S    
C76   H36   1.111896 S    
C60   N16   1.471879 S    
C25   C26   1.387242 A    
C21   C26   1.374607 A    
C40   C41   1.428864 A    
Zn3   O5    1.945804 S    
O30   H21   1.009998 S    
C9    C92   1.487792 S    
O17   C63   1.284485 A    
N14   C88   1.449445 S    
C14   C15   1.406619 A    
C85   H62   1.107577 S    
O11   C4    1.280996 A    
C13   C14   1.429279 A    
Zn7   O21   1.934801 S    
C92   O46   1.398567 S    
C30   C31   1.425692 A    
C14   C17   1.432136 A    
C44   C79   1.510663 S    
C95   H93   1.112152 S    
C17   N18   1.424319 S    
C15   C20   1.433939 A    
N5    H26   1.031770 S    
Zn4   O7    1.938319 S    
C90   H75   1.110747 S    
C86   O41   1.222020 D    
O32   H34   1.013824 S    
C84   O39   1.220986 D    
C2    C22   1.458563 S    
C94   H89   1.110273 S    
N1    C68   1.451335 S    
C74   H32   1.110754 S    
N19   H90   1.030613 S    
Zn4   O2    1.944140 S    
N9    H43   1.031614 S    
O25   C61   1.278544 A    
C75   O32   1.398723 S    
C29   C30   1.390557 A    
O3    C2    1.280018 A    
Zn7   O14   1.957844 S    
C18   N19   1.426432 S    
C73   H28   1.110293 S    
C55   C56   1.414464 A    
C37   C38   1.380992 A    
Zn2   O1    1.957697 S    
Zn1   O9    1.935490 S    
N16   H77   1.031721 S    
C59   C89   1.521918 S    
Zn2   O6    1.934901 S    
C96   H96   1.108349 S    
C23   C97   1.485556 S    
Zn6   O25   1.945656 S    
O36   H48   1.012822 S    
C94   H88   1.111141 S    
N6    H30   1.030858 S    
C57   C62   1.444022 S    
C52   C84   1.522375 S    
C35   C36   1.578828 S    
C68   H11   1.110264 S    
O21   C65   1.278217 A    
C33   C34   1.384615 A    
N7    H35   1.031896 S    
C82   H55   1.109118 S    
N10   C81   1.446907 S    
O46   H81   1.013925 S    
N4    C72   1.451181 S    
Zn1   O3    1.940394 S    
C33   C61   1.445907 S    
C77   H42   1.109932 S    
C47   C80   1.485183 S    
C26   C27   1.492695 S    
O44   H72   1.013827 S    
C85   H61   1.111050 S    
O38   H57   1.013832 S    
Zn3   O1    1.948966 S    
Zn6   O14   1.948968 S    
C89   O44   1.398024 S    
C53   C60   1.511876 S    
C80   O36   1.398828 S    
C91   H80   1.103212 S    
N20   H94   1.027781 S    
Zn1   O10   1.947590 S    
N4    H22   1.031228 S    
C97   O47   1.223125 D    
C70   H20   1.110427 S    
C81   H52   1.111241 S    
C3    C54   1.457770 S    
C71   O30   1.399383 S    
O6    C5    1.283342 A    
C15   C16   1.421222 A    
C94   H87   1.110024 S    
Zn4   O11   1.946137 S    
C77   H41   1.109294 S    
C71   O29   1.221426 D    
C8    C9    1.404872 A    
C11   C13   1.432074 A    
C81   H51   1.109452 S    
N8    C77   1.452381 S    
C7    N6    1.426134 S    
C42   C43   1.508145 S    
C39   C40   1.407772 A    
C54   C55   1.426578 A    
O5    C4    1.272485 A    
N14   H68   1.032165 S    
N13   H64   1.030289 S    
C67   O28   1.397909 S    
C78   H45   1.106782 S    
C53   C58   1.354605 A    
C70   H18   1.111602 S    
O23   C63   1.273194 A    
Zn4   O1    1.948067 S    
Zn7   O18   1.939276 S    
C20   N20   1.424755 S    
N7    C76   1.447048 S    
C92   O45   1.222984 D    
O13   C2    1.282413 A    
C79   O34   1.396611 S    
C91   H79   1.105566 S    
Zn3   O13   1.942747 S    
N1    H9    1.030325 S    
C74   H31   1.108997 S    
C43   C44   1.562056 S    
C46   C47   1.422198 A    
C45   C46   1.378330 A    
N2    C69   1.448417 S    
N18   H86   1.029095 S    
Zn8   O24   1.944188 S    
O19   C65   1.284731 A    
N13   C87   1.449872 S    
Zn6   O17   1.942748 S    
N15   H73   1.028456 S    
C41   C42   1.390147 A    
O22   C66   1.289997 A    
C28   H3    1.112683 S    
C27   C28   1.534485 S    
C1    C38   1.440741 S    
C7    C12   1.437451 A    
C48   C49   1.433439 A    
Zn8   O14   1.948066 S    
O12   C1    1.274999 A    
O42   H63   1.009798 S    
C95   H91   1.109664 S    
C10   C11   1.436190 A    
C73   H27   1.107612 S    
C69   H14   1.111177 S    
N11   H53   1.030280 S    
C81   H50   1.110142 S    
C75   O31   1.222423 D    
C58   C59   1.500280 S    
C93   H85   1.111276 S    
C88   H71   1.110351 S    
C35   C71   1.511391 S    
C72   H23   1.110325 S    
N10   H49   1.029845 S    
C32   H4    1.083851 S    
N3    H17   1.031621 S    
C78   H46   1.108563 S    
C60   N15   1.456990 S    
