data_mof_unit_14647.cif
_audit_creation_date              2012-12-11T16:51:26-0500
_audit_creation_method            fapswitch 2.2
_symmetry_space_group_name_H-M    P1
_symmetry_Int_Tables_number       1
_space_group_crystal_system       triclinic
_cell_length_a                    24.442376
_cell_length_b                    17.211777
_cell_length_c                    15.56562
_cell_angle_alpha                 89.862027
_cell_angle_beta                  129.148954
_cell_angle_gamma                 90.141922
_cell_volume                      5078.31736736

loop_
_atom_site_label
_atom_site_type_symbol
_atom_type_description
_atom_site_fract_x
_atom_site_fract_y
_atom_site_fract_z
_atom_type_partial_charge
C1    C     C_R   0.832421 0.892781 0.198360 -0.141015
C2    C     C_R   0.183846 0.120987 0.503261 0.091210
C3    C     C_3   0.205212 0.676751 0.672201 -0.410498
C4    C     C_3   0.275794 0.694881 0.786292 -0.271954
C5    C     C_3   0.269142 0.688129 0.877021 -0.907908
C6    C     C_3   0.298144 0.174584 0.331923 -0.408620
C7    C     C_3   0.228080 0.189966 0.215983 -0.273356
C8    C     C_3   0.236238 0.179135 0.127421 -0.905735
C9    C     C_3   0.852104 0.397603 0.700042 -0.429924
C10   C     C_3   0.843974 0.485845 0.685227 -0.223986
C11   C     C_3   0.881547 0.526016 0.796962 -0.970633
C12   C     C_R   0.316263 0.620887 0.496900 0.092041
C13   C     C_R   0.682472 0.624016 0.502603 0.088722
C14   C     C_R   0.878581 0.175635 0.194462 0.148438
C15   C     C_R   0.119754 0.181328 0.793686 0.148377
C16   C     C_R   0.385605 0.685635 0.216469 0.149700
C17   C     C_R   0.614908 0.685051 0.784586 0.148555
C18   C     C_R   0.842971 0.731701 0.607491 0.131311
C19   C     C_R   0.155213 0.727628 0.392163 0.134806
C20   C     C_R   0.345160 0.227665 0.608781 0.134808
C21   C     C_R   0.167627 0.892933 0.801747 -0.141564
C22   C     C_R   0.719104 0.335290 0.394465 0.127948
C23   C     C_R   0.836122 0.740090 0.511550 -0.034586
C24   C     C_R   0.164677 0.739663 0.489832 -0.037053
C25   C     C_R   0.336253 0.239175 0.511449 -0.036468
C26   C     C_R   0.740574 0.363798 0.496245 -0.030015
C27   C     C_R   0.792931 0.686164 0.423715 0.135217
C28   C     C_R   0.208752 0.686923 0.579215 0.133030
C29   C     C_R   0.292791 0.185926 0.422760 0.132383
C30   C     C_R   0.813431 0.354515 0.590992 0.141244
C31   C     C_R   0.245334 0.139403 0.423399 -0.263371
C32   C     C_R   0.333272 0.390995 0.199186 -0.141615
C33   C     C_R   0.851654 0.296193 0.586562 -0.278624
C34   C     C_R   0.744841 0.640819 0.424046 -0.273325
C35   C     C_R   0.255802 0.640242 0.578173 -0.263982
C36   C     C_R   0.243852 0.145049 0.511806 0.007547
C37   C     C_R   0.819125 0.251123 0.491103 0.022125
C38   C     C_R   0.741814 0.649172 0.510599 0.001898
C39   C     C_R   0.256516 0.645153 0.488891 0.007484
C40   C     C_R   0.300040 0.180848 0.609025 0.155710
C41   C     C_R   0.758182 0.279608 0.392146 0.162040
C42   C     C_R   0.796503 0.687035 0.606573 0.158306
C43   C     C_R   0.667058 0.390508 0.799402 -0.117889
C44   C     C_R   0.200035 0.680674 0.391636 0.156623
C45   C     C_3   0.794287 0.741246 0.679168 -0.510245
C46   C     C_3   0.199165 0.731803 0.312955 -0.513437
C47   C     C_3   0.300334 0.232340 0.686589 -0.512252
C48   C     C_3   0.694751 0.238371 0.295247 -0.525688
C49   C     C_R   0.084647 0.854958 0.407153 -0.135579
C50   C     C_R   0.916543 0.854306 0.593023 -0.133827
C51   C     C_R   0.615753 0.401991 0.409392 -0.143594
C52   C     C_R   0.415720 0.354771 0.593155 -0.133609
C53   C     C_3   0.845442 0.791336 0.680492 -0.496066
C54   C     C_R   0.901082 0.135815 0.590063 -0.131994
C55   C     C_3   0.150075 0.784140 0.313532 -0.498371
C56   C     C_3   0.349751 0.284574 0.686282 -0.498671
C57   C     C_3   0.651250 0.298654 0.297261 -0.497666
C58   C     C_2   0.194399 0.849316 0.981072 -0.228109
C59   C     C_2   0.805915 0.848903 0.019542 -0.227563
C60   C     C_2   0.694093 0.345932 0.977996 -0.222527
C61   C     C_2   0.309099 0.344165 0.023350 -0.227873
C62   C     C_2   0.264562 0.848232 0.040855 -0.118148
C63   C     C_2   0.735773 0.847852 0.959659 -0.113918
C64   C     C_2   0.763946 0.345875 0.035980 -0.114249
C65   C     C_R   0.115728 0.104275 0.409588 -0.139196
C66   C     C_2   0.238903 0.346756 0.961148 -0.118326
C67   C     C_2   0.853193 0.247608 0.131031 -0.217788
C68   C     C_2   0.144186 0.255234 0.853021 -0.231938
C69   C     C_2   0.362099 0.760340 0.158215 -0.229767
C70   C     C_2   0.638679 0.759333 0.843479 -0.231267
C71   C     C_2   0.805932 0.290829 0.126108 -0.109950
C72   C     C_2   0.196748 0.294295 0.867443 -0.096324
C73   C     C_2   0.306559 0.797144 0.137026 -0.095523
C74   C     C_2   0.693767 0.796791 0.863716 -0.095014
C75   C     C_R   0.162963 0.856238 0.591528 -0.142587
C76   C     C_R   0.384359 0.604076 0.590460 -0.141626
C77   C     C_R   0.837942 0.855518 0.408728 -0.141387
C78   C     C_R   0.688272 0.396874 0.592466 -0.131235
C79   C     C_R   0.337392 0.355832 0.408814 -0.140292
C80   C     C_R   0.077341 0.894348 0.803844 -0.163955
C81   C     C_R   0.922846 0.894151 0.196525 -0.163492
C82   C     C_R   0.577251 0.393339 0.803240 -0.170621
C83   C     C_R   0.425111 0.390504 0.199980 -0.145338
C84   C     C_R   0.852304 0.874901 0.134963 0.153228
C85   C     C_R   0.147887 0.875194 0.865448 0.154235
C86   C     C_R   0.354572 0.371107 0.138010 0.148147
C87   C     C_R   0.615013 0.605597 0.409165 -0.137502
C88   C     C_R   0.647401 0.372891 0.863320 0.156594
C89   C     C_R   0.136903 0.811793 0.498120 0.071718
C90   C     C_R   0.864723 0.810924 0.502349 0.068938
C91   C     C_R   0.684602 0.385531 0.501103 0.076142
C92   C     C_R   0.363758 0.311370 0.502498 0.070602
C93   C     C_R   0.828153 0.134557 0.405900 -0.148268
C94   C     C_R   0.188505 0.103082 0.593396 -0.154806
C95   C     C_R   0.311504 0.603012 0.406686 -0.155451
C96   C     C_R   0.687697 0.605560 0.593211 -0.170264
C97   C     C_R   0.939812 0.136601 0.234500 -0.145536
C98   C     C_R   0.847052 0.175855 0.496101 0.088489
C99   C     C_R   0.062691 0.138033 0.765966 -0.147613
C100  C     C_R   0.443051 0.642328 0.245446 -0.150550
C101  C     C_R   0.557183 0.641896 0.755034 -0.149883
C102  C     C_R   0.150593 0.140301 0.757968 -0.116206
C103  C     C_R   0.845445 0.134265 0.226523 -0.124692
C104  C     C_R   0.648540 0.642210 0.754611 -0.115637
C105  C     C_R   0.351872 0.642490 0.246264 -0.116596
C106  C     C_3   0.798134 0.674115 0.332807 -0.412422
C107  C     C_3   0.728280 0.691043 0.217167 -0.269206
C108  C     C_3   0.736916 0.684121 0.128655 -0.907989
H1    H     H_    0.779436 0.894909 0.171191 0.087096
H2    H     H_    0.251174 0.759132 0.350724 0.201656
H3    H     H_    0.248224 0.259580 0.647866 0.201900
H4    H     H_    0.690850 0.242261 0.220206 0.183363
H5    H     H_    0.817696 0.715513 0.761387 0.181539
H6    H     H_    0.173355 0.703408 0.231497 0.183267
H7    H     H_    0.325748 0.204290 0.768243 0.182995
H8    H     H_    0.687573 0.179230 0.315798 0.199673
H9    H     H_    0.822447 0.848261 0.638628 0.203853
H10   H     H_    0.173908 0.841737 0.351658 0.201924
H11   H     H_    0.325993 0.342022 0.647346 0.202066
H12   H     H_    0.220581 0.895162 0.828770 0.086908
H13   H     H_    0.621731 0.336626 0.222670 0.183150
H14   H     H_    0.898145 0.794630 0.763900 0.182884
H15   H     H_    0.096251 0.786190 0.231863 0.183179
H16   H     H_    0.403369 0.286942 0.768295 0.183258
H17   H     H_    0.619145 0.272936 0.318147 0.204226
H18   H     H_    0.789446 0.276100 0.174700 0.128187
H19   H     H_    0.217407 0.276844 0.825881 0.126562
H20   H     H_    0.284043 0.778677 0.175521 0.125690
H21   H     H_    0.715895 0.778982 0.824492 0.126291
H22   H     H_    0.289453 0.873474 0.009240 0.129811
H23   H     H_    0.280005 0.392627 0.170914 0.087086
H24   H     H_    0.710851 0.873093 0.991050 0.129208
H25   H     H_    0.788148 0.373699 0.004725 0.126127
H26   H     H_    0.213702 0.375449 0.990006 0.129736
H27   H     H_    0.869439 0.262308 0.082097 0.129153
H28   H     H_    0.123967 0.273485 0.895086 0.128048
H29   H     H_    0.384428 0.779657 0.119619 0.128204
H30   H     H_    0.616880 0.777825 0.883088 0.128520
H31   H     H_    0.170204 0.823453 0.013689 0.132822
H32   H     H_    0.830140 0.822981 0.987178 0.132531
H33   H     H_    0.670591 0.317398 0.010183 0.128444
H34   H     H_    0.719499 0.390350 0.824262 0.080158
H35   H     H_    0.333592 0.314778 0.993547 0.133664
H36   H     H_    0.052163 0.837940 0.321463 0.108733
H37   H     H_    0.948885 0.837268 0.678787 0.109142
H38   H     H_    0.596338 0.412640 0.325981 0.099663
H39   H     H_    0.448195 0.337813 0.678914 0.109204
H40   H     H_    0.205350 0.842071 0.676729 0.109406
H41   H     H_    0.795458 0.841074 0.323688 0.109485
H42   H     H_    0.733686 0.398311 0.678222 0.101215
H43   H     H_    0.295015 0.341308 0.323733 0.107624
H44   H     H_    0.048658 0.898224 0.835331 0.092597
H45   H     H_    0.207579 0.102538 0.353531 0.130940
H46   H     H_    0.951630 0.897995 0.165182 0.091883
H47   H     H_    0.548967 0.397127 0.835414 0.092728
H48   H     H_    0.455437 0.391766 0.171172 0.092496
H49   H     H_    0.784700 0.145118 0.320811 0.099111
H50   H     H_    0.236352 0.096488 0.677957 0.098367
H51   H     H_    0.263625 0.596619 0.322116 0.098664
H52   H     H_    0.735592 0.600649 0.678003 0.113184
H53   H     H_    0.977296 0.151271 0.221885 0.097634
H54   H     H_    0.032161 0.150244 0.792243 0.086884
H55   H     H_    0.480531 0.658605 0.233462 0.099344
H56   H     H_    0.904178 0.281336 0.660539 0.130190
H57   H     H_    0.519676 0.657923 0.766951 0.099422
H58   H     H_    0.197794 0.154458 0.769311 0.087457
H59   H     H_    0.792182 0.142678 0.195568 0.083195
H60   H     H_    0.696090 0.656774 0.767247 0.088471
H61   H     H_    0.304653 0.657071 0.234503 0.088032
H62   H     H_    0.922274 0.147575 0.673759 0.088269
H63   H     H_    0.096758 0.101421 0.325352 0.086793
H64   H     H_    0.403460 0.601178 0.674784 0.086969
H65   H     H_    0.596164 0.602643 0.324998 0.084776
H66   H     H_    0.774352 0.728758 0.141616 0.269270
H67   H     H_    0.707716 0.602977 0.355054 0.132345
H68   H     H_    0.756651 0.625461 0.130929 0.264626
H69   H     H_    0.685011 0.692837 0.045908 0.249109
H70   H     H_    0.687271 0.648852 0.197242 0.192871
H71   H     H_    0.709185 0.750253 0.214026 0.190661
H72   H     H_    0.841093 0.709997 0.347362 0.194244
H73   H     H_    0.812933 0.612533 0.335915 0.186459
H74   H     H_    0.231932 0.732448 0.865015 0.269496
H75   H     H_    0.250143 0.629318 0.876592 0.265103
H76   H     H_    0.321645 0.697387 0.958598 0.248003
H77   H     H_    0.316832 0.653231 0.805542 0.193595
H78   H     H_    0.293965 0.603947 0.648597 0.131056
H79   H     H_    0.294003 0.754292 0.787412 0.190595
H80   H     H_    0.162538 0.712683 0.658069 0.193467
H81   H     H_    0.190833 0.615295 0.671569 0.187715
H82   H     H_    0.271463 0.224577 0.135241 0.270686
H83   H     H_    0.258281 0.120857 0.134739 0.264608
H84   H     H_    0.183690 0.183427 0.044635 0.248020
H85   H     H_    0.187039 0.148724 0.198081 0.193928
H86   H     H_    0.209242 0.249806 0.210464 0.190171
H87   H     H_    0.340438 0.211416 0.345845 0.194059
H88   H     H_    0.314088 0.113366 0.336044 0.188468
H89   H     H_    0.741799 0.768911 0.636064 0.203923
H90   H     H_    0.856378 0.509681 0.833941 0.257087
H91   H     H_    0.938141 0.509405 0.854634 0.266111
H92   H     H_    0.878379 0.589881 0.786082 0.254086
H93   H     H_    0.866957 0.506525 0.646328 0.199528
H94   H     H_    0.787553 0.501943 0.630217 0.202493
H95   H     H_    0.837411 0.374710 0.749344 0.175700
H96   H     H_    0.909671 0.385545 0.752755 0.184144
N1    N     N_R   0.888400 0.921830 0.294620 -0.041166
N2    N     N_R   0.874350 0.922400 0.443380 -0.041619
N3    N     N_R   0.625650 0.422400 0.556620 -0.039896
N4    N     N_R   0.374350 0.422400 0.443380 -0.039740
N5    N     N_R   0.054230 0.922730 0.705400 -0.039755
N6    N     N_R   0.945770 0.922730 0.294600 -0.039702
N7    N     N_R   0.554230 0.422730 0.705400 -0.040146
N8    N     N_R   0.445770 0.422730 0.294600 -0.040725
N9    N     N_R   0.873790 0.077030 0.443380 -0.039388
N10   N     N_R   0.126210 0.077030 0.556620 -0.038841
N11   N     N_R   0.373790 0.577030 0.443380 -0.038380
N12   N     N_R   0.111600 0.921830 0.705380 -0.041337
N13   N     N_R   0.626210 0.577030 0.556620 -0.035544
N14   N     N_R   0.945200 0.076700 0.294600 -0.040037
N15   N     N_R   0.054800 0.076700 0.705400 -0.038464
N16   N     N_R   0.445200 0.576700 0.294600 -0.041234
N17   N     N_R   0.554800 0.576700 0.705400 -0.040558
N18   N     N_R   0.111030 0.077600 0.705380 -0.044154
N19   N     N_R   0.888970 0.077600 0.294620 -0.041908
N20   N     N_R   0.611030 0.577600 0.705380 -0.044914
N21   N     N_R   0.388970 0.577600 0.294620 -0.044654
N22   N     N_R   0.919490 0.077280 0.556590 -0.039041
N23   N     N_R   0.388400 0.421830 0.294620 -0.042468
N24   N     N_R   0.080510 0.077280 0.443410 -0.037921
N25   N     N_R   0.419490 0.577280 0.556590 -0.037290
N26   N     N_R   0.580510 0.577280 0.443410 -0.035776
N27   N     N_R   0.611600 0.421830 0.705380 -0.044114
N28   N     N_R   0.079940 0.922160 0.443410 -0.040725
N29   N     N_R   0.920060 0.922160 0.556590 -0.042411
N30   N     N_R   0.579940 0.422160 0.443410 -0.038557
N31   N     N_R   0.420060 0.422160 0.556590 -0.040638
N32   N     N_R   0.125650 0.922400 0.556620 -0.039755
Ni1   Ni    Ni4+2 0.882160 0.999430 0.370180 0.209097
Ni2   Ni    Ni4+2 0.117840 0.999430 0.629820 0.206910
Ni3   Ni    Ni4+2 0.382160 0.499430 0.370180 0.206370
Ni4   Ni    Ni4+2 0.617840 0.499430 0.629820 0.205440
Ni5   Ni    Ni4+2 0.012460 0.999430 0.370180 0.208151
Ni6   Ni    Ni4+2 0.987540 0.999430 0.629820 0.211197
Ni7   Ni    Ni4+2 0.512460 0.499430 0.370180 0.205579
Ni8   Ni    Ni4+2 0.487540 0.499430 0.629820 0.207564

loop_
_geom_bond_atom_site_label_1
_geom_bond_atom_site_label_2
_ccdc_geom_bond_type
C58   H31   S    
C58   C62   D    
C40   C47   S    
C18   C42   A    
C103  H59   S    
C20   C25   A    
C2    C94   A    
C101  N17   A    
C69   H29   S    
C95   N11   A    
C62   H22   S    
C35   C39   A    
N17   Ni8   S    
C20   C56   S    
C2    C65   A    
C24   C89   S    
C22   C57   S    
C6    H88   S    
C60   C88   S    
C48   C57   S    
C1    C84   A    
C47   H7    S    
C78   H42   S    
N7    N27   A    
C65   H63   S    
C51   N30   A    
C95   H51   S    
C43   C88   A    
C56   H16   S    
C4    H79   S    
C3    C28   S    
N10   Ni2   S    
C17   C104  A    
C8    H84   S    
C38   C42   A    
N17   N20   A    
N9    Ni1   S    
C53   H14   S    
C3    H81   S    
C57   H17   S    
C20   C40   A    
C53   H9    S    
N22   Ni6   S    
C22   C41   A    
C106  C107  S    
C14   C67   S    
C8    H83   S    
C45   H89   S    
C96   N13   A    
C49   H36   S    
N28   N32   A    
N14   Ni5   S    
C76   H64   S    
C54   H62   S    
C78   N3    A    
C54   N22   A    
C36   C40   A    
C17   C101  A    
N9    N22   A    
C9    H95   S    
C18   C53   S    
C1    H1    S    
C66   H26   S    
N8    N23   A    
C5    H75   S    
C61   C66   D    
C50   C90   A    
C66   C72   S    
N24   Ni5   S    
C28   C35   A    
C8    H82   S    
C108  H66   S    
C46   C55   S    
C70   C74   D    
C107  C108  S    
C12   C95   A    
C69   C73   D    
N26   Ni7   S    
C105  N21   A    
C7    H85   S    
N2    N29   A    
N10   N24   A    
C9    C10   S    
C5    H76   S    
C67   C71   D    
C83   N8    A    
C82   C88   A    
N30   Ni7   S    
C48   H8    S    
C103  N19   A    
N21   Ni3   S    
C81   N6    A    
C45   C53   S    
C17   C70   S    
C94   H50   S    
N1    Ni1   S    
C3    H80   S    
C51   C91   A    
N16   N21   A    
N4    Ni3   S    
C106  H72   S    
C37   C98   S    
C31   H45   S    
C44   C46   S    
C55   H15   S    
C97   N14   A    
C27   C34   A    
C25   C29   A    
C87   H65   S    
N16   Ni7   S    
C21   C85   A    
C77   C90   A    
C94   N10   A    
N5    N12   A    
C46   H6    S    
C72   H19   S    
C64   C71   S    
N28   Ni5   S    
N14   N19   A    
C33   H56   S    
C59   C84   S    
N19   Ni1   S    
C77   H41   S    
N25   Ni8   S    
C16   C100  A    
C83   H48   S    
C13   C96   A    
C51   H38   S    
C26   C91   S    
C93   N9    A    
N18   Ni2   S    
C33   C37   A    
C81   H46   S    
C18   C23   A    
C65   N24   A    
N27   Ni4   S    
C42   C45   S    
C34   C38   A    
C4    H77   S    
C62   C73   S    
C50   N29   A    
C67   H27   S    
C48   H4    S    
C106  H73   S    
C80   C85   A    
C9    H96   S    
C60   H33   S    
C104  H60   S    
C99   H54   S    
C10   H94   S    
N4    N31   A    
C32   N23   A    
C68   H28   S    
C68   C72   D    
C32   C86   A    
C13   C87   A    
C83   C86   A    
C79   C92   A    
C21   N12   A    
C75   N32   A    
C71   H18   S    
C63   H24   S    
C7    H86   S    
C101  H57   S    
N20   Ni4   S    
N13   Ni4   S    
C13   C38   S    
C6    C7    S    
C105  H61   S    
N3    Ni4   S    
C82   H47   S    
C16   C105  A    
C50   H37   S    
N1    N6    A    
C96   H52   S    
C99   N15   A    
C26   C30   A    
C52   H39   S    
C23   C27   A    
C10   C11   S    
C12   C76   A    
C107  H70   S    
C11   H92   S    
C56   H11   S    
C52   C92   A    
N11   Ni3   S    
C3    C4    S    
C73   H20   S    
C58   C85   S    
N23   Ni3   S    
C81   C84   A    
C1    N1    A    
C19   C44   A    
C102  N18   A    
C14   C97   A    
C79   H43   S    
C82   N7    A    
C2    C36   S    
C80   H44   S    
C64   H25   S    
C25   C92   S    
C30   C33   A    
C107  H71   S    
N11   N25   A    
C59   C63   D    
N7    Ni8   S    
C16   C69   S    
C24   C28   A    
N6    Ni5   S    
C49   C89   A    
C4    C5    S    
N5    Ni6   S    
C6    H87   S    
C102  H58   S    
C70   H30   S    
C39   C44   A    
C63   C74   S    
C19   C55   S    
C78   C91   A    
N8    Ni7   S    
C87   N26   A    
C100  H55   S    
C34   H67   S    
C97   H53   S    
C27   C106  S    
N15   Ni6   S    
C60   C64   D    
N12   Ni2   S    
C93   C98   A    
C49   N28   A    
C61   H35   S    
C5    H74   S    
C11   H90   S    
C52   N31   A    
C9    C30   S    
C29   C31   A    
C46   H2    S    
C77   N2    A    
N15   N18   A    
C15   C99   A    
C93   H49   S    
C14   C103  A    
C59   H32   S    
C12   C39   S    
C35   H78   S    
C47   H3    S    
C15   C68   S    
C108  H68   S    
C75   H40   S    
C80   N5    A    
C41   C48   S    
N32   Ni2   S    
C108  H69   S    
C19   C24   A    
N2    Ni1   S    
C43   N27   A    
C15   C102  A    
C37   C41   A    
C10   H93   S    
C11   H91   S    
N31   Ni8   S    
C7    C8    S    
C61   C86   S    
C75   C89   A    
C57   H13   S    
C45   H5    S    
N29   Ni6   S    
C6    C29   S    
C100  N16   A    
C23   C90   S    
C22   C26   A    
C74   H21   S    
C76   N25   A    
C31   C36   A    
C54   C98   A    
C43   H34   S    
N13   N26   A    
C21   H12   S    
C104  N20   A    
C32   H23   S    
C79   N4    A    
N3    N30   A    
C47   C56   S    
C55   H10   S    
