data_mof_unit_35285.cif
_audit_creation_date              2012-12-10T20:21:37-0500
_audit_creation_method            fapswitch 2.2
_symmetry_space_group_name_H-M    P1
_symmetry_Int_Tables_number       1
_space_group_crystal_system       triclinic
_cell_length_a                    19.321845
_cell_length_b                    18.450092
_cell_length_c                    8.915467
_cell_angle_alpha                 90.005369
_cell_angle_beta                  89.905702
_cell_angle_gamma                 89.997023
_cell_volume                      3178.26888421

loop_
_atom_site_label
_atom_site_type_symbol
_atom_type_description
_atom_site_fract_x
_atom_site_fract_y
_atom_site_fract_z
_atom_type_partial_charge
C1    C     C_R   0.365584 0.500001 0.500086 0.914712
C2    C     C_R   0.634416 0.499997 0.499906 0.914710
C3    C     C_R   0.454383 0.726076 0.588792 0.023964
C4    C     C_R   0.537945 0.273911 0.395636 0.021952
C5    C     C_R   0.545617 0.726063 0.411209 0.024145
C6    C     C_R   0.462054 0.273925 0.604363 0.021814
C7    C     C_R   0.453520 0.802173 0.590431 -0.297976
C8    C     C_R   0.538494 0.197815 0.393418 -0.299854
C9    C     C_R   0.546481 0.802160 0.409571 -0.297963
C10   C     C_R   0.461503 0.197830 0.606582 -0.299865
C11   C     C_R   0.500001 0.841163 0.500001 0.173977
C12   C     C_R   0.499999 0.158821 0.500001 0.176314
C13   C     C_R   0.453411 0.961238 0.405916 0.113493
C14   C     C_R   0.546630 0.038740 0.593979 0.114068
C15   C     C_R   0.546589 0.961242 0.594088 0.113364
C16   C     C_R   0.453369 0.038736 0.406025 0.113999
C17   C     C_R   0.499999 0.077331 0.500002 -0.040177
C18   C     C_R   0.500000 0.922648 0.500001 -0.041369
C19   C     C_R   0.500033 0.499997 0.218389 0.943317
C20   C     C_R   0.499967 0.500002 0.781611 0.943311
C21   C     C_1   0.500013 0.499995 0.065313 -0.201221
C22   C     C_1   0.499987 0.500001 0.934687 -0.201222
C23   C     C_R   0.745684 0.434139 0.501962 -0.315087
C24   C     C_R   0.254296 0.565831 0.498332 -0.315710
C25   C     C_R   0.254311 0.434158 0.502590 -0.315006
C26   C     C_R   0.745708 0.565803 0.496873 -0.315512
C27   C     C_R   0.817902 0.433589 0.501774 0.397296
C28   C     C_R   0.182076 0.566349 0.498414 0.397848
C29   C     C_R   0.182092 0.433621 0.502573 0.397455
C30   C     C_R   0.817929 0.566311 0.496801 0.397967
C31   C     C_R   0.853464 0.499940 0.499296 -0.007438
C32   C     C_R   0.146540 0.499980 0.500440 -0.007491
C33   C     C_R   0.709667 0.499982 0.499593 -0.116878
C34   C     C_R   0.290333 0.499998 0.500335 -0.116875
C35   C     C_R   0.964351 0.527490 0.375682 -0.124508
C36   C     C_R   0.035660 0.472391 0.624003 -0.124593
C37   C     C_R   0.036050 0.527518 0.375995 -0.124081
C38   C     C_R   0.963962 0.472372 0.623699 -0.123947
C39   C     C_R   0.071534 0.499970 0.500156 0.209370
C40   C     C_R   0.928474 0.499921 0.499540 0.209156
H1    H     H_    0.717816 0.383186 0.503653 0.166966
H2    H     H_    0.282150 0.616795 0.497013 0.164289
H3    H     H_    0.282175 0.383200 0.503953 0.166715
H4    H     H_    0.717856 0.616767 0.495206 0.163973
H5    H     H_    0.936782 0.548504 0.279295 0.150437
H6    H     H_    0.063232 0.451375 0.720385 0.150358
H7    H     H_    0.063926 0.548548 0.279843 0.150449
H8    H     H_    0.936089 0.451352 0.719865 0.150630
H9    H     H_    0.418501 0.696187 0.658538 0.126833
H10   H     H_    0.567840 0.303778 0.313673 0.128378
H11   H     H_    0.581500 0.696163 0.341463 0.126336
H12   H     H_    0.432158 0.303803 0.686323 0.128043
H13   H     H_    0.416822 0.830483 0.661246 0.138973
H14   H     H_    0.568597 0.169509 0.309252 0.137897
H15   H     H_    0.583180 0.830459 0.338757 0.138849
H16   H     H_    0.431401 0.169535 0.690748 0.137805
N1    N     N_R   0.500000 0.689440 0.500000 -0.090792
N2    N     N_R   0.500000 0.310560 0.500000 -0.090864
O1    O     O_R   0.398180 0.560840 0.499960 -0.630519
O2    O     O_R   0.601820 0.439160 0.500040 -0.627062
O3    O     O_R   0.601820 0.560840 0.500040 -0.630375
O4    O     O_R   0.398180 0.439160 0.499960 -0.626945
O5    O     O_R   0.500000 0.560800 0.285330 -0.618793
O6    O     O_R   0.500000 0.439200 0.714670 -0.624026
O7    O     O_R   0.500000 0.560800 0.714670 -0.618546
O8    O     O_R   0.500000 0.439200 0.285330 -0.623788
Zn1   Zn    Zn3+2 0.500000 0.581210 0.500000 0.943853
Zn2   Zn    Zn3+2 0.500000 0.418790 0.500000 0.941888
O9    O     O_3   0.854812 0.369396 0.501892 -0.758610
H17   H     H_    0.821972 0.328092 0.503563 0.335724
O10   O     O_3   0.145136 0.630523 0.498626 -0.758965
H18   H     H_    0.177960 0.671842 0.497274 0.334848
O11   O     O_3   0.145177 0.369436 0.502392 -0.758519
H19   H     H_    0.178012 0.328124 0.503785 0.335706
O12   O     O_3   0.854865 0.630483 0.496563 -0.759002
H20   H     H_    0.822043 0.671803 0.494934 0.334847
C41   C     C_3   0.404577 0.918962 0.303509 -0.381664
C42   C     C_3   0.437550 0.905034 0.150378 -0.882336
H21   H     H_    0.451857 0.956763 0.095091 0.249827
H22   H     H_    0.484724 0.871295 0.162153 0.269765
H23   H     H_    0.400331 0.875820 0.077385 0.251864
H24   H     H_    0.389536 0.866266 0.353470 0.212517
H25   H     H_    0.354465 0.947101 0.288614 0.210147
C43   C     C_3   0.597315 0.081029 0.692024 -0.396467
C44   C     C_3   0.665235 0.095350 0.609239 -0.857891
H26   H     H_    0.689315 0.043866 0.571520 0.252055
H27   H     H_    0.656265 0.130183 0.509837 0.262769
H28   H     H_    0.701848 0.123624 0.685199 0.252453
H29   H     H_    0.575232 0.133558 0.728776 0.211814
H30   H     H_    0.608141 0.052780 0.798927 0.208553
C45   C     C_3   0.595423 0.918971 0.696496 -0.381521
C46   C     C_3   0.562449 0.905060 0.849626 -0.882245
H31   H     H_    0.599668 0.875849 0.922620 0.251895
H32   H     H_    0.548140 0.956796 0.904913 0.249786
H33   H     H_    0.515276 0.871325 0.837850 0.269762
H34   H     H_    0.610465 0.866269 0.646535 0.212635
H35   H     H_    0.645534 0.947106 0.711393 0.210173
C47   C     C_3   0.402682 0.081020 0.307984 -0.396465
C48   C     C_3   0.334763 0.095354 0.390772 -0.857639
H36   H     H_    0.310685 0.043876 0.428493 0.251962
H37   H     H_    0.343732 0.130196 0.490172 0.262676
H38   H     H_    0.298148 0.123623 0.314813 0.252716
H39   H     H_    0.424763 0.133544 0.271231 0.211875
H40   H     H_    0.391856 0.052763 0.201080 0.208537

loop_
_geom_bond_atom_site_label_1
_geom_bond_atom_site_label_2
_ccdc_geom_bond_type
C15   C18   A    
O8    Zn2   S    
C11   C18   S    
C24   H2    S    
O11   H19   S    
C6    N2    A    
C14   C43   S    
C4    C8    A    
C1    O4    A    
C25   H3    S    
C3    H9    S    
C26   H4    S    
C41   C42   S    
C7    C11   A    
C13   C18   A    
O6    Zn2   S    
C35   C37   A    
C29   C32   A    
C3    C7    A    
C1    O1    A    
C30   C31   A    
C2    O2    A    
C29   O11   S    
C41   H25   S    
C47   H39   S    
C31   C40   S    
C19   O8    A    
C32   C39   S    
O1    Zn1   S    
C45   H34   S    
C19   O5    A    
C16   C17   A    
O7    Zn1   S    
C12   C17   S    
C36   H6    S    
C9    H15   S    
C23   C27   A    
C37   H7    S    
C10   H16   S    
C38   H8    S    
C27   O9    S    
C2    O3    A    
C25   C34   A    
C21   C22   T    
C14   C17   A    
C43   H30   S    
N1    Zn1   S    
C1    C34   S    
C13   C41   S    
C44   H27   S    
C25   C29   A    
O5    Zn1   S    
C27   C31   A    
C20   O7    A    
C28   C32   A    
C43   C44   S    
C8    H14   S    
C45   C46   S    
C42   H21   S    
C23   C33   A    
C44   H26   S    
C46   H33   S    
C24   C34   A    
C4    H10   S    
C20   O6    A    
O12   H20   S    
C5    C9    A    
O3    Zn1   S    
C26   C33   A    
C48   H36   S    
C8    C12   A    
C46   H32   S    
C45   H35   S    
C9    C11   A    
C10   C12   A    
C3    N1    A    
C2    C33   S    
N2    Zn2   S    
C48   H37   S    
C20   C22   S    
C26   C30   A    
C28   O10   S    
C43   H29   S    
C7    H13   S    
C35   H5    S    
C44   H28   S    
C19   C21   S    
C36   C39   A    
C24   C28   A    
C6    C10   A    
O4    Zn2   S    
C23   H1    S    
C5    N1    A    
C36   C38   A    
C35   C40   A    
O10   H18   S    
C37   C39   A    
C38   C40   A    
C30   O12   S    
C42   H23   S    
C16   C47   S    
C41   H24   S    
C47   H40   S    
C46   H31   S    
C42   H22   S    
O9    H17   S    
C15   C45   S    
C48   H38   S    
O2    Zn2   S    
C47   C48   S    
C13   C16   A    
C4    N2    A    
C14   C15   A    
C5    H11   S    
C6    H12   S    
