data_mof_unit_30053.cif
_audit_creation_date              2012-12-11T14:40:03-0500
_audit_creation_method            fapswitch 2.2
_symmetry_space_group_name_H-M    P1
_symmetry_Int_Tables_number       1
_space_group_crystal_system       triclinic
_cell_length_a                    19.651448
_cell_length_b                    10.950428
_cell_length_c                    19.416093
_cell_angle_alpha                 89.975183
_cell_angle_beta                  97.562068
_cell_angle_gamma                 90.044487
_cell_volume                      4141.84371594

loop_
_atom_site_label
_atom_site_type_symbol
_atom_type_description
_atom_site_fract_x
_atom_site_fract_y
_atom_site_fract_z
_atom_type_partial_charge
C1    C     C_R   0.726212 0.950125 0.360113 0.541469
C2    C     C_R   0.273044 0.947772 0.641155 0.540226
C3    C     C_R   0.225799 0.451999 0.360495 0.546256
C4    C     C_R   0.772864 0.447517 0.641459 0.541238
C5    C     C_3   0.706144 0.271589 0.498276 -0.134674
C6    C     C_3   0.320157 0.328930 0.508895 -0.132909
C7    C     C_3   0.218458 0.796456 0.485078 -0.099765
C8    C     C_3   0.821362 0.821234 0.508312 -0.131273
C9    C     C_3   0.732445 0.347014 0.440511 0.043082
C10   C     C_3   0.267970 0.346526 0.560245 0.043581
C11   C     C_3   0.244749 0.889800 0.435173 0.048642
C12   C     C_3   0.768999 0.837361 0.559548 0.039706
C13   C     C_3   0.707027 0.466440 0.469570 -0.102355
C14   C     C_3   0.253949 0.478500 0.536511 -0.099040
C15   C     C_3   0.213140 0.995681 0.470849 -0.121255
C16   C     C_3   0.753866 0.968722 0.535844 -0.099289
C17   C     C_3   0.778215 0.480358 0.513331 -0.121313
C18   C     C_3   0.195150 0.430307 0.482933 -0.118570
C19   C     C_3   0.282424 0.007656 0.518555 -0.117720
C20   C     C_3   0.695697 0.919766 0.482057 -0.117903
C21   C     C_3   0.803458 0.361535 0.483492 -0.114447
C22   C     C_3   0.209329 0.298100 0.507294 -0.117509
C23   C     C_3   0.313477 0.901134 0.481837 -0.127301
C24   C     C_3   0.710852 0.787714 0.506288 -0.117057
C25   C     C_3   0.777703 0.286815 0.542086 -0.139974
C26   C     C_3   0.261088 0.281459 0.454472 -0.155265
C27   C     C_3   0.287690 0.809396 0.532895 -0.135738
C28   C     C_3   0.762674 0.773218 0.453319 -0.153892
C29   C     C_3   0.752488 0.405355 0.571475 0.070759
C30   C     C_3   0.246692 0.412334 0.430703 0.065414
C31   C     C_3   0.256619 0.915580 0.569100 0.071344
C32   C     C_3   0.747646 0.904859 0.429803 0.064754
C33   C     C_3   0.558430 0.263442 0.963366 -0.117280
C34   C     C_3   0.512603 0.278955 0.021535 -0.097459
C35   C     C_3   0.042254 0.774289 0.966945 -0.111199
C36   C     C_3   0.994991 0.762885 0.024484 -0.094228
C37   C     C_3   0.596437 0.157661 0.004544 -0.031425
C38   C     C_3   0.462242 0.184547 0.986544 -0.007378
C39   C     C_3   0.092519 0.680983 0.005094 -0.034287
C40   C     C_3   0.957839 0.654350 0.986696 -0.007048
C41   C     C_3   0.550519 0.173418 0.062157 0.047414
C42   C     C_3   0.506926 0.169952 0.928344 0.053607
C43   C     C_3   0.046302 0.671519 0.062519 0.051535
C44   C     C_3   0.003522 0.667027 0.929037 0.055977
C45   C     C_R   0.535362 0.179944 0.338002 0.543827
C46   C     C_R   0.465127 0.179906 0.662370 0.531171
C47   C     C_R   0.035449 0.679942 0.338072 0.551766
C48   C     C_R   0.965288 0.679883 0.662485 0.532723
C49   C     C_3   0.499426 0.079043 0.026604 -0.093853
C50   C     C_3   0.545041 0.063381 0.967675 -0.115942
C51   C     C_3   0.008477 0.562862 0.024850 -0.099987
C52   C     C_3   0.053937 0.573832 0.965696 -0.121762
C53   C     C_1   0.762163 0.426262 0.904130 -0.016444
C54   C     C_1   0.239637 0.414417 0.099295 -0.001159
C55   C     C_1   0.269560 0.943281 0.909554 -0.015563
C56   C     C_1   0.744986 0.902076 0.103005 -0.007676
C57   C     C_1   0.747884 0.413802 0.035433 -0.052424
C58   C     C_1   0.256150 0.379874 0.970505 -0.066279
C59   C     C_1   0.257008 0.935748 0.041781 -0.048093
C60   C     C_1   0.767500 0.855372 0.976065 -0.059802
C61   C     C_1   0.753649 0.419015 0.964125 -0.068534
C62   C     C_1   0.248872 0.395350 0.040596 -0.054321
C63   C     C_1   0.263953 0.942031 0.970541 -0.061618
C64   C     C_1   0.758319 0.874924 0.046142 -0.054238
C65   C     C_1   0.743433 0.399433 0.095979 -0.005591
C66   C     C_1   0.263621 0.360625 0.911264 -0.015536
C67   C     C_1   0.248966 0.914604 0.100979 -0.007129
C68   C     C_1   0.772413 0.839689 0.915456 -0.015506
C69   C     C_R   0.724971 0.311266 0.367818 0.560990
C70   C     C_R   0.275251 0.310471 0.632494 0.559676
C71   C     C_R   0.239217 0.862337 0.362224 0.541234
C72   C     C_R   0.775855 0.807429 0.632962 0.563760
C73   C     C_R   0.723254 0.948802 0.165546 0.536848
C74   C     C_R   0.279902 0.957430 0.838466 0.540162
C75   C     C_R   0.222460 0.450663 0.164928 0.537537
C76   C     C_R   0.777797 0.452300 0.836033 0.537464
C77   C     C_R   0.566108 0.182718 0.137863 0.565054
C78   C     C_R   0.472511 0.178575 0.857453 0.542179
C79   C     C_R   0.064898 0.682372 0.137469 0.564320
C80   C     C_R   0.971652 0.678123 0.857824 0.540886
C81   C     C_R   0.736229 0.361742 0.164922 0.545792
C82   C     C_R   0.274482 0.321195 0.843937 0.553829
C83   C     C_R   0.237517 0.865634 0.166802 0.531601
C84   C     C_R   0.777337 0.812371 0.843964 0.557339
C85   C     C_1   0.487149 0.171154 0.595534 -0.020915
C86   C     C_1   0.514649 0.171506 0.405441 -0.019402
C87   C     C_1   0.987718 0.671053 0.595822 -0.020102
C88   C     C_1   0.015031 0.671454 0.405649 -0.016443
C89   C     C_1   0.505147 0.167173 0.465187 -0.067292
C90   C     C_1   0.497331 0.166847 0.535983 -0.068664
C91   C     C_1   0.005761 0.667030 0.465471 -0.065418
C92   C     C_1   0.998064 0.666678 0.536311 -0.068921
C93   C     C_3   0.682052 0.391960 0.528699 0.000762
C94   C     C_3   0.305034 0.460443 0.483664 0.008654
C95   C     C_3   0.188434 0.904037 0.522292 -0.001273
C96   C     C_3   0.805443 0.952903 0.483437 0.009785
Cr1   Cr    Cr6+3 0.765830 0.160660 0.268180 1.007914
Cr2   Cr    Cr6+3 0.234170 0.160660 0.731820 1.013355
Cr3   Cr    Cr6+3 0.265830 0.660660 0.268180 1.012026
Cr4   Cr    Cr6+3 0.734170 0.660660 0.731820 1.009672
Cr5   Cr    Cr6+3 0.612110 0.009150 0.248770 1.019723
Cr6   Cr    Cr6+3 0.387890 0.009150 0.751230 1.021205
Cr7   Cr    Cr6+3 0.112110 0.509150 0.248770 1.024356
Cr8   Cr    Cr6+3 0.887890 0.509150 0.751230 1.019128
Cr9   Cr    Cr6+3 0.615930 0.324050 0.248450 1.019118
Cr10  Cr    Cr6+3 0.384070 0.324050 0.751550 1.022329
Cr11  Cr    Cr6+3 0.115930 0.824050 0.248450 1.021732
Cr12  Cr    Cr6+3 0.884070 0.824050 0.751550 1.022971
H1    H     H_    0.675069 0.187085 0.489749 0.102064
H2    H     H_    0.371808 0.288261 0.521388 0.116932
H3    H     H_    0.191400 0.710085 0.468758 0.110212
H4    H     H_    0.873047 0.781016 0.520797 0.118694
H5    H     H_    0.677369 0.538106 0.438309 0.121237
H6    H     H_    0.250600 0.556833 0.572083 0.117783
H7    H     H_    0.180620 0.066492 0.442104 0.112775
H8    H     H_    0.748589 0.043793 0.572862 0.120526
H9    H     H_    0.311337 0.090895 0.536385 0.108106
H10   H     H_    0.643694 0.960503 0.470465 0.122899
H11   H     H_    0.809776 0.564093 0.522401 0.107690
H12   H     H_    0.143545 0.472491 0.471008 0.124251
H13   H     H_    0.854050 0.350876 0.464594 0.135432
H14   H     H_    0.169463 0.232394 0.519210 0.130129
H15   H     H_    0.364708 0.901704 0.463602 0.127053
H16   H     H_    0.671880 0.719635 0.517469 0.126856
H17   H     H_    0.808866 0.218122 0.574127 0.123019
H18   H     H_    0.265519 0.205752 0.417426 0.112241
H19   H     H_    0.318269 0.735344 0.560902 0.119633
H20   H     H_    0.766558 0.695728 0.417250 0.119636
H21   H     H_    0.582959 0.338168 0.936775 0.127152
H22   H     H_    0.497642 0.367983 0.042450 0.141502
H23   H     H_    0.057123 0.860446 0.942662 0.131167
H24   H     H_    0.969172 0.840060 0.047572 0.142111
O1    O     O_R   0.783230 0.287800 0.346510 -0.523768
O2    O     O_R   0.216770 0.287800 0.653490 -0.508985
O3    O     O_R   0.283230 0.787800 0.346510 -0.526976
O4    O     O_R   0.716770 0.787800 0.653490 -0.508757
O5    O     O_R   0.554500 0.081650 0.170370 -0.498274
O6    O     O_R   0.445500 0.081650 0.829630 -0.501226
O7    O     O_R   0.054500 0.581650 0.170370 -0.500989
O8    O     O_R   0.945500 0.581650 0.829630 -0.499893
O9    O     O_R   0.545430 0.285140 0.163100 -0.515382
O10   O     O_R   0.454570 0.285140 0.836900 -0.519400
O11   O     O_R   0.045430 0.785140 0.163100 -0.514641
O12   O     O_R   0.954570 0.785140 0.836900 -0.522536
O13   O     O_R   0.677850 0.374730 0.185500 -0.506663
O14   O     O_R   0.322150 0.374730 0.814500 -0.483198
O15   O     O_R   0.177850 0.874730 0.185500 -0.510054
O16   O     O_R   0.822150 0.874730 0.814500 -0.479674
O17   O     O_3   0.664630 0.164620 0.255130 -0.300150
O18   O     O_3   0.335370 0.164620 0.744870 -0.294110
O19   O     O_3   0.164630 0.664620 0.255130 -0.278873
O20   O     O_3   0.835370 0.664620 0.744870 -0.300143
O21   O     O_R   0.760130 0.037060 0.338610 -0.521398
O22   O     O_R   0.239870 0.037060 0.661390 -0.522370
O23   O     O_R   0.260130 0.537060 0.338610 -0.507456
O24   O     O_R   0.739870 0.537060 0.661390 -0.525713
O25   O     O_R   0.666620 0.921370 0.332440 -0.515200
O26   O     O_R   0.333380 0.921370 0.667560 -0.511890
O27   O     O_R   0.166620 0.421370 0.332440 -0.517236
O28   O     O_R   0.833380 0.421370 0.667560 -0.512457
O29   O     O_R   0.557170 0.082420 0.312350 -0.493726
O30   O     O_R   0.442830 0.082420 0.687650 -0.492140
O31   O     O_R   0.057170 0.582420 0.312350 -0.491573
O32   O     O_R   0.942830 0.582420 0.687650 -0.491704
O33   O     O_R   0.548310 0.285980 0.316250 -0.511665
O34   O     O_R   0.451690 0.285980 0.683750 -0.521057
O35   O     O_R   0.048310 0.785980 0.316250 -0.505587
O36   O     O_R   0.951690 0.785980 0.683750 -0.520101
O37   O     O_R   0.680520 0.375500 0.327470 -0.497511
O38   O     O_R   0.319480 0.375500 0.672530 -0.490841
O39   O     O_R   0.180520 0.875500 0.327470 -0.499997
O40   O     O_R   0.819480 0.875500 0.672530 -0.491686
O41   O     O_R   0.780350 0.286970 0.193350 -0.501866
O42   O     O_R   0.219650 0.286970 0.806650 -0.497415
O43   O     O_R   0.280350 0.786970 0.193350 -0.506225
O44   O     O_R   0.719650 0.786970 0.806650 -0.495900
O45   O     O_R   0.757460 0.036290 0.196640 -0.498821
O46   O     O_R   0.242540 0.036290 0.803360 -0.509006
O47   O     O_R   0.257460 0.536290 0.196640 -0.497956
O48   O     O_R   0.742540 0.536290 0.803360 -0.512304
O49   O     O_R   0.663740 0.920540 0.179290 -0.509933
O50   O     O_R   0.336260 0.920540 0.820710 -0.501699
O51   O     O_R   0.163740 0.420540 0.179290 -0.514966
O52   O     O_R   0.836260 0.420540 0.820710 -0.502507
C97   C     C_3   0.614063 0.411665 0.556241 -0.388478
H25   H     H_    0.571256 0.398281 0.513652 0.141494
H26   H     H_    0.609132 0.345863 0.598768 0.142178
H27   H     H_    0.611755 0.506146 0.576438 0.142004
C98   C     C_3   0.361692 0.547886 0.469424 -0.386347
H28   H     H_    0.395998 0.566419 0.518402 0.124305
H29   H     H_    0.392129 0.506380 0.431232 0.141769
H30   H     H_    0.339172 0.634694 0.448014 0.169352
C99   C     C_3   0.118462 0.906283 0.547333 -0.392159
H31   H     H_    0.077841 0.896125 0.502314 0.144416
H32   H     H_    0.114843 0.830506 0.584612 0.138631
H33   H     H_    0.111285 0.994563 0.573467 0.143877
C100  C     C_3   0.861704 0.041966 0.470482 -0.386255
H34   H     H_    0.894440 0.062468 0.520166 0.126565
H35   H     H_    0.893789 0.001112 0.433542 0.141430
H36   H     H_    0.838612 0.127395 0.447980 0.160895
C101  C     C_3   0.673119 0.139635 0.010872 -0.391772
H37   H     H_    0.697165 0.154776 0.065065 0.140014
H38   H     H_    0.682653 0.046307 0.993826 0.148144
H39   H     H_    0.695289 0.201509 0.974785 0.146529
C102  C     C_3   0.386440 0.205196 0.979342 -0.380214
H40   H     H_    0.379998 0.300823 0.962337 0.145098
H41   H     H_    0.359514 0.142292 0.940200 0.134980
H42   H     H_    0.367354 0.193134 0.030237 0.143428
C103  C     C_3   0.169786 0.685024 0.011658 -0.392830
H43   H     H_    0.191743 0.699055 0.066401 0.140807
H44   H     H_    0.189415 0.598253 0.993348 0.144768
H45   H     H_    0.184708 0.756725 0.976877 0.147287
C104  C     C_3   0.882101 0.624972 0.978769 -0.369923
H46   H     H_    0.858438 0.664856 0.022400 0.141331
H47   H     H_    0.856974 0.658169 0.928205 0.128545
H48   H     H_    0.876348 0.524561 0.979824 0.144800
H49   H     H_    0.474073 0.004324 0.052394 0.136004
H50   H     H_    0.558712 0.975749 0.944261 0.125526
H51   H     H_    0.994553 0.476343 0.049415 0.134144
H52   H     H_    0.077614 0.496957 0.940140 0.125706

loop_
_geom_bond_atom_site_label_1
_geom_bond_atom_site_label_2
_ccdc_geom_bond_type
C58   C62   S    
C79   O7    A    
Cr2   O22   S    
Cr11  O19   S    
C67   C83   S    
Cr10  O18   S    
C38   C102  S    
C83   O43   A    
C3    C30   S    
C17   C29   S    
C101  H37   S    
C14   C18   S    
C19   C23   S    
C35   C36   S    
C8    C96   S    
Cr1   O1    S    
C19   C31   S    
Cr6   O26   S    
C20   H10   S    
C48   O32   A    
C13   H5    S    
C49   C50   S    
C38   C49   S    
Cr11  O39   S    
C104  H46   S    
C10   C22   S    
C100  H36   S    
C15   C19   S    
C28   C32   S    
Cr2   O18   S    
C5    C9    S    
Cr9   O37   S    
C37   C41   S    
Cr7   O51   S    
C33   C42   S    
C72   O40   A    
C15   C95   S    
C16   C20   S    
C9    C69   S    
C38   C42   S    
C99   H32   S    
C36   H24   S    
C71   O3    A    
Cr2   O42   S    
C11   C71   S    
C72   O4    A    
C43   C79   S    
Cr4   O48   S    
Cr6   O6    S    
C24   H16   S    
C103  H45   S    
C7    C27   S    
C39   C103  S    
C98   H29   S    
C75   O51   A    
C26   H18   S    
Cr5   O17   S    
C100  H35   S    
C25   H17   S    
C7    C11   S    
C9    C13   S    
C59   C67   T    
Cr12  O20   S    
C55   C74   S    
C11   C15   S    
C58   C66   T    
C79   O11   A    
C20   C24   S    
C7    H3    S    
C6    C94   S    
C55   C63   T    
C40   C104  S    
Cr4   O44   S    
C52   H52   S    
C69   O1    A    
C56   C64   T    
Cr10  O10   S    
C18   C30   S    
Cr1   O21   S    
Cr2   O46   S    
C75   O47   A    
C73   O49   A    
C4    C29   S    
Cr7   O19   S    
C46   C85   S    
C47   O31   A    
C44   C52   S    
C104  H47   S    
C39   C52   S    
Cr12  O36   S    
Cr5   O25   S    
Cr5   O29   S    
C95   C99   S    
C18   C22   S    
C87   C92   T    
C3    O27   A    
C101  H38   S    
C98   H28   S    
C34   C41   S    
C53   C61   T    
Cr8   O28   S    
C16   H8    S    
C45   O29   A    
C41   C49   S    
C82   O14   A    
C22   H14   S    
C77   O5    A    
Cr9   O17   S    
C84   O16   A    
C25   C29   S    
C96   C100  S    
Cr11  O35   S    
C16   C96   S    
Cr1   O41   S    
C27   C31   S    
C51   C52   S    
Cr6   O50   S    
C12   C16   S    
C36   C40   S    
C103  H43   S    
C76   O52   A    
C10   C14   S    
C46   O30   A    
C91   C92   S    
C29   C93   S    
C97   H27   S    
C23   H15   S    
C54   C62   T    
C80   O12   A    
Cr11  O15   S    
C102  H40   S    
C78   O10   A    
Cr3   O19   S    
C50   H50   S    
C1    C32   S    
Cr4   O20   S    
C27   H19   S    
Cr3   O23   S    
C2    C31   S    
C68   C84   S    
C6    H2    S    
C98   H30   S    
C35   C39   S    
C17   C21   S    
Cr3   O47   S    
Cr7   O7    S    
C66   C82   S    
C47   O35   A    
Cr1   O45   S    
C74   O46   A    
C88   C91   T    
C44   C80   S    
C8    C12   S    
C99   H33   S    
Cr9   O13   S    
C3    O23   A    
C33   C34   S    
C36   C43   S    
C48   C87   S    
Cr3   O3    S    
C69   O37   A    
C1    O21   A    
C35   C44   S    
C60   C68   T    
C42   C50   S    
C83   O15   A    
C10   C70   S    
C32   C96   S    
Cr6   O18   S    
C42   C78   S    
C23   C27   S    
Cr12  O40   S    
C22   C26   S    
C8    C28   S    
C101  H39   S    
C15   H7    S    
C59   C63   S    
C53   C76   S    
Cr4   O24   S    
Cr11  O11   S    
C9    C21   S    
C35   H23   S    
Cr12  O12   S    
C19   H9    S    
Cr5   O49   S    
Cr6   O30   S    
C5    C25   S    
C33   C37   S    
C20   C32   S    
C104  H48   S    
C33   H21   S    
C21   C25   S    
Cr5   O5    S    
C56   C73   S    
C46   O34   A    
C4    O24   A    
C34   C38   S    
Cr10  O34   S    
Cr7   O31   S    
Cr1   O17   S    
C24   C28   S    
C57   C65   T    
C76   O48   A    
C86   C89   T    
C4    O28   A    
Cr2   O2    S    
Cr8   O32   S    
C5    C93   S    
C85   C90   T    
C57   C61   S    
C74   O50   A    
C40   C51   S    
C7    C95   S    
C12   C24   S    
C81   O13   A    
Cr10  O14   S    
C13   C17   S    
C60   C64   S    
C51   H51   S    
C47   C88   S    
Cr8   O20   S    
C1    O25   A    
C45   C86   S    
C70   O38   A    
C82   O42   A    
C73   O45   A    
C30   C94   S    
C14   H6    S    
C28   H20   S    
C78   O6    A    
C41   C77   S    
C37   C50   S    
Cr7   O27   S    
C97   H25   S    
C6    C26   S    
C5    H1    S    
C43   C51   S    
C31   C95   S    
C11   C23   S    
C103  H44   S    
C8    H4    S    
Cr9   O33   S    
C71   O39   A    
C21   H13   S    
C100  H34   S    
C12   C72   S    
Cr9   O9    S    
C77   O9    A    
C94   C98   S    
C97   H26   S    
C6    C10   S    
C17   H11   S    
C54   C75   S    
Cr8   O8    S    
C40   C44   S    
Cr3   O43   S    
C2    O26   A    
C34   H22   S    
C2    O22   A    
C99   H31   S    
Cr10  O38   S    
C39   C43   S    
C13   C93   S    
C70   O2    A    
C37   C101  S    
C65   C81   S    
Cr8   O52   S    
C80   O8    A    
C102  H42   S    
C89   C90   S    
C84   O44   A    
C102  H41   S    
C45   O33   A    
C48   O36   A    
C14   C94   S    
C49   H49   S    
Cr4   O4    S    
C81   O41   A    
C18   H12   S    
Cr12  O16   S    
C26   C30   S    
C93   C97   S    
