data_mof_unit_22718.cif
_audit_creation_date              2012-12-11T14:03:57-0500
_audit_creation_method            fapswitch 2.2
_symmetry_space_group_name_H-M    P1
_symmetry_Int_Tables_number       1
_space_group_crystal_system       triclinic
_cell_length_a                    18.98619
_cell_length_b                    10.932607
_cell_length_c                    18.863744
_cell_angle_alpha                 89.946073
_cell_angle_beta                  90.477855
_cell_angle_gamma                 89.970497
_cell_volume                      3915.38161303

loop_
_atom_site_label
_atom_site_type_symbol
_atom_type_description
_atom_site_fract_x
_atom_site_fract_y
_atom_site_fract_z
_atom_type_partial_charge
C1    C     C_R   0.222716 0.526202 0.640571 0.555131
C2    C     C_R   0.002838 0.656881 0.569295 0.035154
C3    C     C_3   0.547975 0.923932 0.953508 -0.354075
C4    C     C_R   0.515039 0.170856 0.420154 0.014087
C5    C     C_R   0.502926 0.156888 0.569243 0.033137
C6    C     C_R   0.008855 0.896825 0.428562 0.282923
C7    C     C_R   0.965125 0.875799 0.569734 0.277588
C8    C     C_R   0.508975 0.396806 0.428484 0.283059
C9    C     C_R   0.465211 0.375831 0.569643 0.276326
C10   C     C_R   0.985576 0.999125 0.465431 -0.033042
C11   C     C_R   0.962041 0.987754 0.534548 -0.057788
C12   C     C_R   0.485701 0.499128 0.465335 -0.032796
C13   C     C_R   0.759644 0.461462 0.349383 0.623642
C14   C     C_R   0.462142 0.487780 0.534445 -0.058536
C15   C     C_R   0.991450 0.770465 0.534339 0.013735
C16   C     C_R   0.005540 0.779275 0.460351 -0.002136
C17   C     C_R   0.491547 0.270478 0.534276 0.012490
C18   C     C_R   0.505644 0.279273 0.460290 -0.001800
C19   C     C_R   0.014978 0.549699 0.527336 0.025970
C20   C     C_R   0.032486 0.562185 0.455463 0.012140
C21   C     C_R   0.515087 0.049703 0.527282 0.024736
C22   C     C_R   0.532574 0.062191 0.455402 0.012580
C23   C     C_R   0.007807 0.428702 0.553926 -0.004895
C24   C     C_R   0.722716 0.026206 0.640573 0.557936
C25   C     C_R   0.058321 0.460349 0.417661 -0.083832
C26   C     C_R   0.507943 0.928697 0.553863 -0.005180
C27   C     C_R   0.558401 0.960371 0.417581 -0.083818
C28   C     C_R   0.029287 0.327741 0.514607 -0.056390
C29   C     C_R   0.055748 0.343844 0.446921 -0.083138
C30   C     C_R   0.529411 0.827741 0.514528 -0.056576
C31   C     C_R   0.555843 0.843859 0.446833 -0.083075
C32   C     C_2   0.213585 0.827949 0.937219 -0.090201
C33   C     C_2   0.786749 0.827903 0.062786 -0.095157
C34   C     C_2   0.714462 0.331818 0.937080 -0.101038
C35   C     C_R   0.259648 0.961475 0.349391 0.624013
C36   C     C_2   0.286179 0.328404 0.062911 -0.090292
C37   C     C_2   0.246745 0.896391 0.084946 -0.111403
C38   C     C_2   0.754005 0.895279 0.914742 -0.108427
C39   C     C_2   0.746982 0.397012 0.085077 -0.111225
C40   C     C_2   0.253139 0.396709 0.915222 -0.106136
C41   C     C_R   0.208980 0.830968 0.640392 0.561603
C42   C     C_R   0.772564 0.877407 0.350628 0.623455
C43   C     C_R   0.708977 0.330967 0.640395 0.562423
C44   C     C_R   0.272572 0.377389 0.350639 0.624771
C45   C     C_2   0.181469 0.893248 0.057693 -0.137418
C46   C     C_2   0.279999 0.842509 0.532516 0.256371
C47   C     C_2   0.819168 0.893769 0.942284 -0.127335
C48   C     C_2   0.682254 0.398009 0.056729 -0.138318
C49   C     C_2   0.318474 0.393144 0.942330 -0.124482
C50   C     C_2   0.168337 0.887898 0.980666 -0.034792
C51   C     C_2   0.831996 0.888212 0.019406 -0.035849
C52   C     C_2   0.671312 0.398032 0.979611 -0.040016
C53   C     C_2   0.332080 0.386356 0.019255 -0.038011
C54   C     C_2   0.998455 0.661204 0.921312 -0.091845
C55   C     C_2   0.001198 0.661338 0.078518 -0.094534
C56   C     C_2   0.558045 0.152105 0.935384 -0.112969
C57   C     C_2   0.733707 0.853037 0.471005 0.202907
C58   C     C_2   0.506672 0.160856 0.081652 -0.088968
C59   C     C_2   0.010147 0.560556 0.038138 -0.003574
C60   C     C_2   0.989654 0.560455 0.961829 -0.006542
C61   C     C_2   0.551371 0.075003 0.057300 -0.011130
C62   C     C_2   0.555273 0.054340 0.979646 -0.018751
C63   C     C_R   0.029175 0.653868 0.644113 0.572230
C64   C     C_R   0.974753 0.656469 0.352477 0.602523
C65   C     C_R   0.529202 0.153868 0.644092 0.582599
C66   C     C_R   0.474772 0.156466 0.352456 0.600783
C67   C     C_R   0.239646 0.462830 0.849601 0.570224
C68   C     C_2   0.779974 0.342492 0.532513 0.256221
C69   C     C_R   0.760290 0.462559 0.150663 0.536789
C70   C     C_R   0.739812 0.962515 0.849491 0.561917
C71   C     C_R   0.260315 0.962722 0.150455 0.536528
C72   C     C_R   0.207017 0.822829 0.859657 0.569108
C73   C     C_R   0.793036 0.822885 0.140383 0.560639
C74   C     C_R   0.707508 0.324248 0.859838 0.545321
C75   C     C_R   0.292996 0.322844 0.140389 0.562256
C76   C     C_R   0.027959 0.652291 0.850277 0.561207
C77   C     C_R   0.971977 0.652327 0.149670 0.538298
C78   C     C_R   0.564269 0.146504 0.857857 0.554271
C79   C     C_2   0.233688 0.353023 0.471010 0.202250
C80   C     C_R   0.472877 0.152573 0.150565 0.535607
C81   C     C_2   0.219785 0.864577 0.567287 0.199189
C82   C     C_2   0.753576 0.928674 0.418053 0.159960
C83   C     C_2   0.719781 0.364600 0.567294 0.198763
C84   C     C_2   0.253597 0.428647 0.418071 0.160313
C85   C     C_2   0.248324 0.890811 0.411952 0.018046
C86   C     C_2   0.722113 0.996890 0.567085 -0.039678
C87   C     C_2   0.748316 0.390786 0.411942 0.017995
C88   C     C_2   0.222111 0.496877 0.567087 -0.039594
C89   C     C_2   0.292312 0.905937 0.467010 0.320213
C90   C     C_R   0.014967 0.670861 0.420208 0.014121
C91   C     C_2   0.741663 0.886228 0.545154 0.306131
C92   C     C_2   0.792297 0.405911 0.467004 0.320642
C93   C     C_2   0.241640 0.386203 0.545158 0.305653
C94   C     C_3   0.106984 0.964688 0.954238 -0.359348
C95   C     C_3   0.892991 0.965520 0.046015 -0.361097
C96   C     C_3   0.614167 0.484034 0.952629 -0.358353
C97   C     C_3   0.395264 0.458686 0.045395 -0.359218
C98   C     C_3   0.038451 0.442403 0.069520 -0.348098
C99   C     C_3   0.961688 0.442120 0.930604 -0.343908
C100  C     C_3   0.591505 0.991078 0.107029 -0.351406
Cl1   Cl    Cl    0.356717 0.022039 0.470174 -0.486617
Cl2   Cl    Cl    0.787338 0.078183 0.431880 -0.666541
Cl3   Cl    Cl    0.649688 0.450672 0.528824 -0.569651
Cl4   Cl    Cl    0.287417 0.578106 0.431930 -0.665758
Cl5   Cl    Cl    0.053198 0.923700 0.348080 -0.588534
Cl6   Cl    Cl    0.926369 0.872610 0.654471 -0.484350
Cl7   Cl    Cl    0.553298 0.423606 0.347979 -0.589687
Cl8   Cl    Cl    0.426390 0.372664 0.654343 -0.472480
Cl9   Cl    Cl    0.771157 0.771394 0.605147 -0.365441
Cl10  Cl    Cl    0.856721 0.522018 0.470178 -0.487528
Cl11  Cl    Cl    0.271120 0.271360 0.605148 -0.362056
Cl12  Cl    Cl    0.352675 0.760410 0.566827 -0.582875
Cl13  Cl    Cl    0.708141 0.700289 0.456674 -0.469023
Cl14  Cl    Cl    0.852630 0.260333 0.566809 -0.584695
Cl15  Cl    Cl    0.208082 0.200302 0.456668 -0.469338
Cl16  Cl    Cl    0.149662 0.950568 0.528803 -0.569278
Cr1   Cr    Cr6+3 0.113970 0.508630 0.747920 1.043583
Cr2   Cr    Cr6+3 0.887700 0.820070 0.250200 1.089668
Cr3   Cr    Cr6+3 0.612300 0.320070 0.749800 1.084605
Cr4   Cr    Cr6+3 0.387700 0.320070 0.250200 1.090146
Cr5   Cr    Cr6+3 0.886030 0.508630 0.252080 1.059812
Cr6   Cr    Cr6+3 0.613970 0.008630 0.747920 1.038482
Cr7   Cr    Cr6+3 0.386030 0.008630 0.252080 1.061190
Cr8   Cr    Cr6+3 0.269200 0.666740 0.749850 1.106621
Cr9   Cr    Cr6+3 0.730800 0.666740 0.250150 1.080419
Cr10  Cr    Cr6+3 0.769200 0.166740 0.749850 1.092818
Cr11  Cr    Cr6+3 0.230800 0.166740 0.250150 1.083841
Cr12  Cr    Cr6+3 0.112300 0.820070 0.749800 1.082640
H1    H     H_    0.292393 0.870759 0.054137 0.103705
H2    H     H_    0.006366 0.749493 0.945329 0.068569
H3    H     H_    0.482076 0.224532 0.045003 0.079093
H4    H     H_    0.560766 0.242412 0.958309 0.082018
H5    H     H_    0.204537 0.826872 0.413585 0.126421
H6    H     H_    0.695071 0.060621 0.532110 0.059558
H7    H     H_    0.704501 0.326892 0.413576 0.126114
H8    H     H_    0.195087 0.560621 0.532107 0.059879
H9    H     H_    0.986552 0.088364 0.440635 0.165413
H10   H     H_    0.942852 0.067405 0.561930 0.206660
H11   H     H_    0.486685 0.588359 0.440528 0.165392
H12   H     H_    0.708918 0.867299 0.945425 0.079294
H13   H     H_    0.442938 0.567441 0.561805 0.206410
H14   H     H_    0.076948 0.470281 0.363810 0.126914
H15   H     H_    0.982409 0.409797 0.603806 0.195856
H16   H     H_    0.577000 0.970318 0.363719 0.124950
H17   H     H_    0.482569 0.909755 0.603737 0.197705
H18   H     H_    0.024887 0.236876 0.536696 0.157155
H19   H     H_    0.071507 0.265607 0.415817 0.181359
H20   H     H_    0.525019 0.736864 0.536608 0.157371
H21   H     H_    0.571592 0.765626 0.415718 0.181194
H22   H     H_    0.137725 0.921007 0.090899 0.157005
H23   H     H_    0.792768 0.370620 0.054616 0.097718
H24   H     H_    0.862744 0.923235 0.909347 0.160723
H25   H     H_    0.638157 0.426686 0.089207 0.157563
H26   H     H_    0.362149 0.420635 0.908954 0.166384
H27   H     H_    0.073815 0.998053 0.998431 0.095478
H28   H     H_    0.127041 0.046594 0.926028 0.168210
H29   H     H_    0.072187 0.911826 0.918562 0.159894
H30   H     H_    0.926177 0.999383 0.001943 0.095058
H31   H     H_    0.872538 0.047151 0.074153 0.162361
H32   H     H_    0.927919 0.912875 0.081774 0.163413
H33   H     H_    0.584661 0.526737 0.996790 0.099552
H34   H     H_    0.207432 0.371321 0.946001 0.089325
H35   H     H_    0.638298 0.559930 0.922134 0.170333
H36   H     H_    0.574927 0.435638 0.919161 0.157047
H37   H     H_    0.428444 0.491261 0.000992 0.099355
H38   H     H_    0.377341 0.541069 0.074521 0.165589
H39   H     H_    0.429548 0.402558 0.079962 0.162175
H40   H     H_    0.078365 0.402738 0.033461 0.113956
H41   H     H_    0.065589 0.457919 0.121126 0.156677
H42   H     H_    0.995104 0.375449 0.076580 0.143001
H43   H     H_    0.921751 0.402467 0.966623 0.115081
H44   H     H_    0.934688 0.457351 0.878875 0.170241
H45   H     H_    0.255986 0.773511 0.959811 0.085629
H46   H     H_    0.005172 0.375325 0.923828 0.141732
H47   H     H_    0.636944 0.949213 0.079355 0.131276
H48   H     H_    0.612707 0.043568 0.152856 0.143041
H49   H     H_    0.556902 0.916609 0.126340 0.155305
H50   H     H_    0.546408 0.857225 0.997803 0.110522
H51   H     H_    0.497670 0.913495 0.923724 0.170603
H52   H     H_    0.592524 0.898691 0.919242 0.153232
H53   H     H_    0.744595 0.773043 0.040218 0.085292
H54   H     H_    0.754215 0.272469 0.960440 0.084010
H55   H     H_    0.242823 0.276075 0.040630 0.087328
H56   H     H_    0.992930 0.749541 0.054377 0.071408
O1    O     O_R   0.043230 0.549300 0.667990 -0.548201
O2    O     O_R   0.832470 0.905110 0.169660 -0.516240
O3    O     O_R   0.667530 0.405110 0.830340 -0.503760
O4    O     O_R   0.332470 0.405110 0.169660 -0.514319
O5    O     O_R   0.054010 0.748440 0.822860 -0.513513
O6    O     O_R   0.945990 0.748440 0.177140 -0.519983
O7    O     O_R   0.554010 0.248440 0.822860 -0.491955
O8    O     O_R   0.445990 0.248440 0.177140 -0.521451
O9    O     O_3   0.165160 0.665150 0.749190 -0.358458
O10   O     O_3   0.834840 0.665150 0.250810 -0.287399
O11   O     O_3   0.665160 0.165150 0.749190 -0.376558
O12   O     O_R   0.956770 0.549300 0.332010 -0.488966
O13   O     O_3   0.334840 0.165150 0.250810 -0.288958
O14   O     O_R   0.178620 0.457600 0.674100 -0.465486
O15   O     O_R   0.821380 0.457600 0.325900 -0.469503
O16   O     O_R   0.678620 0.957600 0.674100 -0.464776
O17   O     O_R   0.321380 0.957600 0.325900 -0.469411
O18   O     O_R   0.284680 0.542100 0.669460 -0.394924
O19   O     O_R   0.715320 0.542100 0.330540 -0.411047
O20   O     O_R   0.784680 0.042100 0.669460 -0.393193
O21   O     O_R   0.215320 0.042100 0.330540 -0.411293
O22   O     O_R   0.262860 0.790390 0.676650 -0.457371
O23   O     O_R   0.543230 0.049300 0.667990 -0.542145
O24   O     O_R   0.737140 0.790390 0.323350 -0.477530
O25   O     O_R   0.762860 0.290390 0.676650 -0.457513
O26   O     O_R   0.237140 0.290390 0.323350 -0.477266
O27   O     O_R   0.167460 0.907030 0.670940 -0.419857
O28   O     O_R   0.832540 0.907030 0.329060 -0.451172
O29   O     O_R   0.667460 0.407030 0.670940 -0.420410
O30   O     O_R   0.332540 0.407030 0.329060 -0.450954
O31   O     O_R   0.053950 0.750220 0.675100 -0.463303
O32   O     O_R   0.946050 0.750220 0.324900 -0.447680
O33   O     O_R   0.553950 0.250220 0.675100 -0.459184
O34   O     O_R   0.456770 0.049300 0.332010 -0.489836
O35   O     O_R   0.446050 0.250220 0.324900 -0.447997
O36   O     O_R   0.043300 0.547370 0.827390 -0.507333
O37   O     O_R   0.956700 0.547370 0.172610 -0.519680
O38   O     O_R   0.543300 0.047370 0.827390 -0.492124
O39   O     O_R   0.456700 0.047370 0.172610 -0.518084
O40   O     O_R   0.178690 0.455820 0.821860 -0.491125
O41   O     O_R   0.821310 0.455820 0.178140 -0.509750
O42   O     O_R   0.678690 0.955820 0.821860 -0.518250
O43   O     O_R   0.321310 0.955820 0.178140 -0.507340
O44   O     O_R   0.284750 0.540170 0.828860 -0.508362
O45   O     O_R   0.262920 0.788600 0.824420 -0.483098
O46   O     O_R   0.715250 0.540170 0.171140 -0.520034
O47   O     O_R   0.784750 0.040170 0.828860 -0.506591
O48   O     O_R   0.215250 0.040170 0.171140 -0.519958
O49   O     O_R   0.737080 0.788600 0.175580 -0.515418
O50   O     O_R   0.762920 0.288600 0.824420 -0.486992
O51   O     O_R   0.237080 0.288600 0.175580 -0.511081
O52   O     O_R   0.167530 0.905110 0.830340 -0.499470

loop_
_geom_bond_atom_site_label_1
_geom_bond_atom_site_label_2
_ccdc_geom_bond_type
Cr12  O52   S    
C65   O33   A    
C21   C26   A    
C38   C70   S    
C16   C90   A    
C79   Cl15  S    
C95   H30   S    
C43   C83   S    
C55   C59   D    
C25   H14   S    
C42   C82   S    
C64   C90   S    
Cr6   O11   S    
C48   H25   S    
C60   C99   S    
C92   Cl10  S    
C73   O2    A    
Cr2   O2    S    
C56   C78   S    
C32   C72   S    
C46   C89   S    
C54   C60   D    
C34   C52   D    
C9    Cl8   S    
C7    C11   A    
C83   Cl3   S    
C31   H21   S    
C44   O30   A    
C77   O6    A    
Cr9   O10   S    
Cr7   O43   S    
C28   C29   A    
C3    H50   S    
Cr3   O7    S    
C79   C93   S    
C46   Cl12  S    
C86   C91   D    
Cr4   O8    S    
Cr12  O27   S    
C79   C84   D    
C55   C77   S    
C97   H37   S    
C99   H43   S    
C20   C25   A    
C100  H49   S    
Cr4   O30   S    
C15   C16   A    
Cr6   O42   S    
Cr11  O13   S    
Cr5   O41   S    
C96   H33   S    
Cr1   O36   S    
Cr2   O28   S    
Cr12  O5    S    
C41   O22   A    
C68   Cl14  S    
C3    H51   S    
C70   O47   A    
Cr5   O15   S    
C76   O5    A    
C68   C92   S    
C98   H41   S    
Cr10  O11   S    
C86   H6    S    
Cr9   O19   S    
C75   O4    A    
C94   H27   S    
C63   O1    A    
C40   C67   S    
Cr8   O9    S    
C100  H48   S    
C71   O48   A    
C42   O24   A    
C36   C53   D    
C10   H9    S    
C74   O50   A    
C58   C61   D    
C57   C91   S    
Cr5   O12   S    
C73   O49   A    
Cr8   O45   S    
C58   C80   S    
C89   Cl1   S    
C1    C88   S    
C7    C15   A    
C14   H13   S    
C59   C60   S    
C87   C92   D    
C80   O8    A    
C23   H15   S    
C61   C62   S    
C63   O31   A    
C43   O25   A    
C1    O18   A    
Cr4   O4    S    
Cr8   O44   S    
Cr7   O13   S    
Cr4   O13   S    
C25   C29   A    
C54   H2    S    
C12   H11   S    
C72   O45   A    
Cr7   O17   S    
C27   C31   A    
C95   H32   S    
C87   H7    S    
C49   H26   S    
Cr1   O9    S    
Cr12  O9    S    
C88   H8    S    
C5    C65   S    
Cr9   O46   S    
C35   C85   S    
C9    C14   A    
C85   C89   D    
C44   O26   A    
C50   C94   S    
C47   C51   S    
C99   H44   S    
Cr10  O20   S    
C97   H39   S    
Cr7   O39   S    
C8    C18   A    
C72   O52   A    
Cr8   O18   S    
C41   O27   A    
C38   H12   S    
C26   H17   S    
C19   C23   A    
C3    H52   S    
C40   H34   S    
C66   O35   A    
C36   C75   S    
C46   C81   D    
C4    C22   A    
C29   H19   S    
Cr11  O26   S    
C58   H3    S    
C8    C12   A    
C41   C81   S    
C13   C87   S    
C100  H47   S    
C17   C18   A    
C82   Cl2   S    
C7    Cl6   S    
C36   H55   S    
C23   C28   A    
C47   H24   S    
C5    C17   A    
C75   O51   A    
C2    C15   A    
C32   C50   D    
C38   C47   D    
C56   H4    S    
C34   C74   S    
C54   C76   S    
C13   O19   A    
C9    C17   A    
Cr7   O34   S    
C78   O38   A    
C26   C30   A    
C94   H29   S    
C22   C27   A    
C37   C71   S    
C33   H53   S    
C84   Cl4   S    
C56   C62   D    
C61   C100  S    
C37   C45   D    
C43   O29   A    
C8    Cl7   S    
Cr5   O10   S    
C1    O14   A    
C42   O28   A    
C2    C63   S    
C74   O3    A    
C3    C62   S    
C33   C73   S    
C88   C93   D    
C24   O20   A    
C95   H31   S    
C28   H18   S    
C13   O15   A    
Cr8   O22   S    
C2    C19   A    
C68   C83   D    
C71   O43   A    
Cr6   O23   S    
C11   H10   S    
C35   O17   A    
C78   O7    A    
C70   O42   A    
C12   C14   A    
C44   C84   S    
Cr10  O25   S    
C69   O41   A    
C6    C10   A    
Cr2   O10   S    
C57   Cl13  S    
C30   H20   S    
C65   O23   A    
C55   H56   S    
C27   H16   S    
C33   C51   D    
C32   H45   S    
Cr9   O24   S    
Cr11  O51   S    
C96   H35   S    
C53   C97   S    
C91   Cl9   S    
C19   C20   A    
Cr10  O47   S    
Cr11  O21   S    
C4    C18   A    
C66   O34   A    
Cr1   O1    S    
C69   O46   A    
C80   O39   A    
C4    C66   S    
Cr2   O6    S    
C45   H22   S    
C40   C49   D    
C30   C31   A    
C99   H46   S    
C20   C90   A    
C67   O44   A    
C76   O36   A    
Cr4   O35   S    
C49   C53   S    
C64   O12   A    
C81   Cl16  S    
Cr11  O48   S    
C39   C69   S    
C6    Cl5   S    
C37   H1    S    
C52   C96   S    
Cr3   O11   S    
C35   O21   A    
C98   H40   S    
C67   O40   A    
Cr10  O50   S    
C39   H23   S    
Cr3   O3    S    
Cr9   O49   S    
C10   C11   A    
Cr12  O31   S    
C6    C16   A    
C98   H42   S    
Cr3   O29   S    
C96   H36   S    
C48   C52   S    
C5    C21   A    
C34   H54   S    
C24   O16   A    
C94   H28   S    
Cr6   O38   S    
C85   H5    S    
Cr3   O33   S    
C59   C98   S    
Cr5   O37   S    
C57   C82   D    
C77   O37   A    
Cr1   O40   S    
Cr2   O32   S    
C45   C50   S    
Cr6   O16   S    
C21   C22   A    
C24   C86   S    
C93   Cl11  S    
C64   O32   A    
Cr1   O14   S    
C97   H38   S    
C51   C95   S    
C39   C48   D    
