data_mof_unit_10661.cif
_audit_creation_date              2012-12-11T15:39:27-0500
_audit_creation_method            fapswitch 2.2
_symmetry_space_group_name_H-M    P1
_symmetry_Int_Tables_number       1
_space_group_crystal_system       triclinic
_cell_length_a                    17.324133
_cell_length_b                    24.373558
_cell_length_c                    14.918541
_cell_angle_alpha                 89.856083
_cell_angle_beta                  125.599448
_cell_angle_gamma                 90.142727
_cell_volume                      5122.03377489

loop_
_atom_site_label
_atom_site_type_symbol
_atom_type_description
_atom_site_fract_x
_atom_site_fract_y
_atom_site_fract_z
_atom_type_partial_charge
C1    C     C_R   0.319074 0.365315 0.910445 0.571812
C2    C     C_R   0.551066 0.500333 0.725985 0.032254
C3    C     C_R   0.168445 0.841777 0.999931 -0.067135
C4    C     C_3   0.316876 0.285170 0.831950 -0.271723
C5    C     C_3   0.642102 0.320376 0.230659 -0.382405
C6    C     C_3   0.791831 0.817420 0.774795 -0.330115
C7    C     C_3   0.164678 0.827293 0.230560 -0.263846
C8    C     C_R   0.068052 0.000477 0.368750 0.052795
C9    C     C_R   0.043519 0.001190 0.717281 0.039436
C10   C     C_R   0.173634 0.502203 0.717408 0.053702
C11   C     C_R   0.803522 0.501538 0.366618 0.050442
C12   C     C_R   0.698333 0.001829 0.631216 0.043922
C13   C     C_R   0.326295 0.002349 0.280488 0.070195
C14   C     C_R   0.022370 0.553964 0.619692 0.167190
C15   C     C_R   0.928393 0.553655 0.530793 0.159319
C16   C     C_R   0.572111 0.054115 0.468072 0.164577
C17   C     C_R   0.650336 0.348612 0.091398 0.636811
C18   C     C_R   0.477850 0.054369 0.379680 0.161606
C19   C     C_R   0.071504 0.504418 0.662743 0.037926
C20   C     C_R   0.881989 0.503836 0.483110 0.033555
C21   C     C_R   0.619191 0.004355 0.514758 0.033066
C22   C     C_R   0.428702 0.004830 0.335655 0.033910
C23   C     C_R   0.018197 0.455864 0.635765 -0.197577
C24   C     C_R   0.922902 0.455517 0.545141 -0.193090
C25   C     C_R   0.577796 0.956167 0.452496 -0.195164
C26   C     C_R   0.482226 0.956470 0.362266 -0.195209
C27   C     C_3   0.940596 0.603462 0.481115 -0.518931
C28   C     C_R   0.811995 0.872627 0.909124 0.611611
C29   C     C_3   0.043414 0.603735 0.578121 -0.523532
C30   C     C_3   0.457043 0.103405 0.422747 -0.522024
C31   C     C_3   0.560119 0.103189 0.519136 -0.521464
C32   C     C_R   0.286161 0.763269 0.898204 -0.177125
C33   C     C_R   0.719362 0.763874 0.105888 -0.182008
C34   C     C_R   0.660574 0.189105 0.895239 -0.175002
C35   C     C_R   0.213615 0.264558 0.104338 -0.180718
C36   C     C_R   0.614900 0.235156 0.896616 -0.169726
C37   C     C_R   0.267859 0.306038 0.104663 -0.161683
C38   C     C_R   0.225068 0.799051 0.898545 -0.169201
C39   C     C_R   0.173526 0.859206 0.091235 0.559014
C40   C     C_R   0.766808 0.809326 0.105663 -0.162447
C41   C     C_R   0.643980 0.258548 0.997613 0.165062
C42   C     C_R   0.247216 0.325136 0.004380 0.159580
C43   C     C_R   0.241733 0.813845 0.999099 0.165437
C44   C     C_R   0.741250 0.831536 0.005077 0.160321
C45   C     C_R   0.445574 0.652155 0.091540 -0.116421
C46   C     C_R   0.557911 0.652158 0.909876 -0.139877
C47   C     C_R   0.901125 0.124139 0.090999 -0.121621
C48   C     C_R   0.055129 0.152576 0.909226 -0.139666
C49   C     C_R   0.705066 0.228560 0.095100 -0.157672
C50   C     C_R   0.388066 0.684595 0.999726 0.055459
C51   C     C_R   0.160314 0.311624 0.905616 -0.149059
C52   C     C_R   0.330139 0.802706 0.097993 -0.139811
C53   C     C_R   0.654387 0.816373 0.907697 -0.129998
C54   C     C_R   0.390459 0.766002 0.097640 -0.193810
C55   C     C_R   0.607299 0.770274 0.907559 -0.200738
C56   C     C_R   0.751406 0.182763 0.093711 -0.200312
C57   C     C_R   0.106930 0.269156 0.905009 -0.195674
C58   C     C_R   0.361431 0.740984 0.998310 0.146688
C59   C     C_R   0.645847 0.740701 0.005572 0.147156
C60   C     C_R   0.736774 0.166805 0.994969 0.154967
C61   C     C_R   0.620552 0.683310 0.002561 0.050286
C62   C     C_R   0.140114 0.241594 0.003710 0.146671
C63   C     C_R   0.604724 0.550374 0.626773 -0.165023
C64   C     C_R   0.605431 0.550423 0.534491 -0.172036
C65   C     C_R   0.099455 0.051404 0.620994 -0.170262
C66   C     C_R   0.106092 0.051159 0.533134 -0.173296
C67   C     C_R   0.596817 0.500701 0.482313 0.140462
C68   C     C_R   0.594230 0.500639 0.666059 0.144411
C69   C     C_R   0.101176 0.001182 0.483677 0.141898
C70   C     C_R   0.088048 0.001678 0.659237 0.145677
C71   C     C_R   0.607274 0.451083 0.536141 -0.169979
C72   C     C_R   0.810947 0.136883 0.997648 0.042190
C73   C     C_R   0.606531 0.451085 0.628399 -0.167414
C74   C     C_R   0.111261 0.951814 0.537841 -0.172321
C75   C     C_R   0.105297 0.952108 0.626337 -0.168855
C76   C     C_R   0.548460 0.454725 0.304015 -0.137280
C77   C     C_R   0.519973 0.454218 0.751703 -0.109902
C78   C     C_R   0.051025 0.954690 0.305079 -0.136747
C79   C     C_R   0.010969 0.955094 0.740663 -0.116062
C80   C     C_R   0.232808 0.547019 0.751555 -0.134157
C81   C     C_R   0.754195 0.546450 0.302438 -0.136694
C82   C     C_R   0.747259 0.046424 0.696091 -0.159292
C83   C     C_R   0.114546 0.184535 0.001296 0.055813
C84   C     C_R   0.267298 0.047096 0.248299 -0.132676
C85   C     C_R   0.546821 0.545997 0.302484 -0.121465
C86   C     C_R   0.519992 0.546146 0.751885 -0.125318
C87   C     C_R   0.050457 0.045823 0.304017 -0.141659
C88   C     C_R   0.016879 0.046689 0.748652 -0.130450
C89   C     C_R   0.228529 0.455743 0.739792 -0.146976
C90   C     C_R   0.756750 0.455186 0.304128 -0.101940
C91   C     C_R   0.745055 0.955619 0.693773 -0.058572
C92   C     C_R   0.271050 0.955691 0.256294 -0.169948
C93   C     C_R   0.355734 0.652523 0.908450 -0.146270
C94   C     C_R   0.563389 0.500503 0.366978 0.048328
C95   C     C_R   0.650646 0.650870 0.093206 -0.126738
C96   C     C_R   0.809666 0.123904 0.906448 -0.127611
C97   C     C_R   0.145814 0.152190 0.092066 -0.146857
C98   C     C_R   0.405569 0.372654 0.093609 -0.252932
C99   C     C_R   0.557475 0.348180 0.908895 -0.268104
C100  C     C_R   0.901944 0.876581 0.092627 -0.255004
C101  C     C_R   0.084270 0.861445 0.908223 -0.254374
C102  C     C_R   0.319784 0.353897 0.002456 -0.102601
C103  C     C_R   0.620445 0.316119 0.000259 -0.122962
C104  C     C_R   0.812354 0.861775 0.001210 -0.100705
H1    H     H_    0.931098 0.595051 0.401994 0.206397
H2    H     H_    0.747578 0.744213 0.184176 0.107016
H3    H     H_    0.642486 0.175384 0.816367 0.107885
H4    H     H_    0.237396 0.246733 0.182824 0.108047
H5    H     H_    0.563818 0.254755 0.818619 0.110785
H6    H     H_    0.330624 0.318571 0.183259 0.111274
H7    H     H_    0.162064 0.811376 0.819929 0.106887
H8    H     H_    0.829192 0.822536 0.183884 0.110817
H9    H     H_    0.723985 0.241650 0.174209 0.182884
H10   H     H_    0.137760 0.329977 0.827866 0.155219
H11   H     H_    0.350557 0.819000 0.176228 0.158362
H12   H     H_    0.062652 0.639885 0.632690 0.190070
H13   H     H_    0.626618 0.836678 0.830161 0.174008
H14   H     H_    0.453217 0.752902 0.175893 0.110611
H15   H     H_    0.546024 0.755717 0.829593 0.114301
H16   H     H_    0.804879 0.163565 0.171385 0.116315
H17   H     H_    0.046067 0.254812 0.826481 0.113125
H18   H     H_    0.602245 0.589493 0.658927 0.109093
H19   H     H_    0.603580 0.589586 0.499218 0.106533
H20   H     H_    0.093363 0.090591 0.650058 0.108659
H21   H     H_    0.104617 0.090244 0.497898 0.107713
H22   H     H_    0.606944 0.411895 0.502272 0.105210
H23   H     H_    0.437238 0.139983 0.368813 0.189038
H24   H     H_    0.605530 0.411950 0.661919 0.108349
H25   H     H_    0.114065 0.912599 0.506214 0.105835
H26   H     H_    0.104849 0.913132 0.660789 0.106028
H27   H     H_    0.490985 0.665121 0.176582 0.081898
H28   H     H_    0.511684 0.666575 0.825841 0.086207
H29   H     H_    0.927865 0.129497 0.176239 0.095358
H30   H     H_    0.008759 0.166442 0.824809 0.085354
H31   H     H_    0.566784 0.412907 0.332623 0.072542
H32   H     H_    0.530194 0.411700 0.741425 0.097191
H33   H     H_    0.069482 0.912763 0.333264 0.075831
H34   H     H_    0.570332 0.093979 0.598470 0.202327
H35   H     H_    0.010331 0.913794 0.715696 0.082506
H36   H     H_    0.215315 0.589501 0.749955 0.110543
H37   H     H_    0.760094 0.588210 0.329725 0.097854
H38   H     H_    0.742157 0.088116 0.668476 0.104380
H39   H     H_    0.285066 0.089662 0.251063 0.107149
H40   H     H_    0.562999 0.588294 0.328568 0.082021
H41   H     H_    0.530307 0.588776 0.742017 0.095896
H42   H     H_    0.068721 0.087939 0.330669 0.085752
H43   H     H_    0.028250 0.089396 0.740684 0.094568
H44   H     H_    0.202163 0.414790 0.714519 0.169555
H45   H     H_    0.900646 0.639386 0.480060 0.185582
H46   H     H_    0.768575 0.413548 0.333916 0.146203
H47   H     H_    0.735398 0.914658 0.661947 0.130787
H48   H     H_    0.296684 0.914346 0.275709 0.160154
H49   H     H_    0.319551 0.666038 0.824069 0.084315
H50   H     H_    0.689237 0.663514 0.178291 0.080871
H51   H     H_    0.752028 0.128494 0.820582 0.092328
H52   H     H_    0.181848 0.165463 0.176477 0.085887
H53   H     H_    0.432806 0.369353 0.179287 0.133309
H54   H     H_    0.509986 0.334527 0.824585 0.132590
H55   H     H_    0.929392 0.873223 0.178338 0.136211
H56   H     H_    0.091760 0.595392 0.553496 0.202610
H57   H     H_    0.049409 0.848285 0.824367 0.119282
H58   H     H_    0.051984 0.417153 0.674202 0.131880
H59   H     H_    0.886580 0.416494 0.516658 0.128776
H60   H     H_    0.614155 0.917180 0.480483 0.125630
H61   H     H_    0.448551 0.917772 0.323653 0.130154
H62   H     H_    0.311567 0.259094 0.889483 0.151032
H63   H     H_    0.392563 0.290780 0.863787 0.143691
H64   H     H_    0.281133 0.262957 0.752435 0.173188
H65   H     H_    0.582675 0.292660 0.170783 0.151742
H66   H     H_    0.614384 0.358828 0.241150 0.165982
H67   H     H_    0.409224 0.094201 0.447875 0.201997
H68   H     H_    0.683215 0.299169 0.311602 0.180474
H69   H     H_    0.824247 0.782264 0.833384 0.155810
H70   H     H_    0.846382 0.838841 0.770425 0.141906
H71   H     H_    0.737929 0.800473 0.691793 0.175603
H72   H     H_    0.093646 0.809462 0.167427 0.147742
H73   H     H_    0.157398 0.867678 0.259015 0.143937
H74   H     H_    0.200326 0.799329 0.302753 0.169693
H75   H     H_    0.599619 0.139554 0.520418 0.186753
H76   H     H_    0.266381 0.748121 0.819440 0.105759
N1    N     N_R   0.394180 0.396910 0.943210 -0.087750
N2    N     N_R   0.474350 0.471570 0.793850 -0.036592
N3    N     N_R   0.025650 0.971570 0.206150 -0.033564
N4    N     N_R   0.974350 0.971570 0.793850 -0.038805
N5    N     N_R   0.319480 0.528420 0.793810 -0.042986
N6    N     N_R   0.680520 0.528420 0.206190 -0.041383
N7    N     N_R   0.819480 0.028420 0.793810 -0.042688
N8    N     N_R   0.180520 0.028420 0.206190 -0.038250
N9    N     N_R   0.525640 0.528390 0.206120 -0.037638
N10   N     N_R   0.474360 0.528390 0.793880 -0.042420
N11   N     N_R   0.025640 0.028390 0.206120 -0.035942
N12   N     N_R   0.605820 0.396910 0.056790 -0.095769
N13   N     N_R   0.974360 0.028390 0.793880 -0.039247
N14   N     N_R   0.319490 0.471590 0.793840 -0.042001
N15   N     N_R   0.680510 0.471590 0.206160 -0.043351
N16   N     N_R   0.819490 0.971590 0.793840 -0.049390
N17   N     N_R   0.180510 0.971590 0.206160 -0.044842
N18   N     N_R   0.394130 0.603080 0.943110 -0.038469
N19   N     N_R   0.605870 0.603080 0.056890 -0.037359
N20   N     N_R   0.894130 0.103080 0.943110 -0.038860
N21   N     N_R   0.105870 0.103080 0.056890 -0.037453
N22   N     N_R   0.450990 0.396900 0.056840 -0.074219
N23   N     N_R   0.894180 0.896910 0.943210 -0.101185
N24   N     N_R   0.549010 0.396900 0.943160 -0.063391
N25   N     N_R   0.950990 0.896900 0.056840 -0.073463
N26   N     N_R   0.049010 0.896900 0.943160 -0.063215
N27   N     N_R   0.105820 0.896910 0.056790 -0.097471
N28   N     N_R   0.450950 0.603070 0.056740 -0.038662
N29   N     N_R   0.549050 0.603070 0.943260 -0.037471
N30   N     N_R   0.950950 0.103070 0.056740 -0.039665
N31   N     N_R   0.049050 0.103070 0.943260 -0.036881
N32   N     N_R   0.525650 0.471570 0.206150 -0.035981
Ni1   Ni    Ni4+2 0.434860 0.434850 0.869700 0.227000
Ni2   Ni    Ni4+2 0.565140 0.434850 0.130300 0.204300
Ni3   Ni    Ni4+2 0.934860 0.934850 0.869700 0.198189
Ni4   Ni    Ni4+2 0.065140 0.934850 0.130300 0.193971
Ni5   Ni    Ni4+2 0.565130 0.565140 0.130240 0.202123
Ni6   Ni    Ni4+2 0.434870 0.565140 0.869760 0.206880
Ni7   Ni    Ni4+2 0.065130 0.065140 0.130240 0.209538
Ni8   Ni    Ni4+2 0.934870 0.065140 0.869760 0.206472
O1    O     O_3   0.270830 0.335921 0.813142 -0.662107
O2    O     O_3   0.703528 0.331860 0.199989 -0.648272
O3    O     O_3   0.746251 0.853772 0.803481 -0.650568
O4    O     O_3   0.221257 0.831284 0.191048 -0.656716

loop_
_geom_bond_atom_site_label_1
_geom_bond_atom_site_label_2
_ccdc_geom_bond_type
N26   Ni3   S    
C47   N30   A    
N13   Ni8   S    
C49   H9    S    
C62   C83   S    
C8    C78   A    
C26   H61   S    
C16   C21   A    
C91   N16   A    
C87   H42   S    
C55   C59   A    
C99   N24   A    
C89   H44   S    
C12   C91   A    
C79   H35   S    
N1    N22   A    
N19   Ni5   S    
C32   C58   A    
N5    N14   A    
C90   H46   S    
N14   Ni1   S    
C44   C104  S    
C57   C62   A    
C40   H8    S    
C55   H15   S    
C11   C81   A    
C16   C31   S    
N31   Ni8   S    
N23   N25   A    
C13   C84   A    
C3    C43   S    
C8    C69   S    
C78   H33   S    
N29   Ni6   S    
C45   C50   A    
C48   H30   S    
C35   C37   A    
C2    C68   S    
C9    C88   A    
C46   H28   S    
C30   C31   S    
N7    N16   A    
C53   H13   S    
C43   C52   A    
C65   H20   S    
C66   C69   A    
C27   C29   S    
C6    H71   S    
C27   H1    S    
C25   H60   S    
C85   N9    A    
N4    N13   A    
N24   Ni1   S    
C42   C102  S    
C100  C104  A    
C79   N4    A    
C7    H73   S    
C1    O1    S    
C78   N3    A    
C9    C79   A    
C97   H52   S    
C41   C49   A    
C37   C42   A    
C38   H7    S    
N15   Ni2   S    
C17   O2    S    
C76   C94   A    
C63   C68   A    
C44   C53   A    
C88   H43   S    
C90   N15   A    
C20   C24   A    
C10   C89   A    
C52   C54   A    
C39   N27   A    
C92   H48   S    
C67   C94   S    
C5    H66   S    
C98   H53   S    
C71   H22   S    
C18   C30   S    
C77   H32   S    
C32   C38   A    
C67   C71   A    
C75   H26   S    
C82   H38   S    
C42   C51   A    
C23   H58   S    
C3    C101  A    
C81   H37   S    
C5    O2    S    
C3    C39   A    
C27   H45   S    
C47   H29   S    
C34   C60   A    
C56   H16   S    
C36   C41   A    
N18   Ni6   S    
N10   Ni6   S    
C85   H40   S    
N12   Ni2   S    
C76   H31   S    
N9    Ni5   S    
C29   H56   S    
N7    Ni8   S    
C53   C55   A    
C17   N12   A    
C15   C20   A    
C30   H67   S    
N6    Ni5   S    
C11   C20   S    
C86   N10   A    
C51   H10   S    
C59   C61   S    
N5    Ni6   S    
C33   H2    S    
C46   C61   A    
N18   N28   A    
C33   C40   A    
C64   C67   A    
N6    N15   A    
C9    C70   S    
N21   Ni7   S    
C99   C103  A    
C74   C75   A    
N11   Ni7   S    
C71   C73   A    
N16   Ni3   S    
C10   C80   A    
N26   N27   A    
N4    Ni3   S    
C6    H70   S    
C84   H39   S    
C25   C26   A    
C80   H36   S    
C12   C21   S    
N20   N30   A    
N30   Ni7   S    
C41   C103  S    
C7    H74   S    
C31   H75   S    
N19   N29   A    
C50   C58   S    
C19   C23   A    
C4    H63   S    
C61   C95   A    
N2    Ni1   S    
C85   C94   A    
C28   C104  A    
C15   C27   S    
C5    H65   S    
C48   N31   A    
C10   C19   S    
C80   N5    A    
C7    H72   S    
C11   C90   A    
C54   C58   A    
C77   N2    A    
N12   N24   A    
C12   C82   A    
C69   C74   A    
C16   C18   A    
N22   Ni2   S    
C31   H34   S    
C37   H6    S    
N17   Ni4   S    
C51   C57   A    
C95   N19   A    
C29   H12   S    
N32   Ni2   S    
C45   H27   S    
C45   N28   A    
C54   H14   S    
C13   C92   A    
C22   C26   A    
N20   Ni8   S    
C38   C43   A    
C39   O4    S    
C74   H25   S    
C24   H59   S    
C34   H3    S    
C14   C29   S    
C92   N17   A    
C73   H24   S    
C86   H41   S    
C81   N6    A    
C36   H5    S    
C63   H18   S    
C46   N29   A    
C87   N11   A    
C6    O3    S    
C35   H4    S    
C52   H11   S    
N23   Ni3   S    
N3    Ni4   S    
C96   N20   A    
C21   C25   A    
C30   H23   S    
C1    N1    A    
C18   C22   A    
C28   N23   A    
C14   C19   A    
C98   N22   A    
N25   Ni4   S    
C97   N21   A    
N9    N32   A    
N3    N11   A    
C100  N25   A    
C66   H21   S    
C50   C93   A    
C6    H69   S    
C49   C56   A    
C48   C83   A    
C82   N7    A    
C8    C87   A    
C95   H50   S    
C101  H57   S    
C93   N18   A    
C68   C73   A    
N28   Ni5   S    
C2    C77   A    
C98   C102  A    
C91   H47   S    
C7    O4    S    
C100  H55   S    
C76   N32   A    
C4    O1    S    
N8    N17   A    
C28   O3    S    
C89   N14   A    
C88   N13   A    
C93   H49   S    
N27   Ni4   S    
C5    H68   S    
C4    H62   S    
C13   C22   S    
C2    C86   A    
C35   C62   A    
C34   C36   A    
C17   C103  A    
C47   C72   A    
C84   N8    A    
C101  N26   A    
C23   C24   A    
C57   H17   S    
C63   C64   A    
C72   C96   A    
C64   H19   S    
C4    H64   S    
C40   C44   A    
C56   C60   A    
C96   H51   S    
C33   C59   A    
C65   C66   A    
C83   C97   A    
C99   H54   S    
C70   C75   A    
C60   C72   S    
C14   C15   A    
C32   H76   S    
N1    Ni1   S    
N2    N10   A    
N8    Ni7   S    
C1    C102  A    
N21   N31   A    
C65   C70   A    
