data_mof_unit_43175.cif
_audit_creation_date              2012-12-11T16:56:12-0500
_audit_creation_method            fapswitch 2.2
_symmetry_space_group_name_H-M    P1
_symmetry_Int_Tables_number       1
_space_group_crystal_system       triclinic
_cell_length_a                    6.956929
_cell_length_b                    14.535433
_cell_length_c                    16.185719
_cell_angle_alpha                 90.465654
_cell_angle_beta                  89.991807
_cell_angle_gamma                 90.009366
_cell_volume                      1636.67778585

loop_
_atom_site_label
_atom_site_type_symbol
_atom_type_description
_atom_site_fract_x
_atom_site_fract_y
_atom_site_fract_z
_atom_type_partial_charge
O1    O     O_R   0.505830 0.583360 0.413880 -0.536867
O2    O     O_R   0.175830 0.595460 0.585520 -0.542605
O3    O     O_R   0.005520 0.416640 0.586120 -0.542078
C1    C     C_R   0.344446 0.617288 0.614427 0.703188
O4    O     O_R   0.176120 0.594390 0.414490 -0.542787
O5    O     O_R   0.005810 0.415570 0.413870 -0.539412
C2    C     C_R   0.344945 0.616206 0.385870 0.697042
O6    O     O_R   0.505540 0.584430 0.586130 -0.537606
O7    O     O_3   0.339200 0.441330 0.500000 -0.370967
V1    V     V_3+5 0.064350 0.510880 0.500000 1.389806
O8    O     O_R   0.676100 0.404540 0.414480 -0.539965
C3    C     C_R   0.845140 0.382194 0.386042 0.695948
O9    O     O_R   0.675810 0.405610 0.585510 -0.539905
C4    C     C_R   0.845016 0.383723 0.613658 0.743154
V2    V     V_3+5 0.564340 0.489120 0.500000 1.397825
O10   O     O_3   0.839360 0.558670 0.500000 -0.372318
C5    C     C_2   0.720997 0.208581 0.785814 -0.131716
C6    C     C_2   0.885649 0.181689 0.822524 -0.312112
H1    H     H_    0.585517 0.179684 0.806565 0.136057
H2    H     H_    0.022822 0.209820 0.803835 0.127947
C7    C     C_2   0.708575 0.277036 0.717817 -0.134966
C8    C     C_2   0.861557 0.315524 0.680525 -0.310425
H3    H     H_    0.564944 0.295685 0.697646 0.134702
H4    H     H_    0.006341 0.297550 0.698823 0.129072
C9    C     C_R   0.726368 0.245810 0.191244 0.108040
C10   C     C_R   0.882573 0.185574 0.183425 -0.108713
C11   C     C_R   0.034750 0.196283 0.240055 -0.180126
H5    H     H_    0.157778 0.151114 0.236644 0.128989
C12   C     C_R   0.022979 0.260636 0.305459 -0.178983
H6    H     H_    0.138383 0.263977 0.350104 0.129898
C13   C     C_R   0.858057 0.315643 0.316461 -0.109951
C14   C     C_R   0.714330 0.309203 0.256160 0.102050
C15   C     C_3   0.504299 0.293218 0.266459 -0.415029
C16   C     C_3   0.517323 0.224505 0.195461 -0.397568
H7    H     H_    0.417998 0.355221 0.251419 0.175510
H8    H     H_    0.470512 0.260757 0.326672 0.169922
H9    H     H_    0.439149 0.246923 0.139220 0.177143
H10   H     H_    0.490309 0.152279 0.214341 0.164001
C17   C     C_R   0.489287 0.755425 0.686213 0.094486
C18   C     C_R   0.351124 0.685532 0.682928 -0.111072
C19   C     C_R   0.213171 0.683841 0.746755 -0.213503
H11   H     H_    0.101618 0.631737 0.745517 0.123346
C20   C     C_R   0.226889 0.744059 0.815740 -0.045446
C21   C     C_R   0.376460 0.810646 0.820511 -0.144793
C22   C     C_R   0.499827 0.816979 0.752296 0.084191
C23   C     C_3   0.713935 0.820161 0.748208 -0.402403
C24   C     C_3   0.702234 0.752376 0.676194 -0.392812
H12   H     H_    0.781567 0.790954 0.804128 0.196645
H13   H     H_    0.767948 0.889082 0.730072 0.163051
H14   H     H_    0.763771 0.683753 0.690567 0.180107
H15   H     H_    0.749630 0.782290 0.616593 0.164344
C25   C     C_R   0.507134 0.680918 0.259814 0.104132
C26   C     C_R   0.352998 0.681178 0.315618 -0.113816
C27   C     C_R   0.201617 0.743081 0.300189 -0.179239
H16   H     H_    0.079194 0.745727 0.341198 0.132276
C28   C     C_R   0.212939 0.806804 0.235132 -0.173828
H17   H     H_    0.098292 0.856300 0.227886 0.125046
C29   C     C_R   0.376310 0.810857 0.183653 -0.108471
C30   C     C_R   0.518771 0.744218 0.195679 0.116652
C31   C     C_3   0.729789 0.756117 0.207129 -0.405960
C32   C     C_3   0.717236 0.686779 0.276679 -0.404801
H18   H     H_    0.766793 0.826665 0.228789 0.161878
H19   H     H_    0.813201 0.730673 0.153003 0.194686
H20   H     H_    0.747764 0.716860 0.338657 0.169740
H21   H     H_    0.792626 0.621064 0.262611 0.173343
O11   O     O_R   0.229930 0.912420 0.917160 -0.534817
O12   O     O_R   0.559420 0.902500 0.088780 -0.539541
O13   O     O_R   0.729660 0.081330 0.089380 -0.540487
C33   C     C_R   0.390328 0.880691 0.117443 0.695660
O14   O     O_R   0.559650 0.901420 0.917750 -0.534365
O15   O     O_R   0.729880 0.080250 0.917130 -0.538712
C34   C     C_R   0.390363 0.878217 0.889853 0.706983
O16   O     O_R   0.229700 0.913500 0.089410 -0.537473
O17   O     O_3   0.396250 0.055540 0.003280 -0.375618
V3    V     V_3+5 0.671130 0.986010 0.003260 1.429169
O18   O     O_R   0.059600 0.091310 0.917720 -0.545829
C35   C     C_R   0.890913 0.113154 0.889513 0.740575
O19   O     O_R   0.059370 0.092380 0.088750 -0.545710
C36   C     C_R   0.890624 0.114578 0.117332 0.684835
V4    V     V_3+5 0.171120 0.007820 0.003230 1.414363
O20   O     O_3   0.896130 0.938240 0.003240 -0.357241
C37   C     C_1   0.097309 0.729947 0.884203 0.286665
N1    N     N_1   0.993781 0.718539 0.939164 -0.362431

loop_
_geom_bond_atom_site_label_1
_geom_bond_atom_site_label_2
_ccdc_geom_bond_type
C11   C12   A    
C16   H9    S    
C19   H11   S    
C1    O6    A    
C26   C27   A    
C21   C22   A    
O13   V3    S    
C23   H13   S    
C10   C11   A    
C31   H19   S    
C25   C32   S    
O5    C3    A    
C15   H7    S    
O19   V4    S    
V2    O10   S    
C15   H8    S    
C28   H17   S    
C31   H18   S    
O1    C2    A    
C27   H16   S    
O8    V2    S    
O11   C34   A    
C1    C18   S    
C33   O16   A    
O1    V2    S    
O7    V1    S    
C9    C16   S    
C17   C22   A    
C9    C14   A    
C30   C31   S    
O17   V4    S    
O9    C4    A    
C19   C20   A    
C5    C6    D    
C24   H14   S    
C23   H12   S    
C27   C28   A    
O17   V3    S    
O18   C35   A    
C17   C18   A    
O4    C2    A    
O19   C36   A    
V3    O20   S    
C24   H15   S    
C29   C30   A    
C22   C23   S    
C5    C7    S    
C31   C32   S    
O12   C33   A    
C32   H20   S    
O2    C1    A    
C20   C21   A    
C12   H6    S    
C25   C30   A    
C13   C14   A    
C15   C16   S    
O3    C4    A    
C18   C19   A    
O6    V2    S    
C7    H3    S    
C3    C13   S    
C8    H4    S    
O12   V3    S    
C2    C26   S    
O2    V1    S    
O15   C35   A    
C25   C26   A    
C17   C24   S    
C23   C24   S    
C16   H10   S    
O18   V4    S    
V4    O20   S    
O5    V1    S    
O8    C3    A    
C29   C33   S    
O11   V4    S    
C10   C36   S    
C14   C15   S    
C4    C8    S    
O9    V2    S    
C9    C10   A    
O4    V1    S    
C12   C13   A    
O3    V1    S    
V1    O10   S    
O15   V3    S    
O13   C36   A    
C6    C35   S    
C5    H1    S    
O16   V4    S    
C28   C29   A    
C21   C34   S    
C6    H2    S    
O7    V2    S    
C32   H21   S    
C37   N1    T    
O14   V3    S    
C20   C37   S    
O14   C34   A    
C7    C8    D    
C11   H5    S    
