data_mof_unit_24265.cif
_audit_creation_date              2012-10-26T19:57:56-0400
_audit_creation_method            fapswitch 2.2
_symmetry_space_group_name_H-M    P1
_symmetry_Int_Tables_number       1
_space_group_crystal_system       triclinic
_cell_length_a                    7.449456
_cell_length_b                    8.796953
_cell_length_c                    12.986973
_cell_angle_alpha                 86.923627
_cell_angle_beta                  79.768556
_cell_angle_gamma                 102.822737
_cell_volume                      812.796587794

loop_
_atom_site_label
_atom_site_type_symbol
_atom_type_description
_atom_site_fract_x
_atom_site_fract_y
_atom_site_fract_z
_atom_type_partial_charge
C1    C     C_R   0.453291 0.200338 0.503580 0.563135
C2    C     C_R   0.658805 0.667462 0.126101 -0.013065
C3    C     C_R   0.544585 0.596346 0.863132 -0.016050
C4    C     C_R   0.455360 0.403563 0.136887 -0.016027
C5    C     C_R   0.551538 0.571234 0.970373 0.034858
C6    C     C_R   0.448501 0.428632 0.029627 0.034820
C7    C     C_2   0.426937 0.033435 0.514724 -0.056096
C8    C     C_2   0.573065 0.966565 0.485281 -0.056048
C9    C     C_2   0.374474 0.246669 0.197480 0.213843
C10   C     C_2   0.625279 0.753294 0.802588 0.213886
C11   C     C_2   0.767703 0.802196 0.170636 0.263494
C12   C     C_R   0.546709 0.799662 0.496420 0.563093
C13   C     C_2   0.232512 0.197550 0.829347 0.263403
C14   C     C_1   0.238742 0.945968 0.565173 0.296454
C15   C     C_1   0.761262 0.054031 0.434839 0.296535
C16   C     C_R   0.466581 0.490240 0.700908 0.571520
C17   C     C_R   0.533411 0.509714 0.299093 0.571589
C18   C     C_R   0.550200 0.527503 0.185870 -0.001141
C19   C     C_R   0.449785 0.472402 0.814132 -0.001156
C20   C     C_R   0.336730 0.315538 0.981243 -0.115474
C21   C     C_R   0.663404 0.684283 0.018738 -0.115382
C22   C     C_R   0.341313 0.332364 0.873879 -0.013074
Cu1   Cu    Cu3+1 0.686350 0.517570 0.488220 1.052959
Cu2   Cu    Cu3+1 0.313650 0.482430 0.511780 1.053104
H1    H     H_    0.246915 0.210624 0.026309 0.154486
H2    H     H_    0.753288 0.789155 0.973660 0.154523
H3    H     H_    0.934039 0.376166 0.583063 0.253147
H4    H     H_    0.065961 0.623834 0.416936 0.253115
H5    H     H_    0.295152 0.236138 0.276993 0.152904
H6    H     H_    0.704298 0.763903 0.723002 0.152827
H7    H     H_    0.878970 0.888491 0.119131 0.112681
H8    H     H_    0.121858 0.110859 0.880922 0.112760
N1    N     N_2   0.033570 0.455950 0.529530 -0.248455
N2    N     N_2   0.966430 0.544050 0.470470 -0.248504
N3    N     N_1   0.089070 0.877313 0.605287 -0.257748
N4    N     N_1   0.910936 0.122687 0.394732 -0.257849
O1    O     O_R   0.621060 0.286250 0.492350 -0.514079
O2    O     O_2   0.595730 0.872046 0.839748 -0.492231
O3    O     O_2   0.730971 0.823152 0.263166 -0.486393
O4    O     O_2   0.268593 0.177021 0.736705 -0.486444
O5    O     O_R   0.378940 0.713750 0.507650 -0.514045
O6    O     O_R   0.306310 0.256580 0.512240 -0.470671
O7    O     O_R   0.693690 0.743420 0.487760 -0.470803
O8    O     O_R   0.631800 0.512400 0.642670 -0.530931
O9    O     O_R   0.368200 0.487600 0.357330 -0.530907
O10   O     O_R   0.317060 0.482730 0.662570 -0.467143
O11   O     O_R   0.682940 0.517270 0.337430 -0.467339
O12   O     O_2   0.404171 0.127876 0.160425 -0.492078

loop_
_geom_bond_atom_site_label_1
_geom_bond_atom_site_label_2
_ccdc_geom_bond_type
Cu1   Cu2   S    
C3    C19   A    
C12   O5    A    
C1    O1    A    
C8    C12   S    
C12   O7    A    
Cu2   O6    S    
C10   H6    S    
C13   H8    S    
Cu2   N1    S    
C9    H5    S    
C10   O2    D    
Cu1   N2    S    
C4    C18   A    
C2    C21   A    
N1    N2    D    
C4    C9    S    
C11   H7    S    
C7    C8    D    
C3    C10   S    
Cu1   O1    S    
H3    N1    S    
C11   O3    D    
Cu2   O5    S    
C16   C19   S    
C2    C11   S    
C2    C18   A    
C21   H2    S    
C20   C22   A    
C13   C22   S    
C17   C18   S    
C8    C15   S    
C5    C6    A    
Cu1   O11   S    
C20   H1    S    
Cu2   O9    S    
H4    N2    S    
C1    O6    A    
C19   C22   A    
C6    C20   A    
C9    O12   D    
C4    C6    A    
C16   O10   A    
C14   N3    T    
C16   O8    A    
C13   O4    D    
C15   N4    T    
C1    C7    S    
Cu1   O7    S    
C7    C14   S    
Cu1   O8    S    
C17   O11   A    
C17   O9    A    
Cu2   O10   S    
C3    C5    A    
C5    C21   A    
