data_mof_unit_49803.cif
_audit_creation_date              2013-03-05T16:03:20-0500
_audit_creation_method            fapswitch 2.2
_symmetry_space_group_name_H-M    P1
_symmetry_Int_Tables_number       1
_space_group_crystal_system       triclinic
_cell_length_a                    27.80255
_cell_length_b                    11.717272
_cell_length_c                    10.457676
_cell_angle_alpha                 90.004354
_cell_angle_beta                  89.99799
_cell_angle_gamma                 89.867635
_cell_volume                      3406.78843249

loop_
_atom_site_label
_atom_site_type_symbol
_atom_site_description
_atom_site_fract_x
_atom_site_fract_y
_atom_site_fract_z
_atom_type_partial_charge
O1    O     O_R   0.500000 0.337200 0.605810 -0.566359
O2    O     O_R   0.500000 0.662800 0.394190 -0.566552
O3    O     O_R   0.500000 0.662800 0.605810 -0.566298
O4    O     O_R   0.500000 0.337200 0.394190 -0.566495
C1    C     C_R   0.500007 0.283306 0.499996 0.833751
C2    C     C_R   0.499993 0.716694 0.500004 0.833757
O5    O     O_R   0.430260 0.500000 0.605800 -0.577804
O6    O     O_R   0.569740 0.500000 0.394200 -0.577925
O7    O     O_R   0.569740 0.500000 0.605800 -0.577821
O8    O     O_R   0.430260 0.500000 0.394200 -0.577892
C3    C     C_R   0.407101 0.500136 0.500014 0.801617
C4    C     C_R   0.592900 0.499861 0.500009 0.801634
Cu1   Cu    Cu3+1 0.500000 0.500000 0.625300 0.989776
Cu2   Cu    Cu3+1 0.500000 0.500000 0.374700 0.989377
C5    C     C_R   0.178053 0.399803 0.520487 0.566242
C6    C     C_R   0.821944 0.600079 0.520774 0.566248
C7    C     C_R   0.177560 0.600580 0.481965 0.548848
C8    C     C_R   0.822433 0.399410 0.481519 0.548893
O9    O     O_2   0.204015 0.303242 0.535145 -0.477340
O10   O     O_2   0.795983 0.696594 0.535831 -0.477384
O11   O     O_2   0.202884 0.697684 0.466580 -0.495975
O12   O     O_2   0.797104 0.302365 0.465731 -0.495996
N1    N     N_R   0.201649 0.500395 0.500928 -0.484561
N2    N     N_R   0.798348 0.499545 0.500855 -0.484597
C9    C     C_R   0.278350 0.513244 0.385459 -0.111718
C10   C     C_R   0.721651 0.487713 0.385290 -0.111903
C11   C     C_R   0.278524 0.488407 0.615594 -0.099394
C12   C     C_R   0.721484 0.510547 0.615663 -0.099491
C13   C     C_R   0.328520 0.512762 0.385032 -0.205978
C14   C     C_R   0.671481 0.488203 0.384884 -0.205906
C15   C     C_R   0.328677 0.488503 0.615522 -0.208164
C16   C     C_R   0.671331 0.510476 0.615607 -0.208099
C17   C     C_R   0.253237 0.500812 0.500654 0.348143
C18   C     C_R   0.746764 0.499135 0.500596 0.348435
C19   C     C_R   0.101663 0.499534 0.501600 -0.184899
C20   C     C_R   0.898332 0.500391 0.501522 -0.184835
C21   C     C_R   0.127262 0.396571 0.523183 -0.078444
C22   C     C_R   0.872733 0.603302 0.523447 -0.078522
C23   C     C_R   0.126905 0.602732 0.480308 -0.093028
C24   C     C_R   0.873090 0.397250 0.479879 -0.093042
C25   C     C_R   0.101910 0.294075 0.548724 0.490988
C26   C     C_R   0.898086 0.705732 0.549298 0.490773
C27   C     C_R   0.100865 0.704462 0.457085 0.482371
C28   C     C_R   0.899129 0.295571 0.456343 0.482166
C29   C     C_R   0.354137 0.500446 0.500150 -0.043023
C30   C     C_R   0.645866 0.499536 0.500129 -0.043087
H1    H     H_    0.347476 0.478740 0.705584 0.162026
H2    H     H_    0.652537 0.519441 0.705774 0.162055
H3    H     H_    0.347208 0.522389 0.294813 0.161347
H4    H     H_    0.652794 0.479387 0.294573 0.161403
H5    H     H_    0.259238 0.478900 0.704924 0.138132
H6    H     H_    0.740776 0.519262 0.705075 0.137919
H7    H     H_    0.258923 0.522821 0.296325 0.131613
H8    H     H_    0.741078 0.478917 0.296059 0.131513
C31   C     C_R   0.974810 0.395927 0.495937 0.028059
C32   C     C_R   0.025186 0.604008 0.496326 0.028025
C33   C     C_R   0.974514 0.604014 0.512315 0.031512
C34   C     C_R   0.025481 0.395878 0.511976 0.031579
C35   C     C_R   0.949246 0.500207 0.502534 0.064676
C36   C     C_R   0.050750 0.499712 0.502584 0.064684
C37   C     C_R   0.949156 0.295173 0.470551 -0.323937
C38   C     C_R   0.050839 0.704827 0.471291 -0.324039
C39   C     C_R   0.948802 0.704051 0.542324 -0.344057
C40   C     C_R   0.051191 0.295763 0.541663 -0.344328
H9    H     H_    0.967582 0.215056 0.455941 0.139999
H10   H     H_    0.032412 0.784976 0.456923 0.140055
H11   H     H_    0.968675 0.778888 0.569027 0.143888
H12   H     H_    0.031302 0.220869 0.568040 0.143818
C41   C     C_1   0.500005 0.161955 0.499991 -0.170247
C42   C     C_1   0.499995 0.838045 0.500009 -0.170246
C43   C     C_1   0.500002 0.059721 0.499995 0.015848
C44   C     C_1   0.499998 0.940279 0.500005 0.015849
N3    N     N_1   0.500000 0.500000 0.186410 -0.142108
N4    N     N_1   0.500000 0.500000 0.813590 -0.142040
C45   C     C_1   0.500000 0.500000 0.072031 0.086478
C46   C     C_1   0.500000 0.500000 0.927969 0.086680
O13   O     O_3   0.128187 0.199775 0.592629 -0.568209
C47   C     C_3   0.105954 0.092036 0.577739 0.105311
H13   H     H_    0.134720 0.030157 0.552177 0.213886
H14   H     H_    0.079927 0.087999 0.496991 0.096415
C48   C     C_3   0.084020 0.053612 0.705313 -0.363091
H15   H     H_    0.112592 0.051855 0.779661 0.238664
H16   H     H_    0.055973 0.114826 0.737191 0.210859
C49   C     C_3   0.061865 0.935088 0.695119 -0.893203
H17   H     H_    0.034082 0.933729 0.619020 0.245004
H18   H     H_    0.044669 0.912040 0.787374 0.251540
H19   H     H_    0.090109 0.870878 0.673314 0.289613
O14   O     O_3   0.871837 0.799926 0.593587 -0.568180
C50   C     C_3   0.893949 0.907737 0.578048 0.105441
H20   H     H_    0.865116 0.969341 0.552192 0.213584
H21   H     H_    0.919975 0.911580 0.497275 0.096468
C51   C     C_3   0.915875 0.946819 0.705377 -0.363186
H22   H     H_    0.887323 0.948703 0.779782 0.238691
H23   H     H_    0.943996 0.885900 0.737480 0.210850
C52   C     C_3   0.937899 0.065434 0.694559 -0.892877
H24   H     H_    0.965654 0.066660 0.618379 0.245015
H25   H     H_    0.955103 0.088948 0.786655 0.251542
H26   H     H_    0.909578 0.129385 0.672529 0.289672
O15   O     O_3   0.124544 0.806237 0.432310 -0.582029
C53   C     C_3   0.114369 0.844985 0.306716 0.051458
H27   H     H_    0.121110 0.938385 0.304572 0.159795
H28   H     H_    0.076081 0.833514 0.278257 0.114430
C54   C     C_3   0.147634 0.787537 0.208893 -0.309736
H29   H     H_    0.185723 0.804483 0.234749 0.257626
H30   H     H_    0.141750 0.693766 0.209878 0.203897
C55   C     C_3   0.138231 0.832259 0.074066 -0.916157
H31   H     H_    0.100555 0.814314 0.045081 0.254055
H32   H     H_    0.162860 0.789311 0.005608 0.266299
H33   H     H_    0.144683 0.925707 0.069738 0.260003
O16   O     O_3   0.875447 0.193841 0.431334 -0.581936
C56   C     C_3   0.885641 0.155257 0.305680 0.051684
H34   H     H_    0.878905 0.061857 0.303369 0.159855
H35   H     H_    0.923931 0.166775 0.277263 0.114395
C57   C     C_3   0.852387 0.212825 0.207937 -0.309717
H36   H     H_    0.814296 0.195830 0.233728 0.257644
H37   H     H_    0.858265 0.306597 0.209106 0.203964
C58   C     C_3   0.861813 0.168290 0.073032 -0.916327
H38   H     H_    0.899492 0.186282 0.044115 0.254069
H39   H     H_    0.837193 0.211327 0.004633 0.266300
H40   H     H_    0.855365 0.074846 0.068520 0.259974

loop_
_geom_bond_atom_site_label_1
_geom_bond_atom_site_label_2
_geom_bond_distance
_ccdc_geom_bond_type
O5    Cu1   1.949651 S    
C31   C35   1.413819 A    
N3    C45   1.196135 T    
C52   H24   1.109214 S    
C49   H19   1.109910 S    
C20   C35   1.415562 A    
C48   H15   1.111731 S    
C52   H26   1.109903 S    
C13   H3    1.083082 S    
O13   C47   1.415472 S    
C11   C17   1.399933 A    
C5    O9    1.349403 S    
C7    N1    1.364666 A    
N4    C46   1.196135 T    
C8    N2    1.364642 A    
C40   H12   1.074356 S    
C19   C21   1.417430 A    
C27   O15   1.387916 S    
C22   C26   1.419262 A    
C58   H39   1.110397 S    
C25   O13   1.400647 S    
C47   H14   1.113164 S    
C33   C35   1.409753 A    
C55   H31   1.110996 S    
C34   C36   1.409746 A    
C32   C33   1.418687 A    
C7    C23   1.408630 A    
C41   C43   1.197901 T    
O7    Cu1   1.949634 S    
O16   C56   1.418003 S    
C5    C21   1.413003 A    
C1    C41   1.421910 S    
C10   C18   1.399959 A    
C56   H34   1.110995 S    
N1    C17   1.434295 S    
C50   H21   1.113213 S    
O3    Cu1   1.918445 S    
O6    C4    1.280254 A    
O3    C2    1.274046 A    
C5    N1    1.365672 A    
C14   H4    1.082982 S    
C12   C18   1.399777 A    
C6    N2    1.365628 A    
C15   H1    1.083086 S    
Cu1   Cu2   2.620694 S    
C34   C40   1.406982 A    
C16   H2    1.082993 S    
C56   C57   1.533593 S    
O2    C2    1.274033 A    
C10   H8    1.082955 S    
C53   H28   1.113775 S    
C48   H16   1.109509 S    
C11   H5    1.083004 S    
C33   C39   1.406954 A    
C9    C13   1.394870 A    
C39   H11   1.074427 S    
C42   C44   1.197901 T    
C38   H10   1.079266 S    
C11   C15   1.394387 A    
Cu2   N3    1.969076 S    
C20   C24   1.417111 A    
C49   H17   1.109217 S    
C56   H35   1.113767 S    
O8    Cu2   1.949637 S    
C58   H40   1.110899 S    
C47   H13   1.110888 S    
C23   C27   1.414231 A    
C53   C54   1.533601 S    
N2    C18   1.434200 S    
C32   C36   1.413816 A    
C13   C29   1.406047 A    
C19   C36   1.415545 A    
C19   C23   1.417105 A    
C45   C46   1.506559 S    
O5    C3    1.280035 A    
O15   C53   1.418005 S    
C12   C16   1.394395 A    
C6    O10   1.349394 S    
C51   H23   1.109509 S    
C54   H30   1.111270 S    
O14   C50   1.415536 S    
C50   C51   1.534815 S    
C4    C30   1.472592 S    
C10   C14   1.394867 A    
C26   O14   1.400520 S    
O1    C1    1.274034 A    
C3    C29   1.472534 S    
O1    Cu1   1.918414 S    
C48   C49   1.524272 S    
C2    C42   1.421910 S    
O6    Cu2   1.949648 S    
C8    O12   1.349026 S    
C16   C30   1.405876 A    
C14   C30   1.405975 A    
C9    H7    1.083045 S    
O4    C1    1.274047 A    
C57   H37   1.111271 S    
C52   H25   1.110356 S    
C57   H36   1.111264 S    
C28   C37   1.398784 A    
C20   C22   1.417445 A    
C43   C44   1.399529 S    
O4    Cu2   1.918445 S    
C58   H38   1.111000 S    
C12   H6    1.082911 S    
C47   C48   1.534862 S    
C55   H32   1.110395 S    
C31   C37   1.405967 A    
C51   H22   1.111732 S    
C54   C55   1.526595 S    
C32   C38   1.405945 A    
C51   C52   1.524253 S    
C21   C25   1.419317 A    
O2    Cu2   1.918415 S    
O7    C4    1.280054 A    
C7    O11   1.349037 S    
C57   C58   1.526610 S    
O8    C3    1.280245 A    
C37   H9    1.079258 S    
C24   C28   1.414245 A    
C8    C24   1.408647 A    
Cu1   N4    1.969077 S    
C15   C29   1.405962 A    
C31   C34   1.418749 A    
C6    C22   1.412947 A    
C54   H29   1.111264 S    
C49   H18   1.110357 S    
C53   H27   1.110986 S    
C25   C40   1.412146 A    
C50   H20   1.110908 S    
C26   C39   1.412014 A    
C27   C38   1.398748 A    
C9    C17   1.400130 A    
C55   H33   1.110899 S    
C28   O16   1.387940 S    
