data_mof_unit_67268.cif
_audit_creation_date              2013-03-05T16:01:56-0500
_audit_creation_method            fapswitch 2.2
_symmetry_space_group_name_H-M    P1
_symmetry_Int_Tables_number       1
_space_group_crystal_system       triclinic
_cell_length_a                    8.55793
_cell_length_b                    14.658266
_cell_length_c                    15.33158
_cell_angle_alpha                 94.933891
_cell_angle_beta                  99.531034
_cell_angle_gamma                 93.65002
_cell_volume                      1883.73535156

loop_
_atom_site_label
_atom_site_type_symbol
_atom_site_description
_atom_site_fract_x
_atom_site_fract_y
_atom_site_fract_z
_atom_type_partial_charge
P1    P     P_3+3 0.018620 0.416870 0.295980 0.514994
O1    O     O_2   0.841250 0.444240 0.280450 -0.348936
O2    O     O_3   0.112870 0.447390 0.393710 -0.339487
O3    O     O_3   0.597960 0.615760 0.327700 -0.365041
O4    O     O_2   0.672227 0.564027 0.179529 -0.292533
O5    O     O_3   0.018811 0.296487 0.280557 -0.631805
O6    O     O_3   0.606324 0.732241 0.195881 -0.456255
H1    H     H_    0.625333 0.786479 0.326495 0.072961
C1    C     C_3   0.605256 0.892442 0.237954 0.405607
H2    H     H_    0.735155 0.900887 0.238303 0.091725
P2    P     P_3+3 0.635650 0.716500 0.560900 0.526664
P3    P     P_3+3 0.039585 0.782973 0.369230 0.588376
O7    O     O_2   0.802240 0.729720 0.532850 -0.255556
O8    O     O_3   0.017190 0.664840 0.371090 -0.245311
O9    O     O_2   0.915693 0.822925 0.421337 -0.336973
O10   O     O_3   0.686778 0.755929 0.678557 -0.577812
O11   O     O_3   0.968763 0.803667 0.259779 -0.571204
C2    C     C_3   0.091319 0.791657 0.210446 0.125706
H3    H     H_    0.137451 0.722657 0.216820 0.019833
H4    H     H_    0.189266 0.846222 0.233748 0.073130
C3    C     C_3   0.029429 0.800345 0.112106 1.188566
C4    C     C_3   0.215857 0.765155 0.657796 0.753892
C5    C     C_3   0.104869 0.843651 0.657508 0.690111
H5    H     H_    0.144222 0.896998 0.715775 0.020743
Ba1   Ba    Ba6+2 0.833410 0.543320 0.453520 1.724345
C6    C     C_3   0.880654 0.247861 0.294510 0.731018
H6    H     H_    0.802070 0.291508 0.326943 0.093390
C7    C     C_3   0.929743 0.171843 0.352543 -1.087353
H7    H     H_    0.990183 0.119981 0.316408 0.278682
H8    H     H_    0.823491 0.135714 0.369941 0.233107
H9    H     H_    0.012928 0.200556 0.413386 0.246620
C8    C     C_3   0.724917 0.696625 0.746790 0.597599
C9    C     C_3   0.607922 0.696964 0.813162 0.352248
H10   H     H_    0.487389 0.692421 0.775042 0.133454
P4    P     P_3+3 0.171070 0.583210 0.704020 0.572780
O12   O     O_2   0.348460 0.555790 0.719610 -0.420800
O13   O     O_3   0.076820 0.552690 0.606290 -0.323851
O14   O     O_3   0.591740 0.384320 0.672310 -0.305804
O15   O     O_3   0.200845 0.707001 0.726617 -0.533024
P5    P     P_3+3 0.153963 0.215879 0.633376 0.549413
O16   O     O_3   0.629090 0.386360 0.459240 -0.321982
O17   O     O_3   0.172500 0.335240 0.628910 -0.370385
O18   O     O_2   0.274727 0.175566 0.579044 -0.338455
O19   O     O_3   0.222929 0.190870 0.743267 -0.496913
Ba2   Ba    Ba6+2 0.356410 0.456750 0.546480 1.700325
P6    P     P_3+3 0.547310 0.620035 0.215306 0.609308
C10   C     C_3   0.560660 0.795279 0.259167 0.373040
H11   H     H_    0.430871 0.786074 0.258301 -0.030799
O20   O     O_3   0.560600 0.613720 0.540760 -0.384391
C11   C     C_3   0.377502 0.250221 0.279774 0.476611
H12   H     H_    0.310858 0.296033 0.318232 0.049989
C12   C     C_3   0.280424 0.158404 0.251246 0.060038
H13   H     H_    0.257027 0.126905 0.311100 0.162682
H14   H     H_    0.163667 0.168985 0.210753 0.124494
P7    P     P_3+3 0.556950 0.269083 0.439693 0.460023
O21   O     O_2   0.387470 0.270310 0.467210 -0.386791
O22   O     O_3   0.529803 0.235677 0.324733 -0.583486
C13   C     C_3   0.246553 0.274027 0.798929 0.442850
H15   H     H_    0.342366 0.319353 0.781235 0.090782
H16   H     H_    0.137134 0.309253 0.789658 -0.037442
C14   C     C_3   0.283293 0.260050 0.898525 1.085946
P8    P     P_3+3 0.678922 0.366416 0.781960 0.570940
C15   C     C_3   0.689038 0.183213 0.774672 1.152656
O23   O     O_2   0.587844 0.429705 0.838446 -0.409528
O24   O     O_3   0.618216 0.258582 0.811688 -0.522052
C16   C     C_3   0.717703 0.113269 0.846468 0.486307
C17   C     C_R   0.339477 0.564818 0.170552 0.179771
C18   C     C_R   0.111152 0.473230 0.206197 0.086602
C19   C     C_R   0.984452 0.443530 0.763967 -0.552537
C20   C     C_R   0.893561 0.405749 0.820943 0.208750
C21   C     C_R   0.960224 0.408102 0.910241 0.491605
C22   C     C_R   0.072245 0.482104 0.951034 -0.065179
C23   C     C_R   0.142582 0.536685 0.891073 -0.172311
C24   C     C_R   0.123036 0.500496 0.047626 -0.051699
C25   C     C_R   0.264990 0.559193 0.079218 -0.194475
C26   C     C_R   0.327035 0.612397 0.018860 0.436663
C27   C     C_R   0.255458 0.607936 0.929506 0.369479
C28   C     C_R   0.038325 0.465562 0.114015 0.072551
C29   C     C_R   0.264340 0.518002 0.230787 0.180353
C30   C     C_R   0.097719 0.516891 0.794954 0.304926
H17   H     H_    0.948320 0.426237 0.693309 0.239016
C31   C     C_R   0.711490 0.939824 0.536058 -0.029303
C32   C     C_R   0.515372 0.801851 0.491545 0.021086
C33   C     C_R   0.362956 0.770453 0.441358 0.145579
C34   C     C_R   0.247125 0.831608 0.415534 0.112542
C35   C     C_R   0.287894 0.926882 0.426309 0.321652
C36   C     C_R   0.443983 0.960489 0.464768 0.045874
C37   C     C_R   0.558509 0.899672 0.497988 -0.100344
C38   C     C_R   0.639843 0.094378 0.503975 -0.111011
C39   C     C_R   0.752640 0.035577 0.540610 0.038688
C40   C     C_R   0.683296 0.190291 0.505251 0.123422
C41   C     C_R   0.836643 0.225680 0.547380 0.239103
C42   C     C_R   0.948631 0.167477 0.584284 0.236895
C43   C     C_R   0.905339 0.073457 0.581602 -0.284716
C44   C     C_R   0.486550 0.055707 0.468237 0.070454
H18   H     H_    0.989832 0.030967 0.614237 0.183690
H19   H     H_    0.801499 0.896566 0.558406 0.216751
H20   H     H_    0.398641 0.100124 0.442590 0.177843
O25   O     O_3   0.094807 0.884189 0.577335 -0.742705
H21   H     H_    0.173877 0.938090 0.586833 0.299978
O26   O     O_3   0.956835 0.810482 0.666143 -0.662983
H22   H     H_    0.903460 0.863879 0.687544 0.332408
I1    I     I_    0.764221 0.179624 0.169311 -0.247251
I2    I     I_    0.946949 0.735241 0.834023 -0.231646
I3    I     I_    0.743082 0.567180 0.695052 -0.122717
I4    I     I_    0.625326 0.817931 0.906347 -0.146090
O27   O     O_3   0.633407 0.623635 0.865814 -0.727695
H23   H     H_    0.529226 0.590830 0.866135 0.365273
O28   O     O_3   0.565219 0.956583 0.301517 -0.779427
H24   H     H_    0.615542 0.016837 0.291744 0.366744
I5    I     I_    0.404031 0.316401 0.164132 -0.382820
O29   O     O_3   0.364050 0.098414 0.203804 -0.638908
H25   H     H_    0.334666 0.108088 0.140057 0.366033
I6    I     I_    0.483724 0.916896 0.110049 -0.137403
O30   O     O_3   0.152343 0.782247 0.064389 -0.790190
H26   H     H_    0.128520 0.810223 0.007592 0.374732
O31   O     O_3   0.279746 0.344124 0.948845 -0.846768
H27   H     H_    0.370405 0.385485 0.939050 0.328160
O32   O     O_3   0.168278 0.195453 0.917621 -0.682161
H28   H     H_    0.187791 0.192034 0.982868 0.348534
O33   O     O_3   0.433929 0.229198 0.920586 -0.740077
H29   H     H_    0.454487 0.225127 0.985695 0.348599
O34   O     O_3   0.832915 0.209556 0.747396 -0.827857
H30   H     H_    0.915173 0.222365 0.801227 0.337255
O35   O     O_3   0.581298 0.143175 0.700045 -0.711351
H31   H     H_    0.617887 0.082844 0.681852 0.291872
I7    I     I_    0.871288 0.012361 0.811415 -0.234263
I8    I     I_    0.499552 0.041787 0.864335 -0.142834
O36   O     O_3   0.795489 0.157399 0.928288 -0.649279
H32   H     H_    0.716385 0.190684 0.955897 0.388669
O37   O     O_3   0.347368 0.512967 0.314496 -0.684254
H33   H     H_    0.349483 0.447428 0.324518 0.326207
O38   O     O_3   0.450671 0.677162 0.048114 -0.669537
H34   H     H_    0.526149 0.671740 0.006058 0.376919
I9    I     I_    0.791078 0.415813 0.080141 -0.175110
O39   O     O_3   0.941363 0.326675 0.947141 -0.705988
H35   H     H_    0.025846 0.324928 0.999317 0.375944
O40   O     O_3   0.295727 0.676111 0.880170 -0.730966
H36   H     H_    0.311453 0.735178 0.918317 0.378184
O41   O     O_3   0.318109 0.678806 0.420514 -0.682541
H37   H     H_    0.413389 0.647976 0.413841 0.381729
O42   O     O_3   0.178747 0.989693 0.401236 -0.761176
H38   H     H_    0.084326 0.959203 0.361225 0.347048
O43   O     O_3   0.879753 0.317641 0.550013 -0.708614
H39   H     H_    0.903994 0.327344 0.490320 0.313661
O44   O     O_3   0.897452 0.736853 0.080167 -0.687035
H40   H     H_    0.936060 0.674370 0.081001 0.314159
O45   O     O_3   0.986192 0.890499 0.101706 -0.701179
H41   H     H_    0.881353 0.895599 0.120487 0.346106
I10   I     I_    0.424957 0.856699 0.688390 -0.419688
O46   O     O_3   0.198112 0.716055 0.574450 -0.665728
H42   H     H_    0.291195 0.678945 0.577614 0.329316

loop_
_geom_bond_atom_site_label_1
_geom_bond_atom_site_label_2
_geom_bond_distance
_ccdc_geom_bond_type
C5    O25   1.403021 S    
P7    O21   1.576902 D    
C15   O24   1.414662 S    
C42   C43   1.399470 A    
C14   O32   1.405552 S    
C2    C3    1.532007 S    
P4    O12   1.580294 D    
C9    O27   1.405481 S    
P5    C42   1.862546 S    
C3    O30   1.403231 S    
C4    I10   2.128585 S    
O3    Ba1   2.871630 S    
C44   H20   1.073750 S    
O34   H30   0.987963 S    
O3    P6    1.713426 S    
C34   C35   1.406614 A    
C6    H6    1.104390 S    
O26   H22   0.989911 S    
P3    C34   1.871080 S    
C32   C33   1.426712 A    
C1    I6    2.132753 S    
C41   C42   1.405009 A    
C7    H7    1.106747 S    
P4    O13   1.591953 S    
P1    O1    1.579878 D    
C31   C37   1.410967 A    
C12   O29   1.398915 S    
C13   H16   1.092601 S    
O30   H26   0.990588 S    
P4    C30   1.930814 S    
P1    C18   1.917731 S    
C16   I7    2.132839 S    
P8    C20   1.872440 S    
C14   O33   1.391732 S    
C2    H3    1.115110 S    
O16   P7    1.772331 S    
O14   Ba2   2.871021 S    
P8    O23   1.547760 D    
Ba1   O13   2.852459 S    
P5    O18   1.545755 D    
O25   H21   0.991393 S    
Ba2   O21   2.940155 S    
O19   C13   1.409792 S    
C36   C44   1.414091 A    
P3    O11   1.746243 S    
C11   C12   1.526091 S    
O27   H23   0.986627 S    
C8    I2    2.147292 S    
C20   C21   1.389875 A    
C38   C40   1.428825 A    
C1    H2    1.109754 S    
C16   O36   1.401512 S    
C18   C29   1.405599 A    
P5    O17   1.754962 S    
C32   C37   1.448534 A    
C15   C16   1.568335 S    
P1    Ba1   3.557177 S    
O7    Ba1   2.940156 S    
P7    C40   1.874064 S    
O29   H25   0.992736 S    
C12   H14   1.112986 S    
C39   C43   1.409465 A    
C26   C27   1.399213 A    
C18   C28   1.438922 A    
C24   C25   1.432160 A    
C14   O31   1.401355 S    
P1    O5    1.760240 S    
O6    P6    1.754200 S    
O2    Ba1   3.077427 S    
C17   C29   1.409520 A    
C27   O40   1.364570 S    
C22   C24   1.468998 A    
Ba1   O16   2.816363 S    
C40   C41   1.408358 A    
C35   C36   1.407173 A    
C22   C23   1.447751 A    
P2    C32   1.945696 S    
C13   H15   1.105744 S    
O2    Ba2   2.853127 S    
P6    C17   1.899064 S    
P1    O2    1.591953 S    
C1    O28   1.394647 S    
O6    C10   1.401893 S    
C38   C44   1.398712 A    
P4    O15   1.811451 S    
C25   C26   1.407345 A    
C3    O45   1.409850 S    
P2    O20   1.583899 S    
C6    I1    2.141788 S    
O38   H34   0.987397 S    
P2    O10   1.818385 S    
C10   H11   1.108070 S    
P3    O9    1.544154 D    
Ba2   O20   2.815840 S    
O46   H42   0.989818 S    
C29   O37   1.370541 S    
C9    H10   1.093136 S    
O12   Ba2   2.927006 S    
C11   H12   1.102680 S    
C33   C34   1.409672 A    
C43   H18   1.073432 S    
O33   H29   0.992161 S    
C15   O35   1.403535 S    
P3    O8    1.733246 S    
C1    C10   1.526914 S    
C8    I3    2.018205 S    
P7    O22   1.761156 S    
O35   H31   0.989782 S    
C31   H19   1.060639 S    
C17   C25   1.432408 A    
O13   Ba2   3.078450 S    
O37   H33   0.986679 S    
P4    Ba2   3.557908 S    
Ba1   Ba2   4.677989 S    
C21   O39   1.375715 S    
C12   H13   1.103324 S    
C35   O42   1.385428 S    
O44   H40   0.993647 S    
C28   I9    2.157101 S    
C4    O46   1.391948 S    
O16   Ba2   3.066262 S    
C5    H5    1.126774 S    
P8    O24   1.753258 S    
O42   H38   0.985740 S    
C11   O22   1.408017 S    
C6    C7    1.521893 S    
C7    H9    1.108360 S    
C9    I4    2.160455 S    
O39   H35   0.988757 S    
C15   O34   1.406349 S    
O32   H28   0.992695 S    
O10   C8    1.426897 S    
O4    P6    1.531730 D    
C26   O38   1.365156 S    
C31   C39   1.418096 A    
O11   C2    1.402292 S    
O43   H39   0.991137 S    
C8    C9    1.541141 S    
C7    H8    1.105329 S    
O36   H32   0.988391 S    
H1    C10   1.109629 S    
C21   C22   1.428008 A    
O31   H27   0.993197 S    
C3    O44   1.409333 S    
P2    O7    1.561159 D    
O5    C6    1.398001 S    
C13   C14   1.541258 S    
O41   H37   0.972700 S    
C4    O15   1.429023 S    
C11   I5    2.130071 S    
C23   C30   1.458818 A    
C16   I8    2.151274 S    
O1    Ba1   2.926259 S    
C2    H4    1.111879 S    
O45   H41   0.991906 S    
O8    Ba1   2.816461 S    
C19   C20   1.388579 A    
C41   O43   1.370110 S    
Ba1   O20   3.067265 S    
C19   H17   1.079473 S    
O40   H36   0.990874 S    
C5    O26   1.359066 S    
P2    Ba1   3.573446 S    
P5    O19   1.767986 S    
C33   O41   1.368947 S    
C36   C37   1.427853 A    
C24   C28   1.452774 A    
C23   C27   1.395820 A    
C4    C5    1.537780 S    
C19   C30   1.395906 A    
C38   C39   1.414167 A    
O28   H24   0.991811 S    
O17   Ba2   2.817029 S    
O14   P8    1.771194 S    
