data_mof_unit_25475.cif
_audit_creation_date              2012-12-10T19:24:33-0500
_audit_creation_method            fapswitch 2.2
_symmetry_space_group_name_H-M    P1
_symmetry_Int_Tables_number       1
_space_group_crystal_system       triclinic
_cell_length_a                    17.726703
_cell_length_b                    16.389882
_cell_length_c                    11.09
_cell_angle_alpha                 90.000079
_cell_angle_beta                  89.999882
_cell_angle_gamma                 89.977543
_cell_volume                      3222.07249844

loop_
_atom_site_label
_atom_site_type_symbol
_atom_type_description
_atom_site_fract_x
_atom_site_fract_y
_atom_site_fract_z
_atom_type_partial_charge
C1    C     C_R   0.355169 0.500008 0.500046 0.799827
C2    C     C_R   0.644831 0.499991 0.500046 0.799824
C3    C     C_R   0.885609 0.500000 0.500509 0.149378
C4    C     C_R   0.114391 0.500001 0.500509 0.149379
C5    C     C_1   0.966179 0.500001 0.500568 -0.065844
C6    C     C_1   0.033821 0.499999 0.500568 -0.065844
C7    C     C_R   0.566073 0.829366 0.476283 -0.313799
C8    C     C_R   0.433927 0.170634 0.476285 -0.313785
C9    C     C_R   0.434009 0.829391 0.525028 -0.292922
C10   C     C_R   0.565991 0.170610 0.525026 -0.292939
C11   C     C_R   0.564667 0.743502 0.474546 0.042203
C12   C     C_R   0.435333 0.256497 0.474547 0.042207
C13   C     C_R   0.435396 0.743512 0.526039 0.048734
C14   C     C_R   0.564605 0.256488 0.526038 0.048736
C15   C     C_R   0.499968 0.873370 0.500255 0.123079
C16   C     C_R   0.500032 0.126630 0.500255 0.123080
C17   C     C_1   0.500013 0.962748 0.500919 -0.064425
C18   C     C_1   0.499987 0.037252 0.500919 -0.064431
C19   C     C_R   0.500000 0.500000 0.261670 0.814820
C20   C     C_R   0.500000 0.500000 0.738559 0.815983
C21   C     C_R   0.536644 0.648195 0.115669 -0.317131
C22   C     C_R   0.523527 0.348747 0.885560 -0.321878
C23   C     C_R   0.476480 0.651255 0.885561 -0.321890
C24   C     C_R   0.463363 0.351803 0.115668 -0.317134
C25   C     C_R   0.526707 0.723035 0.057221 0.415563
C26   C     C_R   0.504549 0.275448 0.942171 0.415211
C27   C     C_R   0.495464 0.724552 0.942171 0.415212
C28   C     C_R   0.473305 0.276964 0.057221 0.415566
C29   C     C_R   0.494792 0.574839 0.938400 0.016631
C30   C     C_R   0.488558 0.425961 0.062564 0.015893
C31   C     C_R   0.511445 0.574038 0.062565 0.015893
C32   C     C_R   0.505211 0.425161 0.938399 0.016627
C33   C     C_R   0.500001 0.500000 0.872657 -0.130905
C34   C     C_R   0.500001 0.500000 0.128008 -0.129598
C35   C     C_R   0.846374 0.573918 0.504238 -0.155032
C36   C     C_R   0.153626 0.426083 0.504236 -0.155032
C37   C     C_R   0.153562 0.573922 0.496654 -0.155584
C38   C     C_R   0.846438 0.426078 0.496652 -0.155582
C39   C     C_R   0.767741 0.574013 0.504088 -0.195663
C40   C     C_R   0.232259 0.425988 0.504085 -0.195665
C41   C     C_R   0.232196 0.574026 0.496503 -0.195911
C42   C     C_R   0.767805 0.425975 0.496500 -0.195912
C43   C     C_R   0.727763 0.499990 0.500197 -0.035890
C44   C     C_R   0.272237 0.500010 0.500197 -0.035889
Cu1   Cu    Cu3+1 0.500000 0.580420 0.500000 0.927830
Cu2   Cu    Cu3+1 0.500000 0.419580 0.500000 0.927831
H1    H     H_    0.567079 0.649852 0.199778 0.192724
H2    H     H_    0.554817 0.343417 0.802693 0.194598
H3    H     H_    0.445190 0.656586 0.802694 0.194597
H4    H     H_    0.432928 0.350144 0.199776 0.192725
H5    H     H_    0.738384 0.631919 0.507189 0.139233
H6    H     H_    0.261616 0.368081 0.507185 0.139233
H7    H     H_    0.261505 0.631932 0.493319 0.139725
H8    H     H_    0.738495 0.368069 0.493316 0.139724
H9    H     H_    0.618211 0.861152 0.456715 0.148613
H10   H     H_    0.381789 0.138847 0.456718 0.148613
H11   H     H_    0.381946 0.861180 0.545224 0.143391
H12   H     H_    0.618055 0.138821 0.545220 0.143393
H13   H     H_    0.615953 0.711435 0.452317 0.128750
H14   H     H_    0.384047 0.288564 0.452319 0.128748
H15   H     H_    0.384174 0.711415 0.548443 0.125906
H16   H     H_    0.615826 0.288585 0.548440 0.125907
N1    N     N_R   0.500000 0.701220 0.500000 -0.172578
N2    N     N_R   0.500000 0.298780 0.500000 -0.172576
O1    O     O_R   0.391260 0.567930 0.500000 -0.596722
O2    O     O_R   0.608740 0.432070 0.500000 -0.596723
O3    O     O_R   0.608740 0.567930 0.500000 -0.598168
O4    O     O_R   0.391260 0.432070 0.500000 -0.598168
O5    O     O_R   0.500000 0.567910 0.319660 -0.587212
O6    O     O_R   0.500000 0.432090 0.680340 -0.589956
O7    O     O_R   0.500000 0.567910 0.680340 -0.589959
O8    O     O_R   0.500000 0.432090 0.319660 -0.587216
O9    O     O_3   0.446097 0.205569 0.107412 -0.625743
C45   C     C_3   0.498842 0.173238 0.190242 0.054819
H17   H     H_    0.524779 0.221017 0.248629 0.149385
H18   H     H_    0.466939 0.131414 0.249791 0.185205
C46   C     C_3   0.559963 0.122635 0.126810 -0.316417
H19   H     H_    0.533222 0.080546 0.060836 0.246585
H20   H     H_    0.599145 0.163947 0.078111 0.233959
C47   C     C_3   0.605673 0.072378 0.216680 -0.933263
H21   H     H_    0.632104 0.112783 0.285069 0.260990
H22   H     H_    0.650865 0.038815 0.168234 0.261751
H23   H     H_    0.568900 0.027208 0.262483 0.260861
O10   O     O_3   0.479201 0.798641 0.888626 -0.630274
C48   C     C_3   0.533013 0.816542 0.798489 0.053111
H24   H     H_    0.507607 0.864202 0.740632 0.190101
H25   H     H_    0.545726 0.763049 0.739843 0.154877
C49   C     C_3   0.605723 0.851883 0.852297 -0.318528
H26   H     H_    0.591497 0.902856 0.914423 0.244271
H27   H     H_    0.635937 0.803886 0.903942 0.231028
C50   C     C_3   0.658123 0.883604 0.753731 -0.934704
H28   H     H_    0.673965 0.833333 0.691492 0.256410
H29   H     H_    0.710252 0.908465 0.795285 0.259739
H30   H     H_    0.630160 0.933055 0.701761 0.263432
O11   O     O_3   0.520824 0.201361 0.888630 -0.630276
C51   C     C_3   0.467012 0.183444 0.798502 0.053106
H31   H     H_    0.454277 0.236932 0.739863 0.154868
H32   H     H_    0.492429 0.135796 0.740637 0.190109
C52   C     C_3   0.394319 0.148074 0.852322 -0.318544
H33   H     H_    0.408567 0.097112 0.914451 0.244280
H34   H     H_    0.364090 0.196058 0.903966 0.231041
C53   C     C_3   0.341929 0.116324 0.753766 -0.934726
H35   H     H_    0.326063 0.166585 0.691525 0.256416
H36   H     H_    0.289814 0.091440 0.795329 0.259748
H37   H     H_    0.369908 0.066886 0.701796 0.263443
O12   O     O_3   0.553924 0.794427 0.107409 -0.625735
C54   C     C_3   0.501181 0.826770 0.190233 0.054826
H38   H     H_    0.533089 0.868590 0.249783 0.185202
H39   H     H_    0.475234 0.778996 0.248620 0.149377
C55   C     C_3   0.440068 0.877382 0.126793 -0.316412
H40   H     H_    0.466818 0.919464 0.060817 0.246587
H41   H     H_    0.400880 0.836076 0.078097 0.233956
C56   C     C_3   0.394365 0.927652 0.216657 -0.933249
H42   H     H_    0.367928 0.887256 0.285051 0.260991
H43   H     H_    0.349178 0.961222 0.168206 0.261749
H44   H     H_    0.431146 0.972819 0.262454 0.260862
H45   H     H_    0.876537 0.631376 0.507276 0.129413
H46   H     H_    0.123463 0.368624 0.507272 0.129412
H47   H     H_    0.123347 0.631377 0.493720 0.129272
H48   H     H_    0.876653 0.368624 0.493717 0.129272

loop_
_geom_bond_atom_site_label_1
_geom_bond_atom_site_label_2
_ccdc_geom_bond_type
C39   H5    S    
C4    C36   A    
Cu1   O7    S    
O9    C45   S    
C22   H2    S    
O11   C51   S    
C7    H9    S    
C8    H10   S    
Cu1   Cu2   S    
C7    C11   A    
C21   C31   A    
C22   C32   A    
C23   C29   A    
C27   O10   S    
C10   H12   S    
C38   C42   A    
C11   N1    A    
C5    C6    T    
C12   N2    A    
C23   H3    S    
O12   C54   S    
C14   H16   S    
C51   C52   S    
C29   C33   A    
C1    O4    A    
C53   H37   S    
C9    C13   A    
C55   H40   S    
C3    C38   A    
C51   H32   S    
C45   C46   S    
C13   N1    A    
Cu1   O3    S    
C1    O1    A    
C54   H38   S    
C20   O7    A    
C23   C27   A    
C36   H46   S    
Cu2   O8    S    
C46   H19   S    
C56   H44   S    
C38   H48   S    
C7    C15   A    
C8    C16   A    
C54   H39   S    
C20   O6    A    
C19   O8    A    
C47   H23   S    
C11   H13   S    
C28   O9    S    
C25   O12   S    
C24   C30   A    
C46   H20   S    
C24   H4    S    
C45   H17   S    
C30   C34   A    
C48   H25   S    
Cu1   O5    S    
C36   C40   A    
O10   C48   S    
C4    C6    S    
C2    O3    A    
C10   C14   A    
C50   H28   S    
C39   C43   A    
C3    C5    S    
C48   H24   S    
Cu1   N1    S    
Cu2   N2    S    
C35   C39   A    
Cu2   O4    S    
C50   H29   S    
C1    C44   S    
C52   H33   S    
C37   H47   S    
C49   C50   S    
C3    C35   A    
C2    C43   S    
C8    C12   A    
C14   N2    A    
C51   H31   S    
C17   C18   T    
C31   C34   A    
C49   H26   S    
C53   H36   S    
C55   C56   S    
C41   H7    S    
C45   H18   S    
C20   C33   S    
C47   H22   S    
C52   H34   S    
C49   H27   S    
Cu1   O1    S    
C54   C55   S    
C19   O5    A    
C42   C43   A    
C56   H42   S    
C48   C49   S    
C26   O11   S    
C15   C17   S    
C21   C25   A    
C24   C28   A    
C47   H21   S    
C2    O2    A    
C19   C34   S    
Cu2   O2    S    
C25   C27   A    
C26   C28   A    
C32   C33   A    
C9    C15   A    
C29   C31   A    
C40   H6    S    
C42   H8    S    
C50   H30   S    
C30   C32   A    
C46   C47   S    
C41   C44   A    
C9    H11   S    
C37   C41   A    
C53   H35   S    
C55   H41   S    
Cu2   O6    S    
C35   H45   S    
C12   H14   S    
C40   C44   A    
C52   C53   S    
C13   H15   S    
C4    C37   A    
C16   C18   S    
C22   C26   A    
C10   C16   A    
C21   H1    S    
C56   H43   S    
