data_mof_unit_61296.cif
_audit_creation_date              2013-03-05T16:38:24-0500
_audit_creation_method            fapswitch 2.2
_symmetry_space_group_name_H-M    P1
_symmetry_Int_Tables_number       1
_space_group_crystal_system       triclinic
_cell_length_a                    25.686072
_cell_length_b                    25.696244
_cell_length_c                    43.025256
_cell_angle_alpha                 90.000961
_cell_angle_beta                  89.98901
_cell_angle_gamma                 89.987394
_cell_volume                      28398.1983058

loop_
_atom_site_label
_atom_site_type_symbol
_atom_site_description
_atom_site_fract_x
_atom_site_fract_y
_atom_site_fract_z
_atom_type_partial_charge
Zn1   Zn    Zn3+2 0.500000 0.061050 0.224040 1.099684
Zn2   Zn    Zn3+2 0.500000 0.938950 0.775960 1.099151
Zn3   Zn    Zn3+2 0.938950 0.500000 0.224040 1.101383
Zn4   Zn    Zn3+2 0.061050 0.500000 0.775960 1.099080
Zn5   Zn    Zn3+2 0.500000 0.938950 0.224040 1.097577
Zn6   Zn    Zn3+2 0.500000 0.061050 0.775960 1.102781
Zn7   Zn    Zn3+2 0.061050 0.500000 0.224040 1.103340
Zn8   Zn    Zn3+2 0.938950 0.500000 0.775960 1.103249
Zn9   Zn    Zn3+2 0.000000 0.561050 0.724040 1.099636
Zn10  Zn    Zn3+2 1.000000 0.438950 0.275960 1.099688
Zn11  Zn    Zn3+2 0.438950 1.000000 0.724040 1.100813
Zn12  Zn    Zn3+2 0.561050 1.000000 0.275960 1.101380
Zn13  Zn    Zn3+2 0.000000 0.438950 0.724040 1.100937
Zn14  Zn    Zn3+2 1.000000 0.561050 0.275960 1.097580
Zn15  Zn    Zn3+2 0.561050 1.000000 0.724040 1.102762
Zn16  Zn    Zn3+2 0.438950 1.000000 0.275960 1.103336
C1    C     C_1   0.172485 0.329330 0.250190 0.180622
C2    C     C_1   0.827502 0.670659 0.749701 0.180095
C3    C     C_1   0.670750 0.172413 0.250571 0.178805
C4    C     C_1   0.327685 0.829151 0.750669 0.178075
C5    C     C_1   0.827523 0.670677 0.250200 0.179050
C6    C     C_1   0.171559 0.328455 0.750004 0.180810
C7    C     C_1   0.327585 0.829249 0.249419 0.178402
C8    C     C_1   0.672401 0.170764 0.750594 0.178514
C9    C     C_1   0.172313 0.670852 0.749332 0.178147
C10   C     C_1   0.829250 0.327587 0.249429 0.178804
C11   C     C_1   0.672498 0.829341 0.750299 0.180093
C12   C     C_1   0.327515 0.170670 0.249810 0.180621
C13   C     C_1   0.827598 0.329237 0.749405 0.178478
C14   C     C_1   0.172414 0.670751 0.250581 0.178401
C15   C     C_1   0.328438 0.171547 0.749996 0.182046
C16   C     C_1   0.672477 0.829323 0.249800 0.179051
C17   C     C_1   0.361229 0.138077 0.249864 -0.001347
C18   C     C_1   0.638790 0.861940 0.750174 -0.001498
C19   C     C_1   0.861926 0.361215 0.249726 -0.018719
C20   C     C_1   0.138771 0.638089 0.749708 -0.019291
C21   C     C_1   0.638764 0.861917 0.249858 -0.003547
C22   C     C_1   0.361589 0.138397 0.749996 0.000942
C23   C     C_1   0.138801 0.638060 0.250266 -0.018978
C24   C     C_1   0.861201 0.361937 0.749730 -0.018134
C25   C     C_1   0.361228 0.861912 0.750292 -0.018857
C26   C     C_1   0.638074 0.138785 0.250274 -0.018719
C27   C     C_1   0.861210 0.638060 0.749825 -0.001519
C28   C     C_1   0.138771 0.361923 0.250135 -0.001345
C29   C     C_1   0.638798 0.138063 0.750270 -0.017634
C30   C     C_1   0.361199 0.861940 0.249734 -0.018978
C31   C     C_1   0.138408 0.361605 0.750004 -0.000583
C32   C     C_1   0.861236 0.638083 0.250142 -0.003552
O1    O     O_3   0.500000 1.000000 0.250000 -0.550583
O2    O     O_3   0.500000 1.000000 0.750000 -0.551603
O3    O     O_3   1.000000 0.500000 0.250000 -0.550582
O4    O     O_3   1.000000 0.500000 0.750000 -0.550847
O5    O     O_R   0.457240 0.000000 0.319330 -0.603554
O6    O     O_R   0.542760 1.000000 0.680670 -0.602675
O7    O     O_R   1.000000 0.457240 0.319330 -0.603218
O8    O     O_R   0.000000 0.542760 0.680670 -0.601691
O9    O     O_R   0.542760 0.000000 0.319330 -0.600829
O10   O     O_R   0.457240 1.000000 0.680670 -0.603225
O11   O     O_R   1.000000 0.542760 0.319330 -0.600956
O12   O     O_R   1.000000 0.457240 0.680670 -0.601060
O13   O     O_R   0.957240 0.500000 0.819330 -0.602456
O14   O     O_R   0.042760 0.500000 0.180670 -0.603564
O15   O     O_R   0.500000 0.957240 0.819330 -0.601915
O16   O     O_R   0.500000 0.042760 0.180670 -0.603208
O17   O     O_R   0.042760 0.500000 0.819330 -0.603789
O18   O     O_R   0.957240 0.500000 0.180670 -0.600825
O19   O     O_R   0.500000 0.042760 0.819330 -0.600495
O20   O     O_R   0.500000 0.957240 0.180670 -0.600960
O21   O     O_R   0.602780 0.060140 0.268190 -0.613850
O22   O     O_R   0.397220 0.939860 0.731810 -0.613259
O23   O     O_R   0.939860 0.602780 0.268190 -0.608762
O24   O     O_R   0.060140 0.397220 0.731810 -0.606044
O25   O     O_R   0.397220 0.939860 0.268190 -0.612405
O26   O     O_R   0.602780 0.060140 0.731810 -0.612391
O27   O     O_R   0.060140 0.397220 0.268190 -0.607066
O28   O     O_R   0.939860 0.602780 0.731810 -0.607298
O29   O     O_R   0.602780 0.939860 0.731810 -0.599043
O30   O     O_R   0.397220 0.060140 0.268190 -0.599808
O31   O     O_R   0.939860 0.397220 0.731810 -0.614657
O32   O     O_R   0.060140 0.602780 0.268190 -0.615418
O33   O     O_R   0.397220 0.060140 0.731810 -0.600016
O34   O     O_R   0.602780 0.939860 0.268190 -0.601693
O35   O     O_R   0.060140 0.602780 0.731810 -0.613965
O36   O     O_R   0.939860 0.397220 0.268190 -0.613973
O37   O     O_R   0.102780 0.560140 0.768190 -0.614247
O38   O     O_R   0.897220 0.439860 0.231810 -0.613849
O39   O     O_R   0.439860 0.102780 0.768190 -0.603040
O40   O     O_R   0.560140 0.897220 0.231810 -0.608757
O41   O     O_R   0.897220 0.439860 0.768190 -0.612116
O42   O     O_R   0.102780 0.560140 0.231810 -0.612407
O43   O     O_R   0.560140 0.897220 0.768190 -0.607264
O44   O     O_R   0.439860 0.102780 0.231810 -0.607066
O45   O     O_R   0.102780 0.439860 0.231810 -0.599808
O46   O     O_R   0.897220 0.560140 0.768190 -0.599072
O47   O     O_R   0.439860 0.897220 0.231810 -0.615420
O48   O     O_R   0.560140 0.102780 0.768190 -0.613622
O49   O     O_R   0.897220 0.560140 0.231810 -0.601698
O50   O     O_R   0.102780 0.439860 0.768190 -0.602845
O51   O     O_R   0.560140 0.102780 0.231810 -0.613970
O52   O     O_R   0.439860 0.897220 0.768190 -0.614217
C33   C     C_R   0.500026 0.999990 0.065787 -0.238704
C34   C     C_R   0.500046 0.999995 0.934216 -0.238693
C35   C     C_R   0.000017 0.499972 0.065783 -0.238744
C36   C     C_R   0.999991 0.499949 0.934218 -0.239129
C37   C     C_R   0.999989 0.499996 0.565785 -0.238566
C38   C     C_R   0.999999 0.500002 0.434214 -0.238707
C39   C     C_R   0.500016 0.000016 0.565781 -0.239257
C40   C     C_R   0.499990 0.000002 0.434217 -0.238740
C41   C     C_R   0.466764 0.034090 0.082185 0.205966
C42   C     C_R   0.533248 0.965850 0.917809 0.205932
C43   C     C_R   0.965802 0.533117 0.082180 0.205438
C44   C     C_R   0.034208 0.466819 0.917812 0.205155
C45   C     C_R   0.533280 0.965894 0.082186 0.205959
C46   C     C_R   0.466841 0.034150 0.917827 0.205618
C47   C     C_R   0.034229 0.466838 0.082181 0.205418
C48   C     C_R   0.965765 0.533081 0.917830 0.204909
C49   C     C_R   0.966762 0.534123 0.582188 0.205938
C50   C     C_R   0.033265 0.465912 0.417811 0.205965
C51   C     C_R   0.465772 0.033122 0.582183 0.204869
C52   C     C_R   0.534211 0.966869 0.417816 0.205436
C53   C     C_R   0.033216 0.465868 0.582178 0.205902
C54   C     C_R   0.966735 0.534093 0.417818 0.205960
C55   C     C_R   0.534263 0.966910 0.582173 0.204907
C56   C     C_R   0.465768 0.033132 0.417823 0.205420
C57   C     C_R   0.500009 0.999997 0.131362 -0.316671
C58   C     C_R   0.500024 0.000001 0.868640 -0.316015
C59   C     C_R   0.000013 0.499993 0.131357 -0.315839
C60   C     C_R   0.999987 0.499972 0.868644 -0.316763
C61   C     C_R   0.999994 0.499998 0.631360 -0.316164
C62   C     C_R   0.000001 0.500002 0.368638 -0.316664
C63   C     C_R   0.500014 0.000009 0.631355 -0.316622
C64   C     C_R   0.499988 0.999997 0.368643 -0.315846
N1    N     N_R   0.545317 0.004665 0.015467 -0.073646
N2    N     N_R   0.454761 0.995304 0.984534 -0.073925
N3    N     N_R   0.995435 0.454687 0.015473 -0.073221
N4    N     N_R   0.004590 0.545228 0.984528 -0.074515
N5    N     N_R   0.454756 0.995303 0.015472 -0.073514
N6    N     N_R   0.545322 0.004664 0.984529 -0.073275
N7    N     N_R   0.004597 0.545234 0.015466 -0.074404
N8    N     N_R   0.995429 0.454681 0.984535 -0.073519
N9    N     N_R   0.045271 0.504699 0.515465 -0.073829
N10   N     N_R   0.954717 0.495300 0.484535 -0.073680
N11   N     N_R   0.495447 0.954736 0.515470 -0.074437
N12   N     N_R   0.504559 0.045284 0.484528 -0.073274
N13   N     N_R   0.954714 0.495300 0.515473 -0.073350
N14   N     N_R   0.045273 0.504701 0.484527 -0.073458
N15   N     N_R   0.504567 0.045287 0.515466 -0.073612
N16   N     N_R   0.495438 0.954733 0.484532 -0.074369
C65   C     C_R   0.999996 0.500001 0.468514 0.429035
C66   C     C_R   0.999991 0.499999 0.531485 0.429043
C67   C     C_R   0.499994 0.000007 0.468514 0.429336
C68   C     C_R   0.500011 0.000013 0.531484 0.429374
C69   C     C_R   0.500044 0.999984 0.968515 0.429146
C70   C     C_R   0.500034 0.999985 0.031486 0.429026
C71   C     C_R   0.000005 0.499952 0.968515 0.429271
C72   C     C_R   0.000019 0.499964 0.031485 0.429346
C73   C     C_R   0.499996 1.000000 0.334311 0.955228
C74   C     C_R   0.500004 0.000001 0.665688 0.953796
C75   C     C_R   0.000000 0.500000 0.334307 0.956598
C76   C     C_R   0.999998 0.499999 0.665692 0.957008
C77   C     C_R   0.999996 0.499995 0.834312 0.953841
C78   C     C_R   0.000004 0.499999 0.165688 0.955251
C79   C     C_R   0.500006 0.000000 0.834308 0.956943
C80   C     C_R   0.500001 0.999999 0.165693 0.956577
C81   C     C_R   0.599009 0.099012 0.250002 0.824707
C82   C     C_R   0.400987 0.900992 0.750000 0.823439
C83   C     C_R   0.900985 0.598998 0.249992 0.849596
C84   C     C_R   0.099000 0.401004 0.750002 0.851972
C85   C     C_R   0.400981 0.900995 0.250003 0.824603
C86   C     C_R   0.599019 0.099005 0.749997 0.824356
C87   C     C_R   0.099019 0.401004 0.249990 0.852744
C88   C     C_R   0.900982 0.598998 0.750009 0.850119
C89   C     C_R   0.599018 0.901002 0.749991 0.850177
C90   C     C_R   0.400981 0.098996 0.250010 0.852724
C91   C     C_R   0.900981 0.400995 0.750003 0.824731
C92   C     C_R   0.099019 0.599005 0.249997 0.824609
C93   C     C_R   0.400999 0.098997 0.749998 0.847476
C94   C     C_R   0.599015 0.901002 0.250008 0.849605
C95   C     C_R   0.099013 0.599008 0.750000 0.823798
C96   C     C_R   0.900991 0.400988 0.249998 0.824712
C97   C     C_R   0.228600 0.267285 0.278455 0.193604
C98   C     C_R   0.776388 0.737684 0.722118 0.193044
C99   C     C_R   0.749679 0.211590 0.273510 0.197310
C100  C     C_R   0.243271 0.795474 0.731961 0.196654
C101  C     C_R   0.771573 0.732913 0.278446 0.193133
C102  C     C_R   0.221134 0.259977 0.722673 0.194399
C103  C     C_R   0.247668 0.791117 0.271773 0.196699
C104  C     C_R   0.753038 0.208185 0.728737 0.196453
C105  C     C_R   0.205714 0.755450 0.730783 0.196714
C106  C     C_R   0.789955 0.248898 0.272568 0.196916
C107  C     C_R   0.739308 0.778207 0.722528 0.193230
C108  C     C_R   0.265668 0.226748 0.278261 0.192682
C109  C     C_R   0.790407 0.248397 0.727720 0.197210
C110  C     C_R   0.210328 0.750876 0.272760 0.197459
C111  C     C_R   0.260044 0.221220 0.722650 0.194692
C112  C     C_R   0.734499 0.773445 0.278241 0.192250
C113  C     C_R   0.723612 0.762316 0.777882 0.193044
C114  C     C_R   0.271400 0.232715 0.221544 0.193605
C115  C     C_R   0.256726 0.704530 0.768041 0.197076
C116  C     C_R   0.750321 0.288409 0.226490 0.197309
C117  C     C_R   0.278777 0.239946 0.777349 0.194513
C118  C     C_R   0.728427 0.767087 0.221554 0.193132
C119  C     C_R   0.746961 0.291816 0.771262 0.196411
C120  C     C_R   0.252332 0.708883 0.228227 0.196704
C121  C     C_R   0.710045 0.251101 0.227431 0.196911
C122  C     C_R   0.294283 0.744553 0.769219 0.196734
C123  C     C_R   0.234332 0.273252 0.221739 0.192681
C124  C     C_R   0.760692 0.721793 0.777472 0.193231
C125  C     C_R   0.289672 0.749124 0.227240 0.197460
C126  C     C_R   0.709591 0.251605 0.772279 0.196899
C127  C     C_R   0.765501 0.726555 0.221759 0.192251
C128  C     C_R   0.240030 0.278866 0.777329 0.194513
C129  C     C_R   0.213081 0.290397 0.250194 -0.182098
C130  C     C_R   0.786931 0.709618 0.749589 -0.182268
C131  C     C_R   0.709862 0.212832 0.250942 -0.186047
C132  C     C_R   0.287416 0.789887 0.751180 -0.186091
C133  C     C_R   0.786924 0.709608 0.250205 -0.182747
C134  C     C_R   0.211310 0.288699 0.750002 -0.185816
C135  C     C_R   0.287199 0.790103 0.249012 -0.186091
C136  C     C_R   0.712770 0.209927 0.751018 -0.185798
C137  C     C_R   0.212581 0.710116 0.748821 -0.186008
C138  C     C_R   0.790138 0.287168 0.249057 -0.186047
C139  C     C_R   0.713069 0.790382 0.750411 -0.182271
C140  C     C_R   0.286919 0.209603 0.249806 -0.182099
C141  C     C_R   0.787228 0.290074 0.748981 -0.185727
C142  C     C_R   0.212801 0.709897 0.250988 -0.186091
C143  C     C_R   0.288684 0.211304 0.749999 -0.185962
C144  C     C_R   0.713075 0.790392 0.249795 -0.182748
C145  C     C_R   0.466614 0.033967 0.114931 0.186875
C146  C     C_R   0.533377 0.965977 0.885063 0.186558
C147  C     C_R   0.965927 0.533269 0.114925 0.187536
C148  C     C_R   0.034080 0.466688 0.885066 0.185592
C149  C     C_R   0.533413 0.966023 0.114931 0.186921
C150  C     C_R   0.466692 0.034030 0.885082 0.188610
C151  C     C_R   0.034101 0.466705 0.114926 0.187459
C152  C     C_R   0.965888 0.533234 0.885085 0.187592
C153  C     C_R   0.966625 0.534000 0.614934 0.186826
C154  C     C_R   0.033407 0.466038 0.385065 0.186876
C155  C     C_R   0.465897 0.033262 0.614927 0.187323
C156  C     C_R   0.534083 0.966723 0.385071 0.187541
C157  C     C_R   0.033358 0.465992 0.614924 0.186914
C158  C     C_R   0.966595 0.533968 0.385072 0.186916
C159  C     C_R   0.534135 0.966764 0.614918 0.187317
C160  C     C_R   0.465894 0.033273 0.385078 0.187456
N17   N     N_R   0.432283 0.068431 0.131432 0.258517
O53   O     O_R   0.399147 0.050000 0.151490 -0.334043
O54   O     O_R   0.433029 0.118175 0.125798 -0.228122
N18   N     N_R   0.567646 0.931463 0.868554 0.258659
O55   O     O_R   0.600812 0.949848 0.848498 -0.335800
O56   O     O_R   0.566818 0.881717 0.874180 -0.225838
N19   N     N_R   0.931347 0.567486 0.131423 0.258531
O57   O     O_R   0.949692 0.600702 0.151451 -0.345296
O58   O     O_R   0.881580 0.566560 0.125813 -0.224105
N20   N     N_R   0.068661 0.432486 0.868559 0.258858
O59   O     O_R   0.050318 0.399285 0.848521 -0.340329
O60   O     O_R   0.118428 0.433407 0.874171 -0.225807
N21   N     N_R   0.567735 0.931562 0.131432 0.258575
O61   O     O_R   0.566988 0.881816 0.125802 -0.227728
O62   O     O_R   0.600864 0.949995 0.151486 -0.337621
N22   N     N_R   0.432421 0.068556 0.868593 0.257901
O63   O     O_R   0.399226 0.050181 0.848559 -0.344251
O64   O     O_R   0.433284 0.118303 0.874212 -0.224505
N23   N     N_R   0.068675 0.432497 0.131424 0.258493
O65   O     O_R   0.050324 0.399291 0.151460 -0.341098
O66   O     O_R   0.118443 0.433416 0.125806 -0.224895
N24   N     N_R   0.931297 0.567439 0.868596 0.258197
O67   O     O_R   0.949633 0.600673 0.848572 -0.347565
O68   O     O_R   0.881529 0.566487 0.874213 -0.224678
N25   N     N_R   0.932331 0.568495 0.631438 0.258599
O69   O     O_R   0.899176 0.550094 0.651495 -0.335889
O70   O     O_R   0.933129 0.618240 0.625810 -0.225799
N26   N     N_R   0.067742 0.431582 0.368561 0.258512
O71   O     O_R   0.100867 0.450021 0.348498 -0.334064
O72   O     O_R   0.067009 0.381838 0.374194 -0.228135
N27   N     N_R   0.431288 0.067441 0.631429 0.258172
O73   O     O_R   0.449607 0.100677 0.651455 -0.346618
O74   O     O_R   0.381521 0.066465 0.625824 -0.225738
N28   N     N_R   0.568667 0.932516 0.368570 0.258535
O75   O     O_R   0.550325 0.899298 0.348542 -0.345286
O76   O     O_R   0.618434 0.933452 0.374176 -0.224116
N29   N     N_R   0.067649 0.431493 0.631419 0.258572
O77   O     O_R   0.100812 0.449891 0.651464 -0.338026
O78   O     O_R   0.066840 0.381747 0.625792 -0.224668
N30   N     N_R   0.932264 0.568425 0.368576 0.258571
O79   O     O_R   0.899137 0.549989 0.348522 -0.337631
O80   O     O_R   0.933001 0.618170 0.374209 -0.227714
N31   N     N_R   0.568746 0.932585 0.631410 0.258258
O81   O     O_R   0.550428 0.899340 0.651434 -0.347458
O82   O     O_R   0.618514 0.933568 0.625797 -0.224710
N32   N     N_R   0.431311 0.067478 0.368583 0.258500
O83   O     O_R   0.449654 0.100696 0.348552 -0.341073
O84   O     O_R   0.381544 0.066545 0.374201 -0.224881
N33   N     N_R   0.432997 0.069044 0.065640 0.255347
O85   O     O_R   0.383330 0.069852 0.071576 -0.225819
O86   O     O_R   0.451956 0.100931 0.045050 -0.262409
N34   N     N_R   0.566977 0.930847 0.934346 0.255400
O87   O     O_R   0.616637 0.929959 0.928393 -0.226613
O88   O     O_R   0.547989 0.898998 0.954948 -0.262528
N35   N     N_R   0.930728 0.566760 0.065634 0.255388
O89   O     O_R   0.929757 0.616404 0.071568 -0.228505
O90   O     O_R   0.898894 0.547709 0.045046 -0.261710
N36   N     N_R   0.069288 0.433169 0.934349 0.255452
O91   O     O_R   0.070261 0.383529 0.928406 -0.227900
O92   O     O_R   0.101124 0.452212 0.954938 -0.262935
N37   N     N_R   0.567056 0.930936 0.065640 0.255384
O93   O     O_R   0.616719 0.930127 0.071574 -0.226750
O94   O     O_R   0.548106 0.899044 0.045053 -0.262299
N38   N     N_R   0.433130 0.069158 0.934383 0.255461
O95   O     O_R   0.383468 0.070063 0.928449 -0.228855
O96   O     O_R   0.452137 0.100994 0.954982 -0.261567
N39   N     N_R   0.069303 0.433181 0.065634 0.255375
O97   O     O_R   0.070273 0.383542 0.071579 -0.226796
O98   O     O_R   0.101137 0.452217 0.045034 -0.262759
N40   N     N_R   0.930681 0.566714 0.934385 0.255489
O99   O     O_R   0.929689 0.616356 0.928450 -0.229609
O100  O     O_R   0.898863 0.547655 0.954986 -0.261826
N41   N     N_R   0.933016 0.569103 0.565647 0.255372
O101  O     O_R   0.883354 0.569960 0.571595 -0.226682
O102  O     O_R   0.951989 0.600963 0.545046 -0.262456
N42   N     N_R   0.067046 0.430966 0.434353 0.255353
O103  O     O_R   0.116711 0.430169 0.428411 -0.225779
O104  O     O_R   0.048100 0.399073 0.454944 -0.262464
N43   N     N_R   0.430667 0.066740 0.565641 0.255524
O105  O     O_R   0.429651 0.116380 0.571582 -0.229055
O106  O     O_R   0.398852 0.047668 0.545049 -0.262659
N44   N     N_R   0.569295 0.933231 0.434358 0.255386
O107  O     O_R   0.570275 0.883588 0.428422 -0.228487
O108  O     O_R   0.601131 0.952287 0.454944 -0.261735
N45   N     N_R   0.066958 0.430884 0.565627 0.255390
O109  O     O_R   0.116620 0.430022 0.571563 -0.227695
O110  O     O_R   0.047980 0.399028 0.545030 -0.261844
N46   N     N_R   0.932954 0.569041 0.434368 0.255385
O111  O     O_R   0.883289 0.569841 0.428436 -0.226765
O112  O     O_R   0.951899 0.600932 0.454957 -0.262272
N47   N     N_R   0.569369 0.933295 0.565622 0.255518
O113  O     O_R   0.570394 0.883655 0.571562 -0.229532
O114  O     O_R   0.601176 0.952369 0.545019 -0.261899
N48   N     N_R   0.430686 0.066775 0.434373 0.255368
O115  O     O_R   0.429704 0.116416 0.428433 -0.226831
O116  O     O_R   0.398858 0.047725 0.454971 -0.262703
N49   N     N_R   0.283178 0.204475 0.307101 0.255252
O117  O     O_R   0.284609 0.154221 0.310734 -0.276831
O118  O     O_R   0.297949 0.234436 0.329831 -0.229625
N50   N     N_R   0.726898 0.805561 0.694307 0.255759
O119  O     O_R   0.725870 0.856187 0.693796 -0.279337
O120  O     O_R   0.716400 0.779875 0.669003 -0.226579
N51   N     N_R   0.829496 0.249065 0.296240 0.252913
O121  O     O_R   0.878500 0.251577 0.288713 -0.303770
O122  O     O_R   0.816594 0.246849 0.325459 -0.247516
N52   N     N_R   0.159626 0.761846 0.712178 0.252931
O123  O     O_R   0.132231 0.804324 0.714163 -0.247562
O124  O     O_R   0.144769 0.725232 0.693263 -0.302464
N53   N     N_R   0.717160 0.795915 0.307068 0.255239
O125  O     O_R   0.715747 0.846193 0.310582 -0.278734
O126  O     O_R   0.702530 0.766108 0.329906 -0.230593
N54   N     N_R   0.271438 0.193104 0.694542 0.256321
O127  O     O_R   0.273442 0.142499 0.694625 -0.282135
O128  O     O_R   0.279406 0.218071 0.668656 -0.224370
N55   N     N_R   0.168744 0.752809 0.295131 0.253238
O129  O     O_R   0.141544 0.795141 0.298606 -0.246940
O130  O     O_R   0.157794 0.712277 0.312041 -0.304637
N56   N     N_R   0.832714 0.245749 0.705864 0.253433
O131  O     O_R   0.860016 0.203319 0.703196 -0.244602
O132  O     O_R   0.844221 0.285728 0.688620 -0.303604
N57   N     N_R   0.237491 0.840852 0.712686 0.253697
O133  O     O_R   0.242609 0.887210 0.724468 -0.302781
O134  O     O_R   0.227219 0.835949 0.683214 -0.244474
N58   N     N_R   0.750436 0.171252 0.296688 0.253841
O135  O     O_R   0.792590 0.144324 0.301478 -0.244880
O136  O     O_R   0.709012 0.161163 0.313025 -0.304684
N59   N     N_R   0.804763 0.726498 0.694067 0.255527
O137  O     O_R   0.826860 0.763920 0.678531 -0.228054
O138  O     O_R   0.808817 0.678909 0.684004 -0.277391
N60   N     N_R   0.205267 0.283490 0.307275 0.256249
O139  O     O_R   0.186318 0.249122 0.326392 -0.225279
O140  O     O_R   0.202678 0.332605 0.314481 -0.281480
N61   N     N_R   0.754904 0.166686 0.706324 0.253216
O141  O     O_R   0.751716 0.118404 0.715243 -0.299967
O142  O     O_R   0.759657 0.177073 0.676858 -0.245923
N62   N     N_R   0.246545 0.831881 0.294680 0.253018
O143  O     O_R   0.249456 0.880444 0.286286 -0.301322
O144  O     O_R   0.242750 0.820540 0.324070 -0.247215
N63   N     N_R   0.190585 0.268948 0.695166 0.255444
O145  O     O_R   0.168671 0.230123 0.680811 -0.228365
O146  O     O_R   0.184890 0.315809 0.684209 -0.278964
N64   N     N_R   0.795081 0.716909 0.307250 0.256147
O147  O     O_R   0.814142 0.751410 0.326237 -0.226492
O148  O     O_R   0.797718 0.667844 0.314570 -0.282848
N65   N     N_R   0.773102 0.694439 0.805693 0.255758
O149  O     O_R   0.774130 0.643813 0.806204 -0.279334
O150  O     O_R   0.783600 0.720124 0.830996 -0.226587
N66   N     N_R   0.216822 0.295525 0.192899 0.255254
O151  O     O_R   0.215391 0.345779 0.189266 -0.276833
O152  O     O_R   0.202051 0.265564 0.170169 -0.229621
N67   N     N_R   0.340371 0.738158 0.787824 0.252942
O153  O     O_R   0.355228 0.774772 0.806739 -0.302648
O154  O     O_R   0.367766 0.695680 0.785839 -0.247709
N68   N     N_R   0.670503 0.250935 0.203759 0.252915
O155  O     O_R   0.621500 0.248423 0.211287 -0.303767
O156  O     O_R   0.683406 0.253151 0.174541 -0.247488
N69   N     N_R   0.231069 0.309416 0.804838 0.255965
O157  O     O_R   0.269921 0.331299 0.819191 -0.227275
O158  O     O_R   0.184191 0.315143 0.815797 -0.279875
N70   N     N_R   0.782840 0.704085 0.192932 0.255238
O159  O     O_R   0.784253 0.653807 0.189418 -0.278739
O160  O     O_R   0.797470 0.733892 0.170094 -0.230596
N71   N     N_R   0.667284 0.254253 0.794135 0.253703
O161  O     O_R   0.639981 0.296683 0.796802 -0.243447
O162  O     O_R   0.655777 0.214274 0.811379 -0.302746
N72   N     N_R   0.331256 0.747191 0.204869 0.253235
O163  O     O_R   0.358456 0.704859 0.201394 -0.246944
O164  O     O_R   0.342206 0.787722 0.187959 -0.304656
N73   N     N_R   0.749564 0.328748 0.203312 0.253842
O165  O     O_R   0.707410 0.355676 0.198522 -0.244874
O166  O     O_R   0.790988 0.338837 0.186974 -0.304666
N74   N     N_R   0.262506 0.659152 0.787316 0.253543
O167  O     O_R   0.257389 0.612794 0.775534 -0.304503
O168  O     O_R   0.272777 0.664055 0.816788 -0.245167
N75   N     N_R   0.294733 0.216510 0.192725 0.256250
O169  O     O_R   0.313681 0.250878 0.173608 -0.225277
O170  O     O_R   0.297322 0.167395 0.185519 -0.281491
N76   N     N_R   0.695237 0.773502 0.805933 0.255527
O171  O     O_R   0.673140 0.736080 0.821469 -0.228054
O172  O     O_R   0.691183 0.821091 0.815996 -0.277384
N77   N     N_R   0.253455 0.668119 0.205320 0.253015
O173  O     O_R   0.250544 0.619556 0.213714 -0.301325
O174  O     O_R   0.257250 0.679460 0.175930 -0.247243
N78   N     N_R   0.745094 0.333315 0.793675 0.253227
O175  O     O_R   0.748283 0.381598 0.784756 -0.299863
O176  O     O_R   0.740340 0.322929 0.823141 -0.245760
N79   N     N_R   0.704919 0.783090 0.192750 0.256148
O177  O     O_R   0.702282 0.832156 0.185430 -0.282843
O178  O     O_R   0.685858 0.748590 0.173763 -0.226491
N80   N     N_R   0.306888 0.228544 0.805456 0.256627
O179  O     O_R   0.357512 0.226509 0.805372 -0.284445
O180  O     O_R   0.281898 0.220599 0.831342 -0.223865

loop_
_geom_bond_atom_site_label_1
_geom_bond_atom_site_label_2
_geom_bond_distance
_ccdc_geom_bond_type
C60   C152  1.413321 A    
Zn12  O21   1.910360 S    
Zn13  O31   1.910088 S    
C33   C45   1.412426 A    
Zn14  O23   1.909810 S    
C40   C52   1.412397 A    
C126  N71   1.438538 S    
N16   C67   1.357255 A    
O16   C80   1.273799 A    
C29   C86   1.432457 S    
Zn1   O51   1.910183 S    
C112  C144  1.410877 A    
Zn12  O1    1.925423 S    
C53   N45   1.437276 S    
C46   C150  1.408889 A    
Zn13  O12   1.924285 S    
C150  N22   1.437070 S    
Zn14  O11   1.924285 S    
C116  C121  1.411155 A    
N30   O79   1.301317 A    
N12   C67   1.357256 A    
C104  N61   1.438534 S    
O42   C92   1.272353 A    
C101  N64   1.438664 S    
O43   C89   1.272613 A    
N23   O66   1.301169 A    
N77   O173  1.301267 A    
O36   C96   1.272419 A    
N20   O60   1.301170 A    
C42   C146  1.408921 A    
O46   C88   1.272120 A    
C36   C48   1.412395 A    
Zn5   O40   1.909808 S    
C48   N40   1.437280 S    
C125  N72   1.438529 S    
N26   O71   1.301319 A    
C44   N36   1.437274 S    
N31   O82   1.301171 A    
C119  C126  1.411150 A    
N44   O107  1.301173 A    
C56   C160  1.408870 A    
C117  C128  1.410766 A    
C5    C32   1.204607 T    
C6    C31   1.204305 T    
C49   C153  1.408912 A    
C60   C148  1.413349 A    
C7    C30   1.204828 T    
N17   O53   1.301319 A    
C38   C50   1.412434 A    
Zn5   O1    1.925744 S    
Zn9   O4    1.925773 S    
C40   C56   1.412406 A    
C117  N80   1.438722 S    
C158  N30   1.437111 S    
N58   O135  1.301287 A    
Zn5   O47   1.910088 S    
N18   O56   1.301168 A    
N80   O179  1.301367 A    
O20   C80   1.273784 A    
C99   C131  1.410753 A    
Zn7   O45   1.910052 S    
C7    C135  1.445243 S    
N43   O105  1.301173 A    
Zn15  O6    1.924319 S    
N19   O57   1.301312 A    
Zn16  O1    1.925077 S    
N66   O152  1.301270 A    
N47   O114  1.301302 A    
N40   O99   1.301173 A    
C50   N42   1.437269 S    
C62   C75   1.477109 S    
C63   C74   1.477178 S    
C47   N39   1.437279 S    
Zn7   O14   1.924319 S    
C21   C94   1.432028 S    
O39   C93   1.272311 A    
C40   C67   1.475663 S    
O34   C94   1.272144 A    
C108  N49   1.438643 S    
N70   O159  1.301280 A    
C34   C69   1.475719 S    
Zn9   O35   1.910183 S    
C8    C136  1.445241 S    
N34   O87   1.301172 A    
C12   C17   1.204600 T    
N25   O70   1.301170 A    
N65   O149  1.301349 A    
N63   O145  1.301511 A    
C107  C139  1.410986 A    
C119  C141  1.410799 A    
C117  C143  1.411010 A    
C97   N60   1.438657 S    
C61   C153  1.413328 A    
C11   C139  1.444914 S    
Zn13  O24   1.909808 S    
C59   C151  1.413329 A    
C64   C73   1.477126 S    
C111  C143  1.411008 A    
N74   O167  1.301291 A    
C109  C141  1.410786 A    
N57   O133  1.301293 A    
C106  N51   1.438513 S    
C41   N33   1.437267 S    
C111  N54   1.438722 S    
C3    C131  1.445255 S    
N52   O123  1.301348 A    
C1    C28   1.204602 T    
C9    C20   1.204838 T    
N47   O113  1.301174 A    
C10   C19   1.204835 T    
O17   C77   1.273506 A    
N55   O129  1.301297 A    
C18   C89   1.432035 S    
C121  N68   1.438515 S    
C113  C124  1.411124 A    
N40   O100  1.301300 A    
C110  N55   1.438532 S    
O50   C84   1.272310 A    
N62   O143  1.301267 A    
O51   C81   1.272419 A    
C155  N27   1.437062 S    
C43   C147  1.408863 A    
C14   C142  1.445243 S    
N75   O169  1.301272 A    
C118  C127  1.411119 A    
C147  N19   1.437082 S    
C55   C159  1.408874 A    
N69   O157  1.301509 A    
Zn11  O22   1.910362 S    
N79   O178  1.301279 A    
N64   O148  1.301287 A    
C53   C157  1.408905 A    
C102  C134  1.410944 A    
N56   O132  1.301271 A    
N10   C65   1.357267 A    
C57   C145  1.413305 A    
C106  C138  1.410797 A    
C97   C108  1.411117 A    
N2    C69   1.357258 A    
O6    C74   1.273531 A    
N56   O131  1.301304 A    
N21   O61   1.301166 A    
O28   C88   1.272613 A    
N60   O139  1.301273 A    
Zn2   O2    1.925772 S    
C64   C160  1.413324 A    
C124  N65   1.438770 S    
N37   O94   1.301303 A    
C10   C138  1.445255 S    
C107  N50   1.438768 S    
Zn11  O10   1.924144 S    
Zn8   O4    1.925077 S    
N13   C66   1.357262 A    
C3    C26   1.204835 T    
C145  N17   1.437111 S    
C46   N38   1.437283 S    
C55   N47   1.437283 S    
C22   C93   1.431525 S    
C5    C133  1.444905 S    
O24   C84   1.272301 A    
C2    C130  1.444912 S    
O11   C75   1.273789 A    
N12   N15   1.331098 A    
C59   C147  1.413330 A    
N38   O96   1.301302 A    
N9    C66   1.357263 A    
N49   O118  1.301273 A    
N11   N16   1.331094 A    
N36   O92   1.301302 A    
Zn12  O34   1.909971 S    
N1    C70   1.357273 A    
C125  C135  1.410774 A    
N46   O111  1.301174 A    
C54   N46   1.437270 S    
C36   C44   1.412395 A    
N4    C71   1.357251 A    
C118  C144  1.410753 A    
O44   C90   1.272665 A    
Zn7   O42   1.910422 S    
C42   N34   1.437276 S    
N3    C72   1.357258 A    
N43   O106  1.301303 A    
N42   O104  1.301302 A    
N33   O85   1.301174 A    
Zn10  O7    1.924270 S    
O47   C85   1.272432 A    
Zn10  O27   1.909698 S    
C35   C72   1.475667 S    
N79   O177  1.301287 A    
C12   C140  1.444895 S    
C25   C82   1.432474 S    
C38   C54   1.412433 A    
N54   O128  1.301502 A    
C118  N79   1.438664 S    
Zn9   O8    1.924270 S    
C16   C21   1.204607 T    
Zn6   O2    1.925740 S    
C17   C90   1.432015 S    
N72   O163  1.301299 A    
N24   O68   1.301170 A    
Zn12  O9    1.924144 S    
Zn6   O19   1.924285 S    
C104  C109  1.411149 A    
C59   C78   1.477130 S    
N48   O116  1.301301 A    
N39   O98   1.301302 A    
N76   O171  1.301448 A    
N68   O156  1.301281 A    
C57   C80   1.477100 S    
C58   C79   1.477169 S    
Zn1   O16   1.924270 S    
C103  N62   1.438533 S    
Zn2   O15   1.924270 S    
C151  N23   1.437080 S    
C114  C123  1.411117 A    
C124  C130  1.410991 A    
N22   O63   1.301312 A    
C113  C139  1.410871 A    
O40   C94   1.272766 A    
N29   O78   1.301168 A    
C51   N43   1.437280 S    
O35   C95   1.272457 A    
C98   N59   1.438768 S    
N30   O80   1.301165 A    
C64   C156  1.413332 A    
O33   C93   1.272326 A    
C128  N69   1.438697 S    
C123  N66   1.438642 S    
C62   C158  1.413309 A    
C51   C155  1.408862 A    
Zn15  O29   1.910052 S    
C32   C83   1.432028 S    
C33   C70   1.475775 S    
N68   O155  1.301257 A    
C13   C24   1.204829 T    
N34   O88   1.301303 A    
C14   C23   1.204826 T    
C156  N28   1.437081 S    
N71   O162  1.301271 A    
C36   C71   1.475659 S    
Zn2   O43   1.909698 S    
C58   C150  1.413315 A    
O21   C81   1.272592 A    
N61   O142  1.301298 A    
O19   C79   1.273813 A    
C100  N57   1.438578 S    
N50   O119  1.301349 A    
N73   O166  1.301261 A    
N28   O75   1.301313 A    
N44   O108  1.301301 A    
Zn8   O41   1.910424 S    
C61   C76   1.477139 S    
C159  N31   1.437061 S    
N73   O165  1.301287 A    
N27   O73   1.301312 A    
C39   C55   1.412389 A    
N2    N5    1.331111 A    
N58   O136  1.301261 A    
N53   O125  1.301280 A    
N23   O65   1.301312 A    
N78   O175  1.301268 A    
C45   C149  1.408905 A    
C37   C66   1.475736 S    
C20   C95   1.432477 S    
C4    C132  1.445256 S    
N75   O170  1.301283 A    
Zn4   O50   1.909971 S    
Zn5   O20   1.924285 S    
C100  C132  1.410825 A    
C34   C46   1.412404 A    
Zn10  O3    1.925772 S    
C33   C41   1.412438 A    
N59   O137  1.301448 A    
C119  N78   1.438533 S    
O18   C78   1.273504 A    
C35   C43   1.412402 A    
N32   O83   1.301314 A    
N41   O102  1.301302 A    
N53   O126  1.301280 A    
C105  N52   1.438572 S    
C41   C145  1.408909 A    
C116  N73   1.438515 S    
C16   C144  1.444905 S    
C120  C125  1.411148 A    
Zn9   O28   1.909700 S    
C99   N58   1.438515 S    
O15   C79   1.273809 A    
C50   C154  1.408913 A    
O7    C75   1.273794 A    
N1    N6    1.331115 A    
N25   O69   1.301318 A    
Zn3   O38   1.910362 S    
C152  N24   1.437063 S    
N77   O174  1.301296 A    
N10   N13   1.331115 A    
C37   C49   1.412420 A    
N4    N7    1.331094 A    
C39   C51   1.412382 A    
C104  C136  1.410798 A    
N3    N8    1.331103 A    
C127  C133  1.410878 A    
C148  N20   1.437093 S    
C108  C140  1.410870 A    
N51   O121  1.301257 A    
Zn3   O3    1.925428 S    
C115  C122  1.411155 A    
N74   O168  1.301346 A    
C35   C47   1.412402 A    
N35   O89   1.301172 A    
N20   O59   1.301315 A    
N14   C65   1.357268 A    
Zn3   O49   1.909969 S    
N80   O180  1.301501 A    
N31   O81   1.301309 A    
C48   C152  1.408866 A    
Zn8   O46   1.910050 S    
N52   O124  1.301291 A    
N9    N14   1.331115 A    
C52   C156  1.408859 A    
N6    C69   1.357258 A    
C160  N32   1.437080 S    
N11   C68   1.357248 A    
Zn1   O44   1.909700 S    
C43   N35   1.437278 S    
N17   O54   1.301169 A    
C103  C110  1.411148 A    
C34   C42   1.412412 A    
Zn3   O18   1.924144 S    
C98   C107  1.411126 A    
O41   C91   1.272367 A    
C101  C112  1.411121 A    
O25   C85   1.272353 A    
C99   C106  1.411156 A    
N18   O55   1.301315 A    
N62   O144  1.301293 A    
O45   C87   1.272053 A    
O29   C89   1.272120 A    
N27   O74   1.301168 A    
N70   O160  1.301280 A    
N66   O151  1.301279 A    
N67   O153  1.301293 A    
C44   C148  1.408879 A    
C15   C22   1.204332 T    
C116  C138  1.410753 A    
C122  N67   1.438570 S    
C110  C142  1.410773 A    
O22   C82   1.272557 A    
N64   O147  1.301278 A    
C28   C87   1.432014 S    
Zn7   O3    1.925077 S    
Zn11  O2    1.925428 S    
C2    C27   1.204611 T    
N42   O103  1.301173 A    
C115  N74   1.438576 S    
O14   C78   1.273520 A    
C61   C157  1.413326 A    
C60   C77   1.477152 S    
N5    C70   1.357262 A    
N60   O140  1.301285 A    
N8    C71   1.357255 A    
Zn15  O26   1.910422 S    
C121  C131  1.410797 A    
N33   O86   1.301302 A    
N37   O93   1.301174 A    
N65   O150  1.301449 A    
C153  N25   1.437105 S    
C52   N44   1.437277 S    
N39   O97   1.301173 A    
C47   C151  1.408878 A    
C31   C84   1.431476 S    
C15   C143  1.444276 S    
N45   O109  1.301174 A    
C114  C140  1.410752 A    
C13   C141  1.445244 S    
C4    C25   1.204833 T    
C54   C158  1.408910 A    
C103  C135  1.410797 A    
N49   O117  1.301276 A    
Zn11  O33   1.909969 S    
C101  C133  1.410753 A    
Zn4   O4    1.925423 S    
O13   C77   1.273527 A    
C8    C29   1.204828 T    
C58   C146  1.413342 A    
N46   O112  1.301305 A    
N57   O134  1.301346 A    
Zn4   O17   1.924144 S    
C105  C137  1.410846 A    
N19   O58   1.301170 A    
Zn13  O4    1.925744 S    
C123  C129  1.410871 A    
C126  C136  1.410783 A    
O52   C82   1.272457 A    
Zn15  O2    1.925077 S    
Zn16  O5    1.924319 S    
Zn14  O3    1.925740 S    
C63   C155  1.413338 A    
N59   O138  1.301368 A    
Zn1   O1    1.925773 S    
C45   N37   1.437268 S    
N71   O161  1.301304 A    
C9    C137  1.445256 S    
C115  C137  1.410828 A    
Zn14  O32   1.910086 S    
N72   O164  1.301271 A    
Zn8   O13   1.924319 S    
C6    C134  1.444218 S    
Zn2   O52   1.910185 S    
C38   C65   1.475779 S    
O48   C86   1.272418 A    
N76   O172  1.301371 A    
C1    C129  1.444893 S    
N69   O158  1.301382 A    
N78   O176  1.301300 A    
C11   C18   1.204609 T    
Zn16  O25   1.910424 S    
O31   C91   1.272418 A    
C102  C111  1.410769 A    
O32   C92   1.272432 A    
N22   O64   1.301169 A    
O10   C74   1.273519 A    
C112  N53   1.438646 S    
C149  N21   1.437110 S    
Zn4   O37   1.910360 S    
N29   O77   1.301315 A    
O49   C83   1.272144 A    
Zn6   O39   1.909810 S    
N21   O62   1.301320 A    
N63   O146  1.301383 A    
N51   O122  1.301280 A    
O37   C95   1.272556 A    
O38   C96   1.272592 A    
N45   O110  1.301301 A    
C37   C53   1.412419 A    
C102  N63   1.438697 S    
N55   O130  1.301268 A    
C154  N26   1.437113 S    
N35   O90   1.301301 A    
N61   O141  1.301267 A    
C56   N48   1.437278 S    
C39   C68   1.475637 S    
N26   O72   1.301169 A    
N50   O120  1.301449 A    
Zn6   O48   1.910086 S    
O27   C87   1.272665 A    
N28   O76   1.301170 A    
C146  N18   1.437102 S    
N38   O95   1.301172 A    
Zn16  O30   1.910050 S    
C98   C130  1.410867 A    
C122  C132  1.410847 A    
C19   C96   1.432472 S    
O9    C73   1.273500 A    
N36   O91   1.301172 A    
C62   C154  1.413306 A    
C113  N76   1.438765 S    
O12   C76   1.273802 A    
C157  N29   1.437099 S    
C23   C92   1.432458 S    
C24   C91   1.432457 S    
C97   C129  1.410753 A    
C27   C88   1.432035 S    
C26   C81   1.432472 S    
O5    C73   1.273524 A    
C30   C85   1.432456 S    
C114  N75   1.438657 S    
N15   C68   1.357251 A    
O8    C76   1.273807 A    
C63   C159  1.413336 A    
N67   O154  1.301348 A    
C120  N77   1.438528 S    
C49   N41   1.437274 S    
N7    C72   1.357253 A    
Zn10  O36   1.910185 S    
N54   O127  1.301366 A    
N32   O84   1.301169 A    
N41   O101  1.301173 A    
O26   C86   1.272367 A    
C57   C149  1.413313 A    
N24   O67   1.301312 A    
C109  N56   1.438538 S    
N48   O115  1.301174 A    
O30   C90   1.272053 A    
C100  C105  1.411159 A    
O23   C83   1.272766 A    
C120  C142  1.410797 A    
C127  N70   1.438646 S    
C128  C134  1.410945 A    
