data_mof_unit_61128.cif
_audit_creation_date              2012-12-10T19:57:53-0500
_audit_creation_method            fapswitch 2.2
_symmetry_space_group_name_H-M    P1
_symmetry_Int_Tables_number       1
_space_group_crystal_system       triclinic
_cell_length_a                    39.075436
_cell_length_b                    32.089588
_cell_length_c                    21.772226
_cell_angle_alpha                 90.008085
_cell_angle_beta                  124.814662
_cell_angle_gamma                 89.991209
_cell_volume                      22413.8064694

loop_
_atom_site_label
_atom_site_type_symbol
_atom_type_description
_atom_site_fract_x
_atom_site_fract_y
_atom_site_fract_z
_atom_type_partial_charge
C1    C     C_R   0.419290 0.500000 0.419259 0.913200
C2    C     C_R   0.706687 0.499837 0.705666 0.169845
C3    C     C_2   0.003175 0.010105 0.187224 -0.294003
C4    C     C_2   0.523276 0.529756 0.740718 -0.168068
C5    C     C_2   0.476710 0.529738 0.259281 -0.167964
C6    C     C_2   0.023278 0.029753 0.740720 -0.168000
C7    C     C_2   0.976709 0.029737 0.259279 -0.168163
C8    C     C_2   0.508401 0.497103 0.693695 -0.059824
C9    C     C_2   0.491603 0.497090 0.306309 -0.059439
C10   C     C_2   0.008399 0.997102 0.693693 -0.059958
C11   C     C_2   0.991603 0.997090 0.306309 -0.059504
C12   C     C_R   0.227588 0.480731 0.180884 -0.181542
C13   C     C_R   0.793312 0.999898 0.294280 0.170333
C14   C     C_R   0.772456 0.484225 0.821844 -0.181744
C15   C     C_R   0.727505 0.989039 0.175447 -0.181459
C16   C     C_R   0.272480 0.986728 0.823394 -0.181533
C17   C     C_R   0.206634 0.499715 0.208328 0.168358
C18   C     C_R   0.793366 0.499732 0.791733 0.167801
C19   C     C_R   0.706633 0.999814 0.208193 0.167948
C20   C     C_R   0.293366 0.999762 0.791772 0.167789
C21   C     C_R   0.228935 0.518732 0.278747 -0.183321
C22   C     C_R   0.771023 0.515266 0.718642 -0.180904
C23   C     C_R   0.729014 0.010614 0.283919 -0.183095
C24   C     C_R   0.206687 0.999856 0.705695 0.169993
C25   C     C_R   0.271000 0.012820 0.717170 -0.180960
C26   C     C_R   0.271008 0.480788 0.223990 -0.183437
C27   C     C_R   0.729036 0.484275 0.778730 -0.183258
C28   C     C_R   0.770925 0.989079 0.218570 -0.183691
C29   C     C_R   0.229059 0.986773 0.780275 -0.183264
C30   C     C_1   0.162210 0.499831 0.163949 -0.071394
C31   C     C_1   0.837790 0.499837 0.836076 -0.069658
C32   C     C_1   0.662209 0.999885 0.163893 -0.071465
C33   C     C_R   0.580710 0.499997 0.580740 0.913081
C34   C     C_1   0.337790 0.999854 0.836092 -0.069618
C35   C     C_1   0.337732 0.499939 0.338386 -0.071441
C36   C     C_1   0.662268 0.499932 0.661633 -0.071126
C37   C     C_1   0.837732 0.999964 0.338340 -0.071341
C38   C     C_1   0.162268 0.999939 0.661648 -0.071053
C39   C     C_1   0.375039 0.499991 0.375337 -0.186443
C40   C     C_1   0.624961 0.499981 0.624670 -0.186341
C41   C     C_1   0.875039 0.999996 0.375320 -0.186360
C42   C     C_1   0.124961 0.999982 0.624676 -0.186255
C43   C     C_1   0.124894 0.499913 0.126262 -0.179640
C44   C     C_R   0.919290 0.000001 0.419262 0.912909
C45   C     C_1   0.875105 0.499914 0.873744 -0.177487
C46   C     C_1   0.624894 0.999937 0.126249 -0.179707
C47   C     C_1   0.375105 0.999922 0.873747 -0.177482
C48   C     C_R   0.500003 0.419318 0.999991 0.923971
C49   C     C_R   0.000003 0.919318 0.999991 0.924098
C50   C     C_R   0.499459 0.502881 0.880498 0.927425
C51   C     C_R   0.500540 0.502879 0.119503 0.926997
C52   C     C_R   0.999459 0.002882 0.880498 0.927561
C53   C     C_R   0.000540 0.002879 0.119503 0.927096
C54   C     C_R   0.499998 0.580716 0.999998 0.898970
C55   C     C_R   0.080710 0.999997 0.580739 0.912946
C56   C     C_R   0.999998 0.080716 0.999998 0.899244
C57   C     C_R   0.502089 0.499680 0.621379 0.882348
C58   C     C_R   0.497912 0.499675 0.378622 0.882230
C59   C     C_R   0.002089 0.999680 0.621379 0.882169
C60   C     C_R   0.997912 0.999675 0.378622 0.882087
C61   C     C_R   0.000000 0.419410 0.999996 0.906357
C62   C     C_R   0.500000 0.919410 0.999996 0.906754
C63   C     C_R   0.080631 0.499986 0.081044 0.906391
C64   C     C_R   0.919369 0.499985 0.918956 0.908702
C65   C     C_R   0.580631 0.999986 0.081043 0.906737
C66   C     C_R   0.272367 0.518787 0.321866 -0.183088
C67   C     C_R   0.419369 0.999985 0.918957 0.908939
C68   C     C_R   0.999999 0.580649 0.000007 0.905556
C69   C     C_R   0.499999 0.080649 0.000007 0.905706
C70   C     C_R   0.971330 0.728333 0.007668 0.083113
C71   C     C_R   0.029562 0.728350 0.994582 0.083805
C72   C     C_R   0.472124 0.228333 0.009773 0.083165
C73   C     C_R   0.528804 0.228351 0.992483 0.083835
C74   C     C_R   0.000441 0.706683 0.001091 0.120325
C75   C     C_R   0.500459 0.206683 0.001095 0.120290
C76   C     C_R   0.528350 0.271973 0.992101 -0.221365
C77   C     C_R   0.727590 0.515315 0.675516 -0.182844
C78   C     C_R   0.472201 0.271955 0.009234 -0.220916
C79   C     C_R   0.029109 0.771973 0.994181 -0.221432
C80   C     C_R   0.971421 0.771956 0.007149 -0.220918
C81   C     C_R   0.500196 0.293450 0.000475 0.115622
C82   C     C_R   0.000188 0.793450 0.000474 0.115567
C83   C     C_1   0.000239 0.662122 0.000506 -0.012117
C84   C     C_1   0.500249 0.162122 0.000510 -0.012099
C85   C     C_1   0.500081 0.337836 0.000209 -0.042833
C86   C     C_1   0.000078 0.837836 0.000209 -0.042893
C87   C     C_1   0.500021 0.375115 0.000065 -0.187895
C88   C     C_R   0.772447 0.010654 0.327055 -0.183066
C89   C     C_1   0.000020 0.875115 0.000066 -0.187998
C90   C     C_2   0.527793 0.527080 0.812138 -0.139955
C91   C     C_2   0.472194 0.527062 0.187862 -0.139722
C92   C     C_2   0.027795 0.027078 0.812140 -0.139743
C93   C     C_2   0.972193 0.027061 0.187861 -0.139654
C94   C     C_1   0.000106 0.624845 0.000174 -0.175624
C95   C     C_1   0.500110 0.124845 0.000177 -0.175606
C96   C     C_R   0.973213 0.271773 0.933114 -0.182221
C97   C     C_R   0.026782 0.271776 0.066853 -0.182115
C98   C     C_R   0.477319 0.771771 0.932077 -0.182072
C99   C     C_R   0.227567 0.012864 0.674039 -0.182815
C100  C     C_R   0.522673 0.771777 0.067889 -0.181924
C101  C     C_R   0.999998 0.293406 0.999983 0.168555
C102  C     C_R   0.499997 0.793406 0.999983 0.168354
C103  C     C_R   0.522670 0.728349 0.067891 -0.182924
C104  C     C_R   0.477318 0.728343 0.932079 -0.183073
C105  C     C_R   0.026780 0.228348 0.066854 -0.182859
C106  C     C_R   0.973212 0.228344 0.933115 -0.182999
C107  C     C_R   0.499993 0.706715 0.999986 0.169072
C108  C     C_R   0.999995 0.206715 0.999986 0.168699
C109  C     C_1   0.999999 0.337835 0.999983 -0.070612
C110  C     C_R   0.293313 0.499835 0.294375 0.169920
C111  C     C_1   0.499998 0.837835 0.999982 -0.070584
C112  C     C_1   0.499993 0.662287 0.999988 -0.072715
C113  C     C_1   0.999994 0.162287 0.999988 -0.072826
C114  C     C_1   0.499995 0.624975 0.999992 -0.179657
C115  C     C_1   0.999995 0.124975 0.999992 -0.179764
C116  C     C_1   1.000000 0.375148 0.999987 -0.178814
C117  C     C_1   0.499999 0.875148 0.999987 -0.178795
C118  C     C_2   0.496821 0.510111 0.812777 -0.293936
C119  C     C_2   0.503175 0.510104 0.187224 -0.294204
C120  C     C_2   0.996821 0.010113 0.812778 -0.293880
H1    H     H_    0.555725 0.539020 0.862784 0.160291
H2    H     H_    0.047565 0.288448 0.118736 0.141616
H3    H     H_    0.459724 0.788439 0.879389 0.141599
H4    H     H_    0.540268 0.788450 0.120577 0.141748
H5    H     H_    0.467240 0.502837 0.760486 0.167660
H6    H     H_    0.532759 0.502837 0.239514 0.167482
H7    H     H_    0.967239 0.002842 0.760486 0.167510
H8    H     H_    0.032759 0.002838 0.239515 0.167421
H9    H     H_    0.532828 0.558201 0.727416 0.148363
H10   H     H_    0.467143 0.558180 0.272577 0.148293
H11   H     H_    0.032835 0.058197 0.727423 0.148467
H12   H     H_    0.444257 0.538994 0.137216 0.160294
H13   H     H_    0.967140 0.058178 0.272575 0.148336
H14   H     H_    0.287150 0.466081 0.202557 0.140574
H15   H     H_    0.712928 0.472265 0.802227 0.140383
H16   H     H_    0.787004 0.980733 0.193036 0.140217
H17   H     H_    0.212969 0.976679 0.804941 0.140287
H18   H     H_    0.210392 0.465997 0.126335 0.142115
H19   H     H_    0.789686 0.472191 0.878460 0.142072
H20   H     H_    0.710247 0.980673 0.116793 0.142360
H21   H     H_    0.289727 0.976613 0.881179 0.142136
H22   H     H_    0.212785 0.533482 0.300126 0.141150
H23   H     H_    0.055730 0.039013 0.862787 0.160209
H24   H     H_    0.787139 0.527316 0.695188 0.142599
H25   H     H_    0.712927 0.018989 0.309423 0.141523
H26   H     H_    0.287098 0.022949 0.692541 0.142523
H27   H     H_    0.289569 0.533562 0.376377 0.140299
H28   H     H_    0.710353 0.527387 0.618926 0.140499
H29   H     H_    0.789713 0.019046 0.385697 0.139933
H30   H     H_    0.210312 0.023012 0.616273 0.140325
H31   H     H_    0.450573 0.289157 0.015732 0.143571
H32   H     H_    0.549899 0.289190 0.985423 0.143515
H33   H     H_    0.949204 0.789157 0.012047 0.143633
H34   H     H_    0.944255 0.038992 0.137215 0.160094
H35   H     H_    0.051250 0.789189 0.989105 0.143564
H36   H     H_    0.921056 0.726457 0.014414 0.182057
H37   H     H_    0.958284 0.691009 0.066252 0.185013
H38   H     H_    0.076792 0.726504 0.979423 0.182070
H39   H     H_    0.079893 0.691047 0.038932 0.182305
H40   H     H_    0.423094 0.226457 0.020054 0.181977
H41   H     H_    0.460593 0.191010 0.070470 0.184984
H42   H     H_    0.574680 0.226504 0.973819 0.181984
H43   H     H_    0.578960 0.191048 0.034370 0.182518
H44   H     H_    0.472525 0.446935 0.677549 0.182705
H45   H     H_    0.459724 0.711670 0.879391 0.140649
H46   H     H_    0.523622 0.435917 0.718803 0.203882
H47   H     H_    0.527505 0.446935 0.322468 0.181906
H48   H     H_    0.476414 0.435899 0.281215 0.203362
H49   H     H_    0.972515 0.946940 0.677538 0.182537
H50   H     H_    0.023611 0.935914 0.718793 0.203998
H51   H     H_    0.027507 0.946936 0.322471 0.181887
H52   H     H_    0.976417 0.935899 0.281217 0.203478
H53   H     H_    0.540264 0.711680 0.120579 0.140832
H54   H     H_    0.952430 0.211672 0.881232 0.140959
H55   H     H_    0.047560 0.211678 0.118739 0.141142
H56   H     H_    0.952431 0.288442 0.881230 0.141448
N1    N     N_3   0.941711 0.705846 0.014178 -0.448882
N2    N     N_3   0.059098 0.705881 0.987805 -0.447223
N3    N     N_3   0.443292 0.205845 0.018420 -0.448791
N4    N     N_3   0.557551 0.205881 0.983572 -0.447263
N5    N     N_3   0.502900 0.457189 0.717353 -0.440724
N6    N     N_3   0.497125 0.457178 0.282660 -0.441397
N7    N     N_3   0.002891 0.957190 0.717345 -0.440737
N8    N     N_3   0.997127 0.957178 0.282662 -0.441404
O1    O     O_R   0.439010 0.534430 0.439020 -0.615493
O2    O     O_R   0.939020 0.499970 0.990130 -0.615556
O3    O     O_R   0.560980 0.999970 0.009870 -0.615338
O4    O     O_R   0.439020 0.999970 0.990130 -0.615620
O5    O     O_R   0.000010 0.561020 0.051000 -0.618675
O6    O     O_R   0.999990 0.561020 0.949000 -0.611302
O7    O     O_R   0.500010 0.061020 0.051000 -0.618542
O8    O     O_R   0.499990 0.061020 0.949000 -0.611456
O9    O     O_R   0.439010 0.465570 0.438980 -0.615871
O10   O     O_R   0.560990 0.465570 0.561020 -0.616032
O11   O     O_R   0.939010 0.965570 0.438980 -0.615696
O12   O     O_R   0.560990 0.534430 0.560980 -0.615106
O13   O     O_R   0.060990 0.965570 0.561020 -0.615968
O14   O     O_R   0.500010 0.534430 0.590460 -0.624259
O15   O     O_R   0.499990 0.534430 0.409540 -0.624177
O16   O     O_R   0.000010 0.034430 0.590460 -0.624136
O17   O     O_R   0.999990 0.034430 0.409540 -0.624131
O18   O     O_R   0.500010 0.465570 0.590420 -0.627514
O19   O     O_R   0.499990 0.465570 0.409580 -0.627851
O20   O     O_R   0.000010 0.965570 0.590420 -0.627539
O21   O     O_R   0.999990 0.965570 0.409580 -0.627801
O22   O     O_R   0.534430 0.439010 0.034350 -0.614070
O23   O     O_R   0.939010 0.034430 0.439020 -0.615302
O24   O     O_R   0.465570 0.439010 0.965650 -0.613049
O25   O     O_R   0.034430 0.939010 0.034350 -0.614095
O26   O     O_R   0.965570 0.939010 0.965650 -0.613157
O27   O     O_R   0.534420 0.500000 0.943920 -0.614970
O28   O     O_R   0.465580 0.500000 0.056080 -0.614920
O29   O     O_R   0.034420 1.000000 0.943920 -0.614981
O30   O     O_R   0.965580 0.000000 0.056080 -0.615001
O31   O     O_R   0.465560 0.500000 0.875080 -0.627062
O32   O     O_R   0.534440 0.500000 0.124920 -0.627366
O33   O     O_R   0.965560 0.000000 0.875080 -0.627179
O34   O     O_R   0.060990 0.034430 0.560980 -0.615016
O35   O     O_R   0.034440 0.000000 0.124920 -0.627402
O36   O     O_R   0.534430 0.560990 0.034430 -0.621609
O37   O     O_R   0.465570 0.560990 0.965570 -0.621722
O38   O     O_R   0.034430 0.060990 0.034430 -0.621757
O39   O     O_R   0.965570 0.060990 0.965570 -0.621909
O40   O     O_R   0.000000 0.439050 0.051090 -0.615915
O41   O     O_R   0.000000 0.439050 0.948910 -0.616121
O42   O     O_R   0.500000 0.939050 0.051090 -0.616144
O43   O     O_R   0.500000 0.939050 0.948910 -0.616220
O44   O     O_R   0.060990 0.500040 0.112010 -0.617361
O45   O     O_R   0.939010 0.500040 0.887990 -0.616257
O46   O     O_R   0.560990 0.000040 0.112010 -0.617532
O47   O     O_R   0.439010 0.000040 0.887990 -0.616319
O48   O     O_R   0.060980 0.499970 0.009870 -0.615064
Zn1   Zn    Zn3+2 0.500000 0.545980 0.500000 0.956212
Zn2   Zn    Zn3+2 0.999990 0.500050 0.931820 0.971900
Zn3   Zn    Zn3+2 0.500010 0.000050 0.068180 0.965835
Zn4   Zn    Zn3+2 0.499990 0.000050 0.931820 0.971294
Zn5   Zn    Zn3+2 1.000000 0.045980 0.500000 0.956764
Zn6   Zn    Zn3+2 0.500000 0.454020 0.500000 0.950889
Zn7   Zn    Zn3+2 1.000000 0.954020 0.500000 0.951264
Zn8   Zn    Zn3+2 0.545980 0.500000 0.045940 0.960214
Zn9   Zn    Zn3+2 0.454020 0.500000 0.954060 0.961198
Zn10  Zn    Zn3+2 0.045980 0.000000 0.045940 0.959852
Zn11  Zn    Zn3+2 0.954020 0.000000 0.954060 0.960547
Zn12  Zn    Zn3+2 0.000010 0.500050 0.068180 0.966301

loop_
_geom_bond_atom_site_label_1
_geom_bond_atom_site_label_2
_ccdc_geom_bond_type
C8    N5    S    
C53   O35   A    
O1    Zn1   S    
C65   O3    A    
C64   O2    A    
C53   O30   A    
C17   C30   S    
H50   N7    S    
C24   C99   A    
C3    C53   S    
C107  C112  S    
C14   C18   A    
C19   C23   A    
C74   C83   S    
C4    C8    D    
O2    Zn12  S    
C69   O7    A    
C71   C79   A    
O38   Zn10  S    
C120  H7    S    
C43   C63   S    
C80   H33   S    
O37   Zn9   S    
C15   C19   A    
O43   Zn4   S    
C23   H25   S    
C52   O33   A    
O28   Zn9   S    
C106  C108  A    
C65   O46   A    
O41   Zn2   S    
C90   C118  D    
C71   N2    S    
O11   Zn7   S    
O29   Zn10  S    
O26   Zn11  S    
C7    H13   S    
C76   C81   A    
O15   Zn1   S    
C64   O45   A    
C57   O14   A    
C6    C92   S    
C75   C84   S    
H47   N6    S    
C20   C25   A    
C76   H32   S    
O7    Zn3   S    
C62   O43   A    
C103  H53   S    
C9    C58   S    
C88   H29   S    
C63   O44   A    
O45   Zn2   S    
O21   Zn7   S    
C92   H23   S    
C24   C29   A    
H49   N7    S    
C62   C117  S    
C72   C78   A    
H44   N5    S    
C109  C116  T    
C104  H45   S    
O16   Zn5   S    
C73   N4    S    
C51   O28   A    
C25   C99   A    
C33   O12   A    
O39   Zn11  S    
O19   Zn6   S    
C57   O18   A    
C70   C74   A    
C24   C38   S    
H38   N2    S    
C15   H20   S    
C13   C28   A    
C2    C27   A    
O6    Zn2   S    
C118  H5    S    
C14   C27   A    
H41   N3    S    
C26   C110  A    
C71   C74   A    
H42   N4    S    
O3    Zn4   S    
C81   C85   S    
C20   C34   S    
C67   O47   A    
C28   H16   S    
C96   C101  A    
C10   N7    S    
C73   C75   A    
C102  C111  S    
C9    N6    S    
H46   N5    S    
O5    Zn12  S    
C72   C75   A    
C19   C32   S    
C59   O20   A    
C69   O8    A    
C47   C67   S    
C105  C108  A    
C78   H31   S    
O8    Zn4   S    
C55   O34   A    
C4    C90   S    
C85   C87   T    
C98   H3    S    
C7    C93   S    
C99   H30   S    
C58   O15   A    
O31   Zn9   S    
C33   C40   S    
C119  H6    S    
C70   C80   A    
O32   Zn8   S    
C51   O32   A    
H51   N8    S    
C36   C40   T    
C49   O26   A    
O24   Zn9   S    
C46   C65   S    
C80   C82   A    
O23   Zn5   S    
C3    H8    S    
O40   Zn12  S    
C54   O37   A    
C68   O5    A    
C91   H12   S    
C16   C29   A    
C82   C86   S    
C83   C94   T    
O14   Zn1   S    
C100  C103  A    
C68   C94   S    
O42   Zn3   S    
O47   Zn4   S    
C12   C26   A    
O30   Zn11  S    
C100  H4    S    
C84   C95   T    
C108  C113  S    
C12   C17   A    
C35   C39   T    
C31   C45   T    
O33   Zn11  S    
H40   N3    S    
C5    C9    D    
C97   H2    S    
C26   H14   S    
C8    C57   S    
C56   O39   A    
H36   N1    S    
H52   N8    S    
C7    C11   D    
O44   Zn12  S    
C68   O6    A    
C59   O16   A    
C16   C20   A    
C48   O24   A    
C61   C116  S    
O20   Zn7   S    
C106  H54   S    
C48   C87   S    
O46   Zn3   S    
C3    C93   D    
H37   N1    S    
C66   C110  A    
C54   O36   A    
C35   C110  S    
C77   H28   S    
C66   H27   S    
C25   H26   S    
O4    Zn3   S    
C112  C114  T    
C52   C120  S    
O10   Zn6   S    
C5    H10   S    
C33   O10   A    
H48   N6    S    
C23   C88   A    
C105  H55   S    
C13   C37   S    
C41   C44   S    
C91   C119  D    
C30   C43   T    
C90   H1    S    
H39   N2    S    
C49   O25   A    
C11   C60   S    
C21   H22   S    
C67   O4    A    
C100  C102  A    
C2    C36   S    
C96   C106  A    
C93   H34   S    
C44   O11   A    
C96   H56   S    
C48   O22   A    
C58   O19   A    
C50   C118  S    
C32   C46   T    
C11   N8    S    
C22   C77   A    
C49   C89   S    
C6    H11   S    
C69   C95   S    
C86   C89   T    
O48   Zn2   S    
O25   Zn10  S    
O18   Zn6   S    
C79   C82   A    
C103  C107  A    
C70   N1    S    
O17   Zn5   S    
C4    H9    S    
C34   C47   T    
C1    O1    A    
C29   H17   S    
C45   C64   S    
C21   C66   A    
C72   N3    S    
O35   Zn10  S    
C111  C117  T    
C27   H15   S    
C18   C22   A    
C10   C59   S    
C92   C120  D    
C61   O40   A    
C97   C105  A    
C2    C77   A    
C98   C102  A    
C56   O38   A    
O13   Zn7   S    
C78   C81   A    
C15   C28   A    
C55   O13   A    
C62   O42   A    
C50   O31   A    
C42   C55   S    
C98   C104  A    
C54   C114  S    
C13   C88   A    
C52   O29   A    
C73   C76   A    
C56   C115  S    
C50   O27   A    
C16   H21   S    
C12   H18   S    
C44   O23   A    
C37   C41   T    
C60   O21   A    
C61   O41   A    
O9    Zn6   S    
C6    C10   D    
C1    C39   S    
C51   C119  S    
C79   H35   S    
O27   Zn8   S    
C38   C42   T    
C60   O17   A    
C14   H19   S    
C5    C91   S    
O12   Zn1   S    
C22   H24   S    
H43   N4    S    
C1    O9    A    
O36   Zn8   S    
O22   Zn8   S    
C18   C31   S    
O34   Zn5   S    
C101  C109  S    
C104  C107  A    
C97   C101  A    
C63   O48   A    
C113  C115  T    
C17   C21   A    
