data_mof_unit_14022.cif
_audit_creation_date              2012-12-10T17:23:41-0500
_audit_creation_method            fapswitch 2.2
_symmetry_space_group_name_H-M    P1
_symmetry_Int_Tables_number       1
_space_group_crystal_system       triclinic
_cell_length_a                    9.591405
_cell_length_b                    10.872689
_cell_length_c                    17.318939
_cell_angle_alpha                 93.502595
_cell_angle_beta                  87.005535
_cell_angle_gamma                 89.704712
_cell_volume                      1800.19625042

loop_
_atom_site_label
_atom_site_type_symbol
_atom_type_description
_atom_site_fract_x
_atom_site_fract_y
_atom_site_fract_z
_atom_type_partial_charge
C1    C     C_R   0.499535 0.736688 0.492558 0.826408
C2    C     C_R   0.351234 0.431960 0.766125 -0.301498
C3    C     C_R   0.400818 0.435750 0.148203 -0.148105
C4    C     C_R   0.398112 0.457968 0.227846 -0.206687
C5    C     C_R   0.649727 0.480170 0.222221 -0.201300
C6    C     C_R   0.652275 0.459731 0.141989 -0.173744
C7    C     C_R   0.527768 0.438986 0.104309 0.182243
C8    C     C_2   0.424111 0.446453 0.976789 -0.197586
C9    C     C_2   0.534406 0.426584 0.019207 -0.228308
C10   C     C_R   0.522172 0.480920 0.265540 -0.045658
C11   C     C_R   0.234072 0.887051 0.469786 0.541209
C12   C     C_R   0.482352 0.498696 0.649792 0.818185
C13   C     C_R   0.112870 0.945448 0.502316 -0.166316
C14   C     C_R   0.120021 0.057503 0.544690 -0.276748
C15   C     C_R   0.247430 0.117052 0.549716 -0.155609
C16   C     C_R   0.371047 0.062296 0.514692 0.038078
C17   C     C_R   0.367404 0.937431 0.487677 -0.119642
C18   C     C_R   0.495953 0.870182 0.481148 -0.240248
C19   C     C_R   0.622568 0.934863 0.472985 0.459936
C20   C     C_R   0.621988 0.062709 0.484901 -0.311594
C21   C     C_R   0.497781 0.127541 0.505395 -0.139249
C22   C     C_R   0.866329 0.334701 0.396867 -0.227452
C23   C     C_R   0.499486 0.262478 0.504064 0.791723
C24   C     C_R   0.943597 0.261846 0.341600 -0.285003
C25   C     C_R   0.087650 0.262687 0.339859 0.454553
C26   C     C_R   0.154466 0.336690 0.395461 -0.228697
C27   C     C_R   0.079694 0.416901 0.450347 0.069416
C28   C     C_R   0.930292 0.416952 0.450404 0.193640
C29   C     C_R   0.921277 0.582684 0.544993 -0.146070
C30   C     C_R   0.070145 0.584079 0.544526 0.539211
C31   C     C_R   0.517002 0.496393 0.350098 0.722829
C32   C     C_R   0.470937 0.487630 0.733719 -0.102362
C33   C     C_R   0.577689 0.528800 0.781514 0.440963
C34   C     C_R   0.559203 0.516519 0.861569 -0.250889
C35   C     C_R   0.441688 0.458001 0.893049 0.134778
C36   C     C_R   0.336911 0.417196 0.845236 -0.179736
Cu1   Cu    Cu3+1 0.359340 0.500010 0.500010 0.967713
Cu2   Cu    Cu3+1 0.640660 0.499990 0.499990 0.955466
H1    H     H_    0.751449 0.461987 0.109166 0.126299
H2    H     H_    0.012338 0.903569 0.494432 0.194126
H3    H     H_    0.248127 0.204244 0.583168 0.167738
H4    H     H_    0.890504 0.205707 0.298575 0.161912
H5    H     H_    0.298458 0.454593 0.259934 0.180136
H6    H     H_    0.264654 0.332514 0.391037 0.204141
H7    H     H_    0.244305 0.373662 0.869116 0.143910
H8    H     H_    0.268801 0.398543 0.730072 0.161547
H9    H     H_    0.319821 0.460721 0.002975 0.143041
H10   H     H_    0.634895 0.554614 0.899930 0.138089
N1    N     N_R   0.852190 0.498790 0.499250 -0.211284
N2    N     N_R   0.148060 0.498710 0.499220 -0.209144
O1    O     O_R   0.381190 0.680360 0.500010 -0.496164
O2    O     O_R   0.618760 0.680340 0.500000 -0.532332
O3    O     O_R   0.367440 0.500030 0.613600 -0.598148
O4    O     O_R   0.605010 0.500010 0.613590 -0.544271
O5    O     O_R   0.381240 0.319660 0.500000 -0.615335
O6    O     O_R   0.618810 0.319640 0.499990 -0.602931
O7    O     O_R   0.394990 0.499990 0.386410 -0.597856
O8    O     O_R   0.632560 0.499970 0.386400 -0.608531
O9    O     O_3   0.691396 0.591080 0.750065 -0.609441
C37   C     C_3   0.819395 0.546868 0.775588 0.060961
H11   H     H_    0.891951 0.530266 0.723868 0.136273
H12   H     H_    0.811039 0.456320 0.802639 0.127278
C38   C     C_3   0.883926 0.644142 0.830553 -0.350197
H13   H     H_    0.917253 0.724103 0.797708 0.212058
H14   H     H_    0.806684 0.679816 0.876372 0.219975
C39   C     C_3   0.008523 0.591197 0.868926 -0.950096
H15   H     H_    0.974056 0.517066 0.906808 0.251287
H16   H     H_    0.058480 0.664804 0.904902 0.267191
H17   H     H_    0.086063 0.552658 0.824092 0.261194
O10   O     O_3   0.748045 0.872867 0.455543 -0.601091
C40   C     C_3   0.793818 0.888497 0.377547 0.039510
H18   H     H_    0.908209 0.871759 0.372339 0.169340
H19   H     H_    0.777544 0.984052 0.359661 0.128969
C41   C     C_3   0.724776 0.794636 0.322273 -0.342391
H20   H     H_    0.747292 0.700266 0.339486 0.249095
H21   H     H_    0.610236 0.809567 0.326065 0.189011
C42   C     C_3   0.777713 0.805635 0.238387 -0.929932
H22   H     H_    0.765044 0.901496 0.221048 0.264319
H23   H     H_    0.717017 0.743538 0.199734 0.264591
H24   H     H_    0.889350 0.778382 0.230795 0.253894
O11   O     O_3   0.215103 0.784328 0.419651 -0.579387
C43   C     C_3   0.293216 0.791819 0.348447 0.045482
H25   H     H_    0.385253 0.729960 0.347783 0.155147
H26   H     H_    0.331279 0.885683 0.337997 0.108413
C44   C     C_3   0.203007 0.748820 0.282146 -0.340228
H27   H     H_    0.168548 0.652835 0.290316 0.232180
H28   H     H_    0.109131 0.809017 0.283196 0.203906
C45   C     C_3   0.281996 0.754043 0.203490 -0.919255
H29   H     H_    0.298573 0.851011 0.189056 0.251082
H30   H     H_    0.220273 0.707555 0.157891 0.258018
H31   H     H_    0.385232 0.707546 0.203558 0.271758
H32   H     H_    0.025843 0.100634 0.571151 0.168202
H33   H     H_    0.719846 0.111003 0.477444 0.173737
H34   H     H_    0.861384 0.652670 0.579473 0.171191
H35   H     H_    0.756817 0.326248 0.392619 0.219458
O12   O     O_3   0.160039 0.205720 0.276072 -0.617081
C46   C     C_3   0.261012 0.120956 0.297591 0.015896
H36   H     H_    0.238232 0.031652 0.266834 0.176635
H37   H     H_    0.258094 0.105196 0.360748 0.129516
C47   C     C_3   0.406850 0.162147 0.270329 -0.318300
H38   H     H_    0.405992 0.186822 0.209036 0.248955
H39   H     H_    0.436967 0.244073 0.306638 0.202666
C48   C     C_3   0.516728 0.062224 0.276324 -0.963985
H40   H     H_    0.517871 0.034298 0.336660 0.256949
H41   H     H_    0.621248 0.098420 0.259446 0.256685
H42   H     H_    0.495086 0.980726 0.237146 0.266759
O13   O     O_3   0.137776 0.685585 0.575767 -0.571436
C49   C     C_3   0.122602 0.694684 0.657086 0.022963
H43   H     H_    0.137439 0.603684 0.682007 0.141167
H44   H     H_    0.017724 0.732918 0.675378 0.129243
C50   C     C_3   0.233963 0.784029 0.686339 -0.272437
H45   H     H_    0.338480 0.752750 0.661786 0.227266
H46   H     H_    0.213513 0.877020 0.665821 0.221134
C51   C     C_3   0.237314 0.793472 0.774359 -0.929252
H47   H     H_    0.135322 0.827122 0.800869 0.258814
H48   H     H_    0.318965 0.859891 0.792037 0.258865
H49   H     H_    0.263452 0.702608 0.795960 0.274021
H50   H     H_    0.747123 0.495632 0.250111 0.164274
H51   H     H_    0.636674 0.410235 0.990200 0.144654
H52   H     H_    0.303103 0.415194 0.122142 0.135733

loop_
_geom_bond_atom_site_label_1
_geom_bond_atom_site_label_2
_ccdc_geom_bond_type
C39   H16   S    
C20   H33   S    
C38   H14   S    
C16   C21   A    
C30   O13   S    
C24   H4    S    
C22   H35   S    
C19   C20   A    
C51   H47   S    
C26   H6    S    
C23   O6    A    
Cu2   N1    S    
C29   N1    A    
C42   H22   S    
C11   O11   S    
C1    C18   S    
Cu1   Cu2   S    
C41   H21   S    
C37   C38   S    
C31   O8    A    
C37   H12   S    
C18   C19   A    
C3    C7    A    
C5    C6    A    
Cu1   O1    S    
C42   H24   S    
C39   H17   S    
Cu2   O2    S    
C15   C16   A    
C46   H36   S    
C49   H43   S    
C2    C32   A    
C34   C35   A    
C13   H2    S    
Cu2   O8    S    
C10   C31   S    
C50   H45   S    
C49   H44   S    
C8    C9    D    
C41   C42   S    
O13   C49   S    
O10   C40   S    
C50   C51   S    
C12   O3    A    
C27   N2    A    
Cu1   O3    S    
C44   H28   S    
C39   H15   S    
C30   N2    A    
C38   C39   S    
O9    C37   S    
C33   O9    S    
C22   C28   A    
C13   C14   A    
C12   C32   S    
C46   H37   S    
O11   C43   S    
C42   H23   S    
C41   H20   S    
C24   C25   A    
C15   H3    S    
C50   H46   S    
C40   H19   S    
C16   C17   A    
C25   C26   A    
C44   H27   S    
C47   C48   S    
C2    H8    S    
C37   H11   S    
C8    C35   S    
C29   C30   A    
C28   N1    A    
Cu2   O4    S    
C45   H31   S    
O12   C46   S    
C47   H39   S    
C17   C18   A    
C26   C27   A    
C36   H7    S    
C48   H41   S    
C20   C21   A    
C1    O1    A    
C14   H32   S    
C45   H30   S    
C43   H26   S    
C21   C23   S    
C9    H51   S    
C22   C24   A    
C34   H10   S    
C4    C10   A    
C3    C4    A    
C48   H40   S    
C46   C47   S    
C44   C45   S    
C2    C36   A    
C7    C9    S    
C11   C17   A    
C14   C15   A    
C40   C41   S    
C51   H48   S    
C23   O5    A    
C6    C7    A    
C4    H5    S    
C43   C44   S    
C49   C50   S    
C5    H50   S    
C32   C33   A    
C31   O7    A    
C8    H9    S    
C5    C10   A    
Cu1   N2    S    
C11   C13   A    
C29   H34   S    
C47   H38   S    
C33   C34   A    
C48   H42   S    
C1    O2    A    
Cu1   O7    S    
C51   H49   S    
C3    H52   S    
C38   H13   S    
Cu1   O5    S    
C40   H18   S    
Cu2   O6    S    
C45   H29   S    
C25   O12   S    
C43   H25   S    
C27   C28   A    
C6    H1    S    
C19   O10   S    
C35   C36   A    
C12   O4    A    
