data_mof_unit_13940.cif
_audit_creation_date              2012-12-10T20:41:49-0500
_audit_creation_method            fapswitch 2.2
_symmetry_space_group_name_H-M    P1
_symmetry_Int_Tables_number       1
_space_group_crystal_system       triclinic
_cell_length_a                    15.029989
_cell_length_b                    15.217395
_cell_length_c                    9.866783
_cell_angle_alpha                 90.355314
_cell_angle_beta                  89.238421
_cell_angle_gamma                 89.919767
_cell_volume                      2256.45854127

loop_
_atom_site_label
_atom_site_type_symbol
_atom_type_description
_atom_site_fract_x
_atom_site_fract_y
_atom_site_fract_z
_atom_type_partial_charge
C1    C     C_R   0.381553 0.878396 0.499823 0.890841
C2    C     C_R   0.928937 0.467596 0.072820 0.243553
C3    C     C_R   0.573730 0.023326 0.070631 -0.115064
C4    C     C_R   0.073731 0.523329 0.070631 -0.115092
C5    C     C_R   0.573786 0.022990 0.926705 -0.102336
C6    C     C_R   0.073787 0.522996 0.926705 -0.102422
C7    C     C_R   0.428776 0.967713 0.930248 0.270237
C8    C     C_R   0.928764 0.467742 0.930254 0.270490
C9    C     C_3   0.335819 0.001961 0.929633 -0.512563
C10   C     C_3   0.835821 0.502037 0.929681 -0.512605
C11   C     C_3   0.336016 0.000592 0.083025 -0.491920
C12   C     C_R   0.382334 0.122614 0.500357 0.887640
C13   C     C_3   0.836021 0.500621 0.083069 -0.491851
C14   C     C_R   0.621764 0.118201 0.499300 0.890135
C15   C     C_R   0.622700 0.882734 0.498933 0.892907
C16   C     C_R   0.121736 0.618224 0.499303 0.890153
C17   C     C_R   0.122700 0.382734 0.498933 0.892836
C18   C     C_R   0.311946 0.250016 0.613711 0.133295
C19   C     C_R   0.316407 0.747506 0.605171 0.125980
C20   C     C_R   0.811962 0.750032 0.613696 0.133279
C21   C     C_R   0.816342 0.247560 0.605380 0.126220
C22   C     C_R   0.327970 0.199583 0.497448 -0.141804
C23   C     C_R   0.881590 0.378356 0.499820 0.890757
C24   C     C_R   0.324175 0.804314 0.495501 -0.136269
C25   C     C_R   0.827972 0.699586 0.497444 -0.141797
C26   C     C_R   0.824333 0.304166 0.495501 -0.136441
C27   C     C_R   0.294142 0.227964 0.372898 -0.186790
C28   C     C_R   0.279880 0.784849 0.374640 -0.190095
C29   C     C_R   0.794131 0.727955 0.372896 -0.186795
C30   C     C_R   0.780331 0.284417 0.374504 -0.190085
C31   C     C_R   0.729923 0.792875 0.371717 -0.198769
C32   C     C_R   0.716153 0.219842 0.374059 -0.205557
C33   C     C_R   0.229934 0.292886 0.371720 -0.198782
C34   C     C_R   0.882335 0.622616 0.500357 0.887668
C35   C     C_R   0.215718 0.720268 0.374191 -0.205571
C36   C     C_R   0.700127 0.829070 0.495093 -0.105651
C37   C     C_R   0.696279 0.175288 0.494643 -0.096643
C38   C     C_R   0.200127 0.329069 0.495098 -0.105677
C39   C     C_R   0.196153 0.675416 0.494637 -0.096426
C40   C     C_R   0.748217 0.814258 0.612347 0.086336
C41   C     C_R   0.752542 0.183519 0.604997 0.090087
C42   C     C_R   0.248203 0.314243 0.612362 0.086357
C43   C     C_R   0.252632 0.683442 0.604782 0.089969
C44   C     C_3   0.718036 0.796304 0.754067 -0.472816
C45   C     C_3   0.288560 0.224877 0.755777 -0.032480
C46   C     C_3   0.733328 0.193786 0.753051 -0.509888
C47   C     C_3   0.218003 0.296271 0.754068 -0.472868
C48   C     C_3   0.233693 0.693428 0.752975 -0.510042
C49   C     C_3   0.304113 0.764878 0.753222 -0.009186
C50   C     C_3   0.788596 0.724912 0.755777 -0.032484
C51   C     C_3   0.803794 0.265188 0.753303 -0.009458
C52   C     C_R   0.428943 0.967582 0.072814 0.243548
H1    H     H_    0.311226 0.195691 0.277991 0.182196
H2    H     H_    0.677857 0.210095 0.282899 0.177642
H3    H     H_    0.198805 0.308639 0.276457 0.185018
H4    H     H_    0.177211 0.710718 0.283178 0.177590
H5    H     H_    0.731249 0.852654 0.823070 0.226396
H6    H     H_    0.752451 0.134353 0.810572 0.220010
H7    H     H_    0.231210 0.352612 0.823092 0.226403
H8    H     H_    0.252964 0.633889 0.810150 0.220046
H9    H     H_    0.649085 0.769994 0.759865 0.217982
H10   H     H_    0.665119 0.219047 0.774957 0.213159
H11   H     H_    0.149050 0.269964 0.759838 0.217865
H12   H     H_    0.289539 0.823420 0.283757 0.173064
H13   H     H_    0.165502 0.718612 0.775298 0.213080
H14   H     H_    0.258816 0.158304 0.761036 0.140730
H15   H     H_    0.275879 0.830846 0.773941 0.139395
H16   H     H_    0.758854 0.658340 0.761065 0.140785
H17   H     H_    0.775573 0.331202 0.773625 0.139391
H18   H     H_    0.632810 0.043636 0.123727 0.153157
H19   H     H_    0.132810 0.543643 0.123727 0.153247
H20   H     H_    0.632951 0.042290 0.871517 0.145446
H21   H     H_    0.132950 0.542315 0.871519 0.145479
H22   H     H_    0.332804 0.068823 0.888533 0.232813
H23   H     H_    0.811206 0.695673 0.277992 0.182167
H24   H     H_    0.287413 0.955518 0.885804 0.198626
H25   H     H_    0.832840 0.568915 0.888638 0.232790
H26   H     H_    0.787382 0.455640 0.885836 0.198725
H27   H     H_    0.790197 0.322785 0.283474 0.173412
H28   H     H_    0.331369 0.067099 0.129616 0.224522
H29   H     H_    0.289953 0.950991 0.126885 0.199774
H30   H     H_    0.831388 0.567114 0.129708 0.224506
H31   H     H_    0.789957 0.451009 0.126907 0.199930
H32   H     H_    0.698784 0.808618 0.276458 0.185014
I1    I     I_    0.395560 0.254271 0.890771 -0.404019
I2    I     I_    0.420580 0.730484 0.864194 -0.404612
I3    I     I_    0.895614 0.754332 0.890725 -0.404046
I4    I     I_    0.920019 0.230854 0.864884 -0.404871
N1    N     N_R   0.499140 0.000000 0.142800 -0.112915
N2    N     N_R   0.999140 0.500000 0.142800 -0.112932
N3    N     N_R   0.499160 0.000000 0.857150 -0.103152
N4    N     N_R   0.999160 0.500000 0.857150 -0.103176
O1    O     O_R   0.408400 0.908380 0.614690 -0.610573
O2    O     O_R   0.591610 0.908390 0.614650 -0.611879
O3    O     O_R   0.091610 0.591610 0.614650 -0.617000
O4    O     O_R   0.091610 0.408390 0.614650 -0.611911
O5    O     O_R   0.591590 0.091600 0.385310 -0.631106
O6    O     O_R   0.591590 0.908400 0.385310 -0.623389
O7    O     O_R   0.091590 0.591600 0.385310 -0.631110
O8    O     O_R   0.091590 0.408400 0.385310 -0.623372
O9    O     O_R   0.408400 0.091620 0.614690 -0.606261
O10   O     O_R   0.908400 0.408380 0.614690 -0.610514
O11   O     O_R   0.908400 0.591620 0.614690 -0.606250
O12   O     O_R   0.408370 0.908370 0.385350 -0.620036
O13   O     O_R   0.408370 0.091630 0.385350 -0.623114
O14   O     O_R   0.908370 0.408370 0.385350 -0.620084
O15   O     O_R   0.908370 0.591630 0.385350 -0.623133
O16   O     O_R   0.591610 0.091610 0.614650 -0.616977
Zn1   Zn    Zn3+2 0.500010 0.000000 0.653130 0.974575
Zn2   Zn    Zn3+2 0.000010 0.500000 0.653130 0.974580
Zn3   Zn    Zn3+2 0.499980 0.000000 0.346870 0.960442
Zn4   Zn    Zn3+2 0.999980 0.500000 0.346870 0.960412

loop_
_geom_bond_atom_site_label_1
_geom_bond_atom_site_label_2
_ccdc_geom_bond_type
C33   H3    S    
C21   C26   A    
O15   Zn4   S    
C45   I1    S    
N2    Zn4   S    
C15   O2    A    
C10   H26   S    
O14   Zn4   S    
C11   H29   S    
C46   H10   S    
O11   Zn2   S    
C34   O15   A    
C7    C52   A    
C38   C42   A    
C5    H20   S    
C18   C42   A    
C47   H11   S    
C12   O13   A    
C20   C40   A    
C6    N4    A    
C23   O10   A    
C20   C25   A    
O9    Zn1   S    
C12   C22   S    
O16   Zn1   S    
C23   C26   S    
C2    N2    A    
C2    C13   S    
C20   C50   S    
C11   C52   S    
C28   C35   A    
C41   C46   S    
C8    N4    A    
C9    H24   S    
C48   H13   S    
C43   C48   S    
C25   C34   S    
C17   C38   S    
C14   O16   A    
O13   Zn3   S    
C46   H6    S    
C52   N1    A    
C32   H2    S    
C10   H25   S    
C19   C43   A    
C48   H8    S    
C4    N2    A    
C14   O5    A    
C45   C47   S    
C25   C29   A    
C36   C40   A    
C3    H18   S    
C4    C6    A    
C39   C43   A    
C23   O14   A    
O4    Zn2   S    
C46   C51   S    
O3    Zn2   S    
C27   C33   A    
C31   H32   S    
C35   C39   A    
C19   C49   S    
C44   H5    S    
C7    N3    A    
C17   O4    A    
C32   C37   A    
C9    C11   S    
C1    O12   A    
C5    N3    A    
C50   I3    S    
C21   C41   A    
C30   H27   S    
C28   H12   S    
C8    C10   S    
C48   C49   S    
O8    Zn4   S    
C22   C27   A    
O10   Zn2   S    
C9    H22   S    
C15   O6    A    
C18   C45   S    
C15   C36   S    
C21   C51   S    
C6    H21   S    
C44   C50   S    
C7    C9    S    
N1    Zn3   S    
C16   O3    A    
O6    Zn3   S    
C49   H15   S    
C35   H4    S    
C18   C22   A    
C49   I2    S    
C2    C8    A    
C24   C28   A    
C3    C5    A    
C10   C13   S    
C51   I4    S    
O12   Zn3   S    
C27   H1    S    
C16   O7    A    
C26   C30   A    
C29   H23   S    
C44   H9    S    
C13   H31   S    
O2    Zn1   S    
C34   O11   A    
C3    N1    A    
N3    Zn1   S    
C19   C24   A    
C12   O9    A    
C29   C31   A    
C14   C37   S    
C30   C32   A    
N4    Zn2   S    
O5    Zn3   S    
O7    Zn4   S    
C13   H30   S    
C42   C47   S    
C37   C41   A    
C17   O8    A    
C11   H28   S    
C16   C39   S    
C47   H7    S    
C40   C44   S    
C1    C24   S    
C1    O1    A    
C45   H14   S    
C31   C36   A    
C33   C38   A    
C51   H17   S    
C50   H16   S    
C4    H19   S    
O1    Zn1   S    
