data_mof_unit_27284.cif
_audit_creation_date              2012-12-10T17:11:02-0500
_audit_creation_method            fapswitch 2.2
_symmetry_space_group_name_H-M    P1
_symmetry_Int_Tables_number       1
_space_group_crystal_system       triclinic
_cell_length_a                    11.630532
_cell_length_b                    13.016357
_cell_length_c                    13.489485
_cell_angle_alpha                 91.606257
_cell_angle_beta                  76.726894
_cell_angle_gamma                 99.623496
_cell_volume                      1959.49858019

loop_
_atom_site_label
_atom_site_type_symbol
_atom_type_description
_atom_site_fract_x
_atom_site_fract_y
_atom_site_fract_z
_atom_type_partial_charge
C1    C     C_R   0.520463 0.700522 0.502162 0.800358
C2    C     C_R   0.452570 0.478259 0.975233 0.061817
C3    C     C_R   0.486758 0.468573 0.868336 0.058167
C4    C     C_R   0.543369 0.492902 0.031747 0.036942
C5    C     C_R   0.665620 0.511318 0.980499 0.085970
C6    C     C_R   0.696272 0.475128 0.879555 0.072919
C7    C     C_R   0.605627 0.452840 0.826010 -0.174557
C8    C     C_R   0.516382 0.488881 0.137592 -0.279558
C9    C     C_R   0.721345 0.567631 0.140875 0.018086
C10   C     C_R   0.400970 0.473201 0.808141 -0.107739
C11   C     C_R   0.467089 0.185555 0.502254 -0.073233
C12   C     C_R   0.436576 0.487930 0.695927 0.834642
C13   C     C_R   0.530460 0.812809 0.509186 -0.043030
C14   C     C_R   0.616264 0.975102 0.573965 -0.214255
C15   C     C_R   0.612357 0.868800 0.560237 -0.189820
C16   C     C_R   0.454734 0.863685 0.468840 -0.265141
C17   C     C_R   0.459498 0.970784 0.480258 0.172156
C18   C     C_R   0.539865 0.027846 0.534538 0.096218
C19   C     C_R   0.539789 0.135268 0.549489 -0.056244
C20   C     C_R   0.388171 0.127556 0.449259 -0.230924
C21   C     C_R   0.383375 0.020801 0.439366 -0.213940
C22   C     C_R   0.952155 0.615260 0.578105 -0.040796
C23   C     C_R   0.478471 0.299111 0.501370 0.851472
C24   C     C_R   0.830080 0.598715 0.573208 0.050739
C25   C     C_R   0.854355 0.451692 0.467850 -0.015866
C26   C     C_R   0.975634 0.461787 0.471716 0.057388
C27   C     C_R   0.025275 0.543140 0.528460 0.014136
C28   C     C_R   0.147211 0.549575 0.532635 -0.002783
C29   C     C_R   0.168655 0.404129 0.424369 0.089263
C30   C     C_R   0.048340 0.392779 0.419093 -0.333410
C31   C     C_R   0.564594 0.509055 0.304229 0.804505
C32   C     C_R   0.751505 0.563483 0.032757 -0.020026
C33   C     C_R   0.604077 0.520294 0.192682 -0.082701
C34   C     C_R   0.280416 0.471747 0.856768 -0.227972
C35   C     C_R   0.244299 0.472454 0.962828 0.155352
C36   C     C_R   0.330401 0.479495 0.021156 -0.202999
Cu1   Cu    Cu3+1 0.386470 0.492430 0.492410 0.934915
Cu2   Cu    Cu3+1 0.613530 0.507570 0.507590 0.931540
H1    H     H_    0.331719 0.165297 0.413354 0.153630
H2    H     H_    0.679186 0.014541 0.615932 0.128215
H3    H     H_    0.321633 0.977569 0.397989 0.138579
H4    H     H_    0.671032 0.829822 0.592329 0.141755
H5    H     H_    0.391954 0.819803 0.428693 0.143670
H6    H     H_    0.188198 0.608286 0.577706 0.127234
H7    H     H_    0.224226 0.350656 0.383651 0.116253
H8    H     H_    0.012470 0.330504 0.374151 0.135930
H9    H     H_    0.770414 0.649881 0.611410 0.133601
H10   H     H_    0.815941 0.390486 0.423344 0.127596
H11   H     H_    0.427066 0.456612 0.178432 0.159014
H12   H     H_    0.214198 0.472254 0.811931 0.151818
H13   H     H_    0.299697 0.489626 0.102032 0.129933
H14   H     H_    0.629762 0.420028 0.752074 0.220683
N1    N     N_R   0.215880 0.481050 0.481000 -0.176040
N2    N     N_R   0.784100 0.518950 0.519000 -0.199743
O1    O     O_R   0.419710 0.645650 0.494620 -0.590538
O2    O     O_R   0.611450 0.658430 0.507430 -0.596266
O3    O     O_R   0.357340 0.490460 0.641450 -0.585183
O4    O     O_R   0.549080 0.503250 0.654260 -0.589850
O5    O     O_R   0.388550 0.341570 0.492570 -0.595669
O6    O     O_R   0.580290 0.354350 0.505380 -0.578475
O7    O     O_R   0.450920 0.496750 0.345740 -0.590789
O8    O     O_R   0.642660 0.509540 0.358550 -0.585184
C37   C     C_3   0.809459 0.627570 0.199248 -0.400324
C38   C     C_3   0.766823 0.727426 0.246221 -0.292151
C39   C     C_3   0.846563 0.779860 0.314865 -0.833055
H15   H     H_    0.844868 0.726569 0.378269 0.267112
H16   H     H_    0.940242 0.801772 0.270421 0.243813
H17   H     H_    0.813317 0.851441 0.347793 0.241174
H18   H     H_    0.768793 0.782557 0.184154 0.217786
H19   H     H_    0.673410 0.710369 0.291964 0.210902
H20   H     H_    0.825577 0.577054 0.257524 0.220738
H21   H     H_    0.900181 0.650901 0.151027 0.169190
C40   C     C_3   0.005706 0.708678 0.633197 -0.424972
C41   C     C_3   0.924852 0.791139 0.668472 -0.337740
C42   C     C_3   0.990677 0.884190 0.715732 -0.774309
H22   H     H_    0.019697 0.858688 0.782683 0.276480
H23   H     H_    0.070390 0.922389 0.658958 0.242011
H24   H     H_    0.929942 0.941920 0.741194 0.234057
H25   H     H_    0.896427 0.819426 0.602281 0.199438
H26   H     H_    0.844084 0.756917 0.726370 0.254535
H27   H     H_    0.031771 0.679756 0.700302 0.216559
H28   H     H_    0.088072 0.748523 0.580259 0.199163
C43   C     C_3   0.822011 0.454099 0.829850 -0.394698
C44   C     C_3   0.824322 0.346688 0.779566 -0.360384
C45   C     C_3   0.951564 0.321842 0.750733 -0.843630
H29   H     H_    0.011366 0.382702 0.698218 0.262339
H30   H     H_    0.987213 0.317510 0.819928 0.252742
H31   H     H_    0.951032 0.245505 0.711821 0.244705
H32   H     H_    0.766431 0.285219 0.832605 0.239908
H33   H     H_    0.791225 0.345419 0.708594 0.233372
H34   H     H_    0.866086 0.515640 0.771844 0.224775
H35   H     H_    0.876288 0.456433 0.887680 0.190343
C46   C     C_2   0.862755 0.627904 0.973808 0.301888
H36   H     H_    0.948859 0.625964 0.990857 0.055160
O9    O     O_2   0.858537 0.683778 0.904038 -0.564334
C47   C     C_3   0.114333 0.471733 0.014170 -0.428117
C48   C     C_3   0.059463 0.368862 0.071924 -0.332075
C49   C     C_3   0.928580 0.368389 0.125182 -0.861049
H37   H     H_    0.875464 0.380345 0.069002 0.255487
H38   H     H_    0.890606 0.292261 0.164395 0.242265
H39   H     H_    0.921675 0.430804 0.182944 0.248034
H40   H     H_    0.064821 0.303077 0.017556 0.225402
H41   H     H_    0.109887 0.356774 0.130202 0.213866
H42   H     H_    0.107310 0.538303 0.067514 0.190961
H43   H     H_    0.062196 0.482044 0.956717 0.181365
C50   C     C_2   0.608690 0.192792 0.619485 0.348898
H44   H     H_    0.703137 0.189659 0.610464 0.044154
O10   O     O_2   0.558494 0.242260 0.689597 -0.573554

loop_
_geom_bond_atom_site_label_1
_geom_bond_atom_site_label_2
_ccdc_geom_bond_type
C47   H43   S    
C46   H36   S    
C40   C41   S    
C14   C18   A    
C35   C36   A    
C4    C8    A    
C48   C49   S    
C35   C47   S    
C23   O5    A    
C43   H35   S    
C11   C19   A    
C26   C27   A    
C29   C30   A    
C50   O10   D    
C1    O2    A    
C7    H14   S    
C18   C19   A    
C3    C7    A    
C5    C6    A    
C50   H44   S    
C24   N2    A    
C34   C35   A    
C31   O7    A    
C9    C32   A    
Cu2   O4    S    
C16   C17   A    
C39   H16   S    
C31   C33   S    
C38   H19   S    
C48   H40   S    
C5    C32   A    
C12   O4    A    
C32   C46   S    
C46   O9    D    
C41   H26   S    
C9    C33   A    
C31   O8    A    
C44   H33   S    
C40   H27   S    
C45   H30   S    
C23   O6    A    
C11   C20   A    
C34   H12   S    
C41   C42   S    
C25   N2    A    
C20   H1    S    
C25   C26   A    
C45   H29   S    
C28   H6    S    
C17   C21   A    
C29   H7    S    
C2    C4    A    
C42   H22   S    
Cu1   Cu2   S    
C43   C44   S    
Cu2   N2    S    
C39   H17   S    
C47   C48   S    
C17   C18   A    
C10   C34   A    
Cu1   O5    S    
C38   H18   S    
C44   C45   S    
C42   H23   S    
C16   H5    S    
C48   H41   S    
C36   H13   S    
C10   C12   S    
C21   H3    S    
C12   O3    A    
C37   H20   S    
C26   C30   A    
C49   H38   S    
C41   H25   S    
C47   H42   S    
Cu2   O6    S    
C1    C13   S    
C44   H32   S    
C40   H28   S    
C45   H31   S    
C2    C36   A    
C6    C43   S    
C9    C37   S    
C24   H9    S    
C30   H8    S    
C15   H4    S    
C4    C5    A    
Cu1   O7    S    
C28   N1    A    
C6    C7    A    
C49   H39   S    
C43   H34   S    
C22   C27   A    
C38   C39   S    
C13   C15   A    
C2    C3    A    
C1    O1    A    
Cu1   N1    S    
C3    C10   A    
C29   N1    A    
C11   C23   S    
C37   H21   S    
C22   C24   A    
C8    C33   A    
C39   H15   S    
C42   H24   S    
C14   H2    S    
C37   C38   S    
Cu1   O1    S    
C19   C50   S    
Cu2   O2    S    
C20   C21   A    
C49   H37   S    
C13   C16   A    
C27   C28   A    
C14   C15   A    
C22   C40   S    
C25   H10   S    
C8    H11   S    
Cu1   O3    S    
Cu2   O8    S    
