data_mof_unit_15963.cif
_audit_creation_date              2012-12-11T18:13:36-0500
_audit_creation_method            fapswitch 2.2
_symmetry_space_group_name_H-M    P1
_symmetry_Int_Tables_number       1
_space_group_crystal_system       triclinic
_cell_length_a                    8.354426
_cell_length_b                    13.27848
_cell_length_c                    18.711097
_cell_angle_alpha                 99.105421
_cell_angle_beta                  92.581982
_cell_angle_gamma                 98.528431
_cell_volume                      2021.88321435

loop_
_atom_site_label
_atom_site_type_symbol
_atom_type_description
_atom_site_fract_x
_atom_site_fract_y
_atom_site_fract_z
_atom_type_partial_charge
Ba1   Ba    Ba6+2 0.852780 0.548340 0.465070 1.672788
Ba2   Ba    Ba6+2 0.337060 0.451750 0.534940 1.658563
C1    C     C_3   0.664883 0.886771 0.233512 -0.122611
C2    C     C_3   0.658448 0.803575 0.283038 0.297362
C3    C     C_3   0.419496 0.262615 0.308066 0.457198
C4    C     C_3   0.274346 0.194853 0.262383 -0.311339
C5    C     C_3   0.070234 0.247899 0.735230 0.364259
C6    C     C_3   0.098578 0.225614 0.811709 -0.352746
C7    C     C_3   0.576897 0.188893 0.702326 0.351704
C8    C     C_3   0.643689 0.124535 0.753405 -0.417162
C9    C     C_R   0.015661 0.416920 0.040269 0.005018
C10   C     C_R   0.917516 0.363111 0.085900 0.035707
C11   C     C_R   0.764621 0.309587 0.057901 -0.073635
C12   C     C_3   0.069050 0.762680 0.252375 0.381663
C13   C     C_R   0.703916 0.316917 0.988530 -0.088604
C14   C     C_R   0.797681 0.374701 0.944391 0.034153
C15   C     C_R   0.955696 0.423193 0.969307 0.012292
C16   C     C_R   0.735032 0.383768 0.875693 -0.136516
C17   C     C_R   0.829734 0.436600 0.828565 -0.058301
C18   C     C_R   0.989057 0.486453 0.853094 -0.000297
C19   C     C_R   0.051061 0.480510 0.924340 -0.003649
C20   C     C_R   0.768494 0.441093 0.757740 -0.015180
C21   C     C_R   0.869746 0.488637 0.710414 -0.270089
C22   C     C_R   0.027637 0.540312 0.732967 0.026153
C23   C     C_3   0.018133 0.805966 0.184506 -0.330033
C24   C     C_R   0.085600 0.542408 0.807078 -0.044869
C25   C     C_R   0.173213 0.464363 0.065655 -0.001433
C26   C     C_R   0.228337 0.464404 0.138732 0.016609
C27   C     C_R   0.121273 0.424311 0.188158 -0.047693
C28   C     C_R   0.971448 0.366417 0.158997 -0.059279
C29   C     C_R   0.236046 0.599030 0.837091 -0.043642
C30   C     C_R   0.300274 0.593702 0.908170 0.017029
C31   C     C_R   0.208207 0.530788 0.950635 -0.008504
C32   C     C_R   0.271573 0.519081 0.020037 -0.006489
C33   C     C_R   0.454162 0.650173 0.937844 0.052990
C34   C     C_3   0.306063 0.793469 0.659272 0.443920
C35   C     C_R   0.520852 0.634611 0.006269 0.059549
C36   C     C_R   0.431688 0.564050 0.045146 0.001116
C37   C     C_R   0.389101 0.508781 0.162650 -0.014380
C38   C     C_R   0.494149 0.542960 0.111734 -0.099623
C39   C     C_R   0.435186 0.528907 0.237816 0.049036
C40   C     C_R   0.323860 0.498645 0.287335 -0.271610
C41   C     C_R   0.168646 0.444136 0.264428 0.026321
C42   C     C_R   0.756550 0.173293 0.522540 -0.264502
C43   C     C_R   0.424433 0.809087 0.470493 -0.247745
C44   C     C_R   0.386753 0.974822 0.438484 0.010942
C45   C     C_3   0.422709 0.846455 0.723828 -0.332917
C46   C     C_R   0.328904 0.870024 0.438355 0.030913
C47   C     C_R   0.575426 0.849527 0.507897 0.039394
C48   C     C_R   0.637694 0.959024 0.511264 -0.044819
C49   C     C_R   0.542402 0.023793 0.476251 -0.006491
C50   C     C_R   0.608008 0.133622 0.483297 0.031485
C51   C     C_R   0.855517 0.111843 0.550600 -0.028424
C52   C     C_R   0.793112 0.005435 0.547378 -0.114291
C53   C     C_3   0.883907 0.228049 0.366495 0.309209
C54   C     C_3   0.813807 0.122332 0.326674 -0.373208
C55   C     C_3   0.802843 0.737063 0.681801 0.332740
C56   C     C_3   0.885372 0.808374 0.749549 -0.360012
H1    H     H_    0.749858 0.830619 0.329494 0.101178
H2    H     H_    0.481970 0.788151 0.747555 0.100043
H3    H     H_    0.516147 0.903773 0.706052 0.116296
H4    H     H_    0.356767 0.888745 0.766703 0.116351
H5    H     H_    0.788251 0.276491 0.370384 0.107919
H6    H     H_    0.933438 0.227156 0.421788 -0.028623
H7    H     H_    0.744787 0.133572 0.277634 0.208557
H8    H     H_    0.737631 0.076311 0.360529 0.095119
H9    H     H_    0.911982 0.080947 0.306186 0.111347
H10   H     H_    0.895791 0.714319 0.645479 0.096995
H11   H     H_    0.736123 0.665422 0.695708 -0.039569
H12   H     H_    0.784077 0.936813 0.242319 0.097503
H13   H     H_    0.959048 0.876952 0.733868 0.163802
H14   H     H_    0.965603 0.767773 0.779643 0.080351
H15   H     H_    0.793138 0.835672 0.785753 0.104504
H16   H     H_    0.542781 0.788699 0.307506 -0.027850
H17   H     H_    0.381978 0.328493 0.343980 0.013826
H18   H     H_    0.193762 0.148506 0.294583 0.127107
H19   H     H_    0.204153 0.244094 0.235254 0.084552
H20   H     H_    0.312326 0.141072 0.217165 0.173415
H21   H     H_    0.651168 0.849520 0.175857 0.122077
H22   H     H_    0.029877 0.753721 0.133448 0.074463
H23   H     H_    0.164840 0.312502 0.727342 0.103842
H24   H     H_    0.948318 0.270288 0.729050 -0.063310
H25   H     H_    0.224673 0.210013 0.820245 0.148909
H26   H     H_    0.081226 0.292643 0.852330 0.074091
H27   H     H_    0.012026 0.156984 0.820128 0.115498
H28   H     H_    0.679881 0.224146 0.674138 -0.058603
H29   H     H_    0.491587 0.136941 0.660424 0.103390
H30   H     H_    0.726877 0.175332 0.796495 0.113526
H31   H     H_    0.711645 0.068019 0.722959 0.096221
H32   H     H_    0.994138 0.686497 0.251967 0.111419
H33   H     H_    0.542975 0.082782 0.779111 0.131379
H34   H     H_    0.690696 0.262339 0.089439 0.123819
H35   H     H_    0.583237 0.277137 0.969321 0.079589
H36   H     H_    0.822631 0.488268 0.655535 0.068685
H37   H     H_    0.611194 0.348511 0.860008 0.112380
H38   H     H_    0.896347 0.324660 0.193116 0.124314
H39   H     H_    0.302572 0.647248 0.804141 0.088773
H40   H     H_    0.621969 0.562150 0.127153 0.115688
H41   H     H_    0.360712 0.515727 0.344730 0.070201
H42   H     H_    0.866233 0.959669 0.573657 0.138839
H43   H     H_    0.800426 0.255393 0.529114 0.042420
H44   H     H_    0.376011 0.728574 0.469234 0.066778
H45   H     H_    0.891530 0.811472 0.181090 0.130585
H46   H     H_    0.088291 0.883940 0.184173 0.142302
H47   H     H_    0.364856 0.744682 0.617839 0.020446
O1    O     O_2   0.873090 0.425890 0.325140 -0.441397
O2    O     O_3   0.693689 0.789693 0.650094 -0.655678
O3    O     O_3   0.039889 0.833181 0.313855 -0.625903
O4    O     O_2   0.316610 0.574140 0.674900 -0.478065
O5    O     O_3   0.067290 0.565720 0.585630 -0.480011
O6    O     O_3   0.530210 0.372990 0.631200 -0.451600
O7    O     O_3   0.171391 0.740012 0.685548 -0.658603
O8    O     O_3   0.611340 0.366290 0.463630 -0.477635
O9    O     O_3   0.108550 0.314140 0.595200 -0.484069
O10   O     O_2   0.209080 0.137597 0.566390 -0.446596
O11   O     O_3   0.080459 0.158020 0.686356 -0.571414
O12   O     O_3   0.122420 0.434370 0.414380 -0.477187
O13   O     O_3   0.578370 0.633800 0.536380 -0.486076
O14   O     O_2   0.341510 0.231850 0.465510 -0.471707
O15   O     O_3   0.510613 0.203438 0.344699 -0.645773
O16   O     O_2   0.427876 0.448896 0.755027 -0.496722
O17   O     O_3   0.490931 0.260051 0.742059 -0.596595
O18   O     O_3   0.659500 0.627100 0.368810 -0.472301
O19   O     O_2   0.769004 0.537826 0.249386 -0.453353
O20   O     O_3   0.007561 0.262551 0.325732 -0.654305
O21   O     O_3   0.697077 0.714358 0.240344 -0.644930
O22   O     O_2   0.848200 0.768190 0.534530 -0.440185
O23   O     O_3   0.081160 0.685950 0.404810 -0.467347
O24   O     O_2   0.994926 0.853669 0.449981 -0.453238
P1    P     P_3+3 0.041040 0.394770 0.336330 0.982033
P2    P     P_3+3 0.672880 0.754030 0.556100 0.971012
P3    P     P_3+3 0.117194 0.811351 0.399127 0.945649
P4    P     P_3+3 0.148670 0.605320 0.663680 0.958568
P5    P     P_3+3 0.059587 0.180353 0.596934 0.973108
P6    P     P_3+3 0.636023 0.601414 0.274971 0.958554
P7    P     P_3+3 0.519811 0.234274 0.440658 0.925778
P8    P     P_3+3 0.556033 0.384359 0.723888 0.951875
I1    I     I_    0.483884 0.981020 0.229936 -0.654904
I2    I     I_    0.567581 0.310008 0.228279 -0.523805
C57   C     C_3   0.554383 0.718349 0.892725 -0.214643
C58   C     C_3   0.632625 0.650861 0.835570 -0.391558
H48   H     H_    0.622033 0.571276 0.847279 0.146586
H49   H     H_    0.571723 0.647866 0.781514 0.143716
H50   H     H_    0.764109 0.679133 0.836297 0.096208
H51   H     H_    0.478479 0.767716 0.868607 0.083259
H52   H     H_    0.651567 0.775657 0.923680 0.116015
C59   C     C_3   0.680245 0.699990 0.040263 -0.212228
C60   C     C_3   0.828377 0.657273 0.010550 -0.413258
H53   H     H_    0.800464 0.610969 0.955593 0.148636
H54   H     H_    0.927583 0.721786 0.007436 0.122857
H55   H     H_    0.871901 0.607440 0.047022 0.131605
H56   H     H_    0.684363 0.782026 0.034546 0.102044
H57   H     H_    0.690337 0.707498 0.099660 0.121240
C61   C     C_3   0.246683 0.748773 0.250775 -0.205582
C62   C     C_3   0.308517 0.728520 0.174711 -0.452032
H58   H     H_    0.229966 0.662310 0.141415 0.123935
H59   H     H_    0.309535 0.795071 0.145797 0.176336
H60   H     H_    0.433717 0.714218 0.178261 0.158383
H61   H     H_    0.315819 0.819425 0.281267 0.125568
H62   H     H_    0.266080 0.685523 0.280216 0.031129
C63   C     C_3   0.279198 0.021203 0.389367 -0.201105
C64   C     C_3   0.118282 0.045576 0.417919 -0.303012
H63   H     H_    0.015000 0.001581 0.381960 0.121773
H64   H     H_    0.101590 0.023294 0.471128 0.180606
H65   H     H_    0.108214 0.127075 0.420813 0.128769
H66   H     H_    0.338220 0.082896 0.369286 0.166653
H67   H     H_    0.253444 0.970286 0.336684 0.124819
I3    I     I_    0.218101 0.913819 0.614199 -0.482459

loop_
_geom_bond_atom_site_label_1
_geom_bond_atom_site_label_2
_ccdc_geom_bond_type
C22   P4    S    
C53   C54   S    
Ba2   O4    S    
C62   H59   S    
C6    H25   S    
C39   C40   A    
C17   C18   A    
Ba1   O23   S    
O7    P4    S    
C1    H21   S    
C45   H4    S    
C63   C64   S    
Ba2   O13   S    
C5    C6    S    
C37   C39   A    
C51   C52   A    
C10   C11   A    
C47   P2    S    
C20   P8    S    
C8    H30   S    
O21   P6    S    
C35   C36   A    
C26   C27   A    
C33   C35   A    
C60   H54   S    
C16   C17   A    
C58   H49   S    
C38   H40   S    
C3    C4    S    
C7    H28   S    
Ba2   O8    S    
C56   H13   S    
C4    H20   S    
O11   P5    S    
C54   H7    S    
C23   H22   S    
C9    C10   A    
C34   I3    S    
C35   C59   S    
C34   C45   S    
C6    H27   S    
O16   P8    D    
C12   H32   S    
C28   H38   S    
O13   P2    S    
C45   H2    S    
O20   P1    S    
Ba2   O5    S    
C59   C60   S    
C8    H31   S    
C14   C15   A    
O8    P7    S    
C53   H5    S    
C34   O7    S    
C21   C22   A    
C60   H55   S    
C9    C25   A    
C7    C8    S    
C2    H16   S    
C63   H66   S    
Ba1   O1    S    
O24   P3    D    
C10   C28   A    
C42   C50   A    
C12   O3    S    
C24   C29   A    
C6    H26   S    
C12   C61   S    
C62   H60   S    
C16   H37   S    
C52   H42   S    
Ba1   O8    S    
O23   P3    S    
Ba2   O12   S    
C3    I2    S    
C64   H64   S    
C25   C32   A    
O9    P5    S    
C44   C46   A    
Ba2   O6    S    
Ba2   P4    S    
C3    O15   S    
O4    P4    D    
C49   C50   A    
C30   C33   A    
C53   O20   S    
C45   H3    S    
C1    H12   S    
C57   C58   S    
O2    P2    S    
Ba1   P1    S    
C58   H50   S    
C57   H52   S    
C37   C38   A    
C23   H45   S    
C4    H19   S    
C26   C37   A    
C44   C49   A    
C44   C63   S    
C15   C19   A    
O18   P6    S    
O15   P7    S    
C5    O11   S    
C3    H17   S    
Ba1   O18   S    
C61   H62   S    
C27   C28   A    
C33   C57   S    
C64   H65   S    
C29   C30   A    
C43   C47   A    
Ba2   O14   S    
C53   H6    S    
C17   C20   A    
C48   C49   A    
C42   C51   A    
C1    I1    S    
Ba1   O12   S    
C60   H53   S    
O12   P1    S    
C61   C62   S    
C63   H67   S    
C5    H23   S    
C8    H33   S    
C11   C13   A    
C11   H34   S    
C50   P7    S    
C40   C41   A    
C55   H10   S    
C7    O17   S    
C1    C2    S    
C39   P6    S    
O6    P8    S    
C64   H63   S    
C43   C46   A    
O1    P1    D    
C9    C15   A    
O19   P6    D    
C55   O2    S    
C34   H47   S    
C32   C36   A    
C41   P1    S    
C51   P5    S    
Ba1   O22   S    
O17   P8    S    
C22   C24   A    
Ba1   P2    S    
C57   H51   S    
C13   H35   S    
C42   H43   S    
C23   H46   S    
C4    H18   S    
O10   P5    D    
C54   H9    S    
O14   P7    D    
C21   H36   S    
C2    O21   S    
C30   C31   A    
C59   H56   S    
C61   H61   S    
C48   C52   A    
C58   H48   S    
C7    H29   S    
C36   C38   A    
Ba2   O9    S    
C56   H14   S    
C55   C56   S    
C18   C24   A    
C54   H8    S    
Ba1   Ba2   S    
C2    H1    S    
C31   C32   A    
Ba1   O13   S    
C29   H39   S    
C12   C23   S    
C59   H57   S    
O22   P2    D    
O3    P3    S    
Ba1   O5    S    
C43   H44   S    
C5    H24   S    
C19   C31   A    
C18   C19   A    
C14   C16   A    
C47   C48   A    
C62   H58   S    
C20   C21   A    
C46   P3    S    
O5    P4    S    
C55   H11   S    
C40   H41   S    
C27   C41   A    
C13   C14   A    
C56   H15   S    
C25   C26   A    
