data_mof_unit_68553.cif
_audit_creation_date              2012-12-10T20:52:10-0500
_audit_creation_method            fapswitch 2.2
_symmetry_space_group_name_H-M    P1
_symmetry_Int_Tables_number       1
_space_group_crystal_system       triclinic
_cell_length_a                    10.85429
_cell_length_b                    9.097662
_cell_length_c                    8.234476
_cell_angle_alpha                 92.238602
_cell_angle_beta                  92.364916
_cell_angle_gamma                 92.988915
_cell_volume                      810.653312724

loop_
_atom_site_label
_atom_site_type_symbol
_atom_type_description
_atom_site_fract_x
_atom_site_fract_y
_atom_site_fract_z
_atom_type_partial_charge
C1    C     C_R   0.500045 0.218144 0.497848 0.928651
C2    C     C_R   0.501353 0.781922 0.501985 0.902522
C3    C     C_R   0.873520 0.489392 0.512673 -0.197992
C4    C     C_R   0.126641 0.513759 0.489302 -0.289046
C5    C     C_R   0.947210 0.564373 0.637953 -0.086670
C6    C     C_R   0.052138 0.449862 0.357765 -0.143161
C7    C     C_1   0.501741 0.064937 0.496635 -0.199828
C8    C     C_1   0.502293 0.935275 0.502252 -0.206836
C9    C     C_R   0.259474 0.501462 0.496488 0.875434
C10   C     C_R   0.740414 0.496952 0.504136 0.919995
C11   C     C_R   0.222748 0.486488 0.969215 -0.071416
C12   C     C_R   0.789742 0.537318 0.034171 -0.222252
C13   C     C_R   0.150638 0.528922 0.096954 0.530358
C14   C     C_R   0.847236 0.494626 0.892410 0.501067
C15   C     C_R   0.104286 0.417201 0.198273 0.039925
C16   C     C_R   0.898070 0.605436 0.796449 0.151483
C17   C     C_R   0.117075 0.269307 0.152870 -0.220282
C18   C     C_R   0.904180 0.753162 0.853835 -0.107549
C19   C     C_R   0.181289 0.229626 0.016713 -0.140190
C20   C     C_R   0.859159 0.790115 0.005289 -0.150643
C21   C     C_R   0.238272 0.338184 0.928701 -0.168473
C22   C     C_R   0.797241 0.683743 0.092161 -0.153858
C23   C     C_R   0.926602 0.421500 0.380586 0.418246
C24   C     C_R   0.072508 0.587974 0.618300 0.393807
H1    H     H_    0.293826 0.305970 0.828942 0.191362
H2    H     H_    0.756882 0.715299 0.205277 0.172701
H3    H     H_    0.269196 0.571576 0.904404 0.212469
H4    H     H_    0.739520 0.455424 0.098114 0.214792
H5    H     H_    0.073529 0.186113 0.223293 0.173819
H6    H     H_    0.946458 0.838715 0.783424 0.157391
H7    H     H_    0.189631 0.115301 0.980675 0.150441
H8    H     H_    0.871638 0.900977 0.055913 0.138585
N1    N     N_1   0.500020 0.500030 0.073640 -0.072987
N2    N     N_1   0.499980 0.499970 0.926360 -0.099419
O1    O     O_R   0.499990 0.285340 0.636850 -0.661055
O2    O     O_R   0.500010 0.714660 0.363150 -0.623462
O3    O     O_R   0.500010 0.285350 0.363100 -0.594220
O4    O     O_R   0.499990 0.714650 0.636900 -0.614006
O5    O     O_R   0.316750 0.500000 0.636870 -0.630101
O6    O     O_R   0.683250 0.500000 0.363130 -0.603753
O7    O     O_R   0.316770 0.500020 0.363120 -0.638586
O8    O     O_R   0.683230 0.499980 0.636880 -0.665289
Zn1   Zn    Zn3+2 0.499990 0.499990 0.682780 0.927361
Zn2   Zn    Zn3+2 0.500010 0.500010 0.317220 0.963637
O9    O     O_3   0.114545 0.673804 0.099210 -0.629818
C25   C     C_3   0.141207 0.749327 0.249900 0.064791
H9    H     H_    0.226688 0.715184 0.309602 0.160664
H10   H     H_    0.059559 0.737989 0.326164 0.162635
C26   C     C_3   0.167418 0.911559 0.227549 -0.342123
H11   H     H_    0.252306 0.927054 0.157667 0.233238
H12   H     H_    0.088040 0.953092 0.157782 0.220952
C27   C     C_3   0.186628 0.993338 0.394039 -0.963638
H13   H     H_    0.096293 0.006635 0.450060 0.269622
H14   H     H_    0.233256 0.103387 0.381114 0.271801
H15   H     H_    0.245813 0.932270 0.477891 0.254291
O10   O     O_3   0.863201 0.346570 0.852561 -0.670901
C28   C     C_3   0.748677 0.264383 0.827977 0.138000
H16   H     H_    0.732156 0.241405 0.695355 0.171130
H17   H     H_    0.668352 0.321690 0.873106 0.168449
C29   C     C_3   0.753716 0.115765 0.906427 -0.408254
H18   H     H_    0.801005 0.039307 0.824503 0.211489
H19   H     H_    0.806942 0.128094 0.023518 0.243082
C30   C     C_3   0.624979 0.049976 0.938744 -0.873740
H20   H     H_    0.579008 0.122005 0.027135 0.272347
H21   H     H_    0.632075 0.939863 0.990662 0.268007
H22   H     H_    0.567377 0.037460 0.824510 0.273101
O11   O     O_3   0.853929 0.320167 0.285160 -0.793375
H23   H     H_    0.892690 0.301646 0.181366 0.342548
O12   O     O_3   0.137994 0.690750 0.720574 -0.771225
H24   H     H_    0.209977 0.731645 0.663791 0.323952

loop_
_geom_bond_atom_site_label_1
_geom_bond_atom_site_label_2
_ccdc_geom_bond_type
C14   O10   S    
C30   H21   S    
C18   H6    S    
C11   H3    S    
C10   O8    A    
C17   H5    S    
C2    O4    A    
O6    Zn2   S    
C3    C23   A    
C27   H15   S    
C1    O3    A    
C3    C5    A    
C26   C27   S    
C19   H7    S    
C2    O2    A    
O3    Zn2   S    
N1    N2    T    
C6    C15   S    
C30   H22   S    
C27   H14   S    
O4    Zn1   S    
C3    C10   S    
O9    C25   S    
O10   C28   S    
C13   O9    S    
C11   C13   A    
C25   C26   S    
C9    O5    A    
C28   H16   S    
C5    C24   A    
C12   H4    S    
C29   C30   S    
C6    C23   A    
C4    C6    A    
C19   C21   A    
C12   C14   A    
C24   O12   S    
C18   C20   A    
C13   C15   A    
C20   H8    S    
O12   H24   S    
C4    C24   A    
O7    Zn2   S    
C14   C16   A    
C28   H17   S    
O2    Zn2   S    
O8    Zn1   S    
C10   O6    A    
C30   H20   S    
C25   H10   S    
C12   C22   A    
C7    C8    T    
O1    Zn1   S    
C27   H13   S    
C1    O1    A    
C29   H19   S    
C26   H11   S    
C22   H2    S    
C26   H12   S    
C23   O11   S    
C15   C17   A    
C21   H1    S    
C25   H9    S    
C5    C16   S    
O5    Zn1   S    
C17   C19   A    
C4    C9    S    
C1    C7    S    
N1    Zn2   S    
C9    O7    A    
C11   C21   A    
C16   C18   A    
C2    C8    S    
N2    Zn1   S    
O11   H23   S    
C20   C22   A    
C29   H18   S    
C28   C29   S    
