data_mof_unit_7563.cif
_audit_creation_date              2012-12-11T15:21:09-0500
_audit_creation_method            fapswitch 2.2
_symmetry_space_group_name_H-M    P1
_symmetry_Int_Tables_number       1
_space_group_crystal_system       triclinic
_cell_length_a                    18.342444
_cell_length_b                    18.341077
_cell_length_c                    51.423612
_cell_angle_alpha                 90.082026
_cell_angle_beta                  90.086378
_cell_angle_gamma                 120.00864
_cell_volume                      14980.8188263

loop_
_atom_site_label
_atom_site_type_symbol
_atom_type_description
_atom_site_fract_x
_atom_site_fract_y
_atom_site_fract_z
_atom_type_partial_charge
C1    C     C_R   0.409353 0.584050 0.287458 0.575211
C2    C     C_R   0.627305 0.520016 0.852785 0.303844
C3    C     C_R   0.395190 0.874798 0.090698 0.471722
C4    C     C_R   0.491891 0.029089 0.399761 0.439983
C5    C     C_R   0.498050 0.019156 0.099376 0.437835
C6    C     C_R   0.507089 0.925563 0.352610 -0.096852
C7    C     C_R   0.507257 0.919740 0.147268 -0.092287
C8    C     C_R   0.501470 0.896001 0.327262 -0.143357
C9    C     C_R   0.501523 0.893189 0.172903 -0.139166
C10   C     C_R   0.360847 0.875994 0.323504 -0.138601
C11   C     C_R   0.359831 0.870965 0.175459 -0.141124
C12   C     C_R   0.366099 0.905518 0.349087 0.300945
C13   C     C_R   0.563262 0.464708 0.632705 0.283620
C14   C     C_R   0.365293 0.897731 0.149551 0.301564
C15   C     C_R   0.439011 0.928463 0.363802 0.283531
C16   C     C_R   0.438877 0.920243 0.135326 0.283294
C17   C     C_R   0.451135 0.982287 0.444388 -0.045224
C18   C     C_R   0.458266 0.972454 0.054644 -0.043994
C19   C     C_R   0.399434 0.899439 0.435101 0.036332
C20   C     C_R   0.401942 0.890756 0.063828 0.037162
C21   C     C_R   0.353567 0.834491 0.452774 -0.098791
C22   C     C_R   0.353968 0.826588 0.046029 -0.117152
C23   C     C_R   0.133415 0.543136 0.409992 0.450247
C24   C     C_R   0.545780 0.479930 0.863352 0.283894
C25   C     C_R   0.148384 0.541044 0.088856 0.431163
C26   C     C_R   0.497400 0.047493 0.426561 -0.003390
C27   C     C_R   0.506850 0.036849 0.072576 -0.002074
C28   C     C_R   0.427426 0.868792 0.312694 -0.021113
C29   C     C_R   0.426955 0.866371 0.187036 -0.020193
C30   C     C_R   0.563412 0.137136 0.686305 -0.027943
C31   C     C_R   0.563131 0.134650 0.813273 -0.028467
C32   C     C_R   0.427742 0.947542 0.516429 0.020751
C33   C     C_R   0.432962 0.938246 0.982504 0.020413
C34   C     C_R   0.504825 0.100046 0.507799 0.038791
C35   C     C_R   0.586990 0.497299 0.479674 0.065514
C36   C     C_R   0.520683 0.090113 0.991508 0.040599
C37   C     C_R   0.470557 0.031789 0.525590 0.024249
C38   C     C_R   0.480515 0.022382 0.973561 0.023436
C39   C     C_R   0.399904 0.881630 0.534785 -0.133506
C40   C     C_R   0.399627 0.872426 0.963923 -0.134386
C41   C     C_R   0.411410 0.898111 0.561302 -0.103032
C42   C     C_R   0.409502 0.889143 0.937420 -0.104397
C43   C     C_R   0.450489 0.980877 0.570641 0.034123
C44   C     C_R   0.452596 0.972093 0.928336 0.033543
C45   C     C_R   0.479081 0.047985 0.552821 -0.030333
C46   C     C_R   0.483295 0.581483 0.007957 0.067134
C47   C     C_R   0.487625 0.039057 0.946394 -0.030071
C48   C     C_R   0.113097 0.606055 0.355934 -0.068331
C49   C     C_R   0.127157 0.606294 0.142319 -0.063912
C50   C     C_R   0.516433 0.131285 0.562185 0.025956
C51   C     C_R   0.529875 0.122714 0.937330 0.023270
C52   C     C_R   0.527696 0.146547 0.589118 0.475533
C53   C     C_R   0.538410 0.138238 0.910448 0.477394
C54   C     C_R   0.463303 0.998194 0.597444 0.435713
C55   C     C_R   0.463130 0.989666 0.901539 0.436096
C56   C     C_R   0.459584 0.080873 0.651470 -0.039297
C57   C     C_R   0.517098 0.502318 0.469886 -0.034699
C58   C     C_R   0.461263 0.078494 0.848472 -0.034571
C59   C     C_R   0.478344 0.099042 0.677897 0.211460
C60   C     C_R   0.478921 0.099357 0.822170 0.214210
C61   C     C_R   0.626142 0.150176 0.668163 -0.162666
C62   C     C_R   0.625565 0.141304 0.830658 -0.161441
C63   C     C_R   0.606603 0.130704 0.641772 0.293394
C64   C     C_R   0.606986 0.118731 0.856837 0.292328
C65   C     C_R   0.523138 0.097515 0.633426 0.229757
C66   C     C_R   0.524871 0.089193 0.865801 0.230637
C67   C     C_R   0.414885 0.931821 0.489311 0.023268
C68   C     C_R   0.496054 0.528445 0.025240 -0.033827
C69   C     C_R   0.420384 0.922620 0.009616 0.026885
C70   C     C_R   0.457221 0.999538 0.471530 -0.005568
C71   C     C_R   0.466441 0.989471 0.027515 -0.003641
C72   C     C_R   0.137459 0.624869 0.330147 -0.156711
C73   C     C_R   0.146696 0.625665 0.168478 -0.159928
C74   C     C_R   0.506489 0.083834 0.480700 0.056886
C75   C     C_R   0.521222 0.072761 0.018500 0.060089
C76   C     C_R   0.361137 0.850178 0.479319 -0.128319
C77   C     C_R   0.362766 0.842094 0.019494 -0.142788
C78   C     C_R   0.550665 0.129053 0.435832 -0.093709
C79   C     C_R   0.457368 0.502668 0.487189 0.008519
C80   C     C_R   0.565811 0.116639 0.063450 -0.090704
C81   C     C_R   0.533767 0.181848 0.517841 -0.111841
C82   C     C_R   0.556093 0.172992 0.981804 -0.115075
C83   C     C_R   0.540793 0.197272 0.544469 -0.136155
C84   C     C_R   0.561990 0.188978 0.955283 -0.152874
C85   C     C_R   0.557776 0.147762 0.462524 0.230664
C86   C     C_R   0.575963 0.134643 0.036771 0.230663
C87   C     C_R   0.562162 0.527276 0.398684 0.419754
C88   C     C_R   0.468027 0.604938 0.089622 0.431399
C89   C     C_R   0.427340 0.515523 0.405894 0.461287
C90   C     C_R   0.509737 0.464295 0.015317 0.008702
C91   C     C_R   0.514465 0.505192 0.096886 0.449736
C92   C     C_R   0.442163 0.476202 0.345513 -0.080664
C93   C     C_R   0.413604 0.492918 0.146344 -0.081888
C94   C     C_R   0.420301 0.487964 0.320262 0.226449
C95   C     C_R   0.393330 0.496089 0.172498 0.224293
C96   C     C_R   0.098130 0.478577 0.322171 0.228078
C97   C     C_R   0.100833 0.478524 0.177595 0.231041
C98   C     C_R   0.491561 0.638823 0.328400 -0.116922
C99   C     C_R   0.505829 0.642285 0.174278 -0.119544
C100  C     C_R   0.512932 0.627206 0.353533 0.289260
C101  C     C_R   0.652250 0.509967 0.462113 0.229268
C102  C     C_R   0.526998 0.638506 0.148399 0.291845
C103  C     C_R   0.485912 0.544546 0.362390 0.194782
C104  C     C_R   0.478100 0.563709 0.133977 0.190649
C105  C     C_R   0.506903 0.507834 0.442710 -0.091376
C106  C     C_R   0.494997 0.539348 0.052551 -0.090794
C107  C     C_R   0.570524 0.516923 0.425468 -0.001173
C108  C     C_R   0.472024 0.596561 0.062550 -0.001329
C109  C     C_R   0.642494 0.518479 0.435357 -0.092411
C110  C     C_R   0.450274 0.641950 0.045385 -0.099727
C111  C     C_R   0.433223 0.504626 0.432848 0.071183
C112  C     C_R   0.408341 0.584420 0.212160 0.570328
C113  C     C_R   0.454308 0.634338 0.018319 0.223307
C114  C     C_R   0.516577 0.492868 0.069789 0.071572
C115  C     C_R   0.442905 0.569929 0.311956 0.005147
C116  C     C_R   0.437918 0.572728 0.186417 -0.000078
C117  C     C_R   0.573968 0.434618 0.685889 -0.020393
C118  C     C_R   0.570414 0.441048 0.812369 -0.018673
C119  C     C_R   0.589186 0.481663 0.506782 0.041626
C120  C     C_R   0.499390 0.578507 0.980968 0.040708
C121  C     C_R   0.075330 0.461077 0.348409 0.025734
C122  C     C_R   0.082811 0.460389 0.151093 0.016470
C123  C     C_R   0.474405 0.511902 0.514294 0.059877
C124  C     C_R   0.367455 0.489874 0.450125 0.249434
C125  C     C_R   0.500935 0.446799 0.988223 0.062088
C126  C     C_R   0.536467 0.494693 0.524098 -0.017679
C127  C     C_R   0.503987 0.508652 0.971086 -0.016873
C128  C     C_R   0.640124 0.451130 0.517209 -0.098458
C129  C     C_R   0.514817 0.644476 0.963678 -0.091779
C130  C     C_R   0.646263 0.443207 0.543930 -0.131881
C131  C     C_R   0.526747 0.638329 0.937203 -0.116284
C132  C     C_R   0.600567 0.463940 0.561296 0.033771
C133  C     C_R   0.524439 0.566366 0.926962 0.033508
C134  C     C_R   0.545316 0.489654 0.551369 -0.046727
C135  C     C_R   0.539921 0.435925 0.059494 0.253974
C136  C     C_R   0.512553 0.501015 0.943944 -0.046600
C137  C     C_R   0.498555 0.509867 0.568653 -0.002712
C138  C     C_R   0.509920 0.428343 0.933877 -0.000468
C139  C     C_R   0.507621 0.504230 0.595627 0.470669
C140  C     C_R   0.520545 0.422433 0.907041 0.440434
C141  C     C_R   0.606833 0.457087 0.588387 0.442055
C142  C     C_R   0.535385 0.558780 0.900171 0.465422
C143  C     C_R   0.637030 0.516313 0.646768 -0.108909
C144  C     C_R   0.476890 0.424417 0.848076 -0.106078
C145  C     C_R   0.432899 0.539109 0.531843 0.228953
C146  C     C_R   0.488358 0.369725 0.977637 0.219763
C147  C     C_R   0.034810 0.489865 0.446063 -0.031821
C148  C     C_R   0.050875 0.480860 0.052498 -0.030241
C149  C     C_R   0.444679 0.536548 0.558723 -0.096431
C150  C     C_R   0.494780 0.362243 0.950686 -0.104994
C151  C     C_R   0.380549 0.489652 0.476965 -0.088367
C152  C     C_R   0.083979 0.524846 0.365339 0.187032
C153  C     C_R   0.536284 0.422602 0.032555 -0.084458
C154  C     C_R   0.591202 0.175613 0.712343 0.530836
C155  C     C_R   0.591165 0.175303 0.787569 0.533364
C156  C     C_R   0.824039 0.415430 0.712322 0.546979
C157  C     C_R   0.824265 0.415527 0.787692 0.546183
C158  C     C_R   0.584722 0.407932 0.712083 0.548565
C159  C     C_R   0.584300 0.408974 0.787589 0.549699
C160  C     C_R   0.967595 0.455150 0.428092 0.031345
C161  C     C_R   0.983500 0.444408 0.070272 0.031803
C162  C     C_R   0.884807 0.414546 0.437331 -0.121586
C163  C     C_R   0.097035 0.524144 0.133382 0.183433
C164  C     C_R   0.900977 0.398545 0.060812 -0.115585
C165  C     C_R   0.118256 0.534900 0.436890 0.035234
C166  C     C_R   0.133910 0.529587 0.061890 0.032238
C167  C     C_R   0.133156 0.562700 0.313070 0.000390
C168  C     C_R   0.136534 0.563189 0.186348 0.000331
C169  C     C_R   0.866195 0.427166 0.687008 0.013748
C170  C     C_R   0.868658 0.427538 0.812721 0.012451
C171  C     C_R   0.919034 0.415481 0.509410 0.058134
C172  C     C_R   0.936910 0.401001 0.988868 0.054969
C173  C     C_R   0.068981 0.517328 0.518135 0.023608
C174  C     C_R   0.642455 0.501466 0.673129 -0.155016
C175  C     C_R   0.084536 0.509738 0.980514 0.021389
C176  C     C_R   0.985809 0.462960 0.527228 -0.005492
C177  C     C_R   0.002144 0.452630 0.971244 -0.006201
C178  C     C_R   0.175103 0.591082 0.287538 0.525368
C179  C     C_R   0.175533 0.591163 0.212340 0.523940
C180  C     C_R   0.840175 0.352079 0.519443 0.216478
C181  C     C_R   0.859971 0.334713 0.978586 0.219702
C182  C     C_R   0.825255 0.347160 0.546305 -0.108223
C183  C     C_R   0.844044 0.331058 0.951785 -0.099385
C184  C     C_R   0.888540 0.399263 0.563798 -0.003547
C185  C     C_R   0.488978 0.405051 0.822825 -0.139728
C186  C     C_R   0.904776 0.388039 0.934582 -0.002647
C187  C     C_R   0.969567 0.455821 0.554399 -0.043528
C188  C     C_R   0.984878 0.447320 0.944127 -0.044372
C189  C     C_R   0.034462 0.505401 0.572180 0.040626
C190  C     C_R   0.047599 0.501725 0.926582 0.039302
C191  C     C_R   0.017108 0.498580 0.598969 0.424254
C192  C     C_R   0.028499 0.497682 0.899898 0.424927
C193  C     C_R   0.872957 0.394226 0.590701 0.434078
C194  C     C_R   0.887540 0.385547 0.907823 0.430192
C195  C     C_R   0.893914 0.365633 0.649092 -0.058825
C196  C     C_R   0.498752 0.385314 0.671991 -0.128129
C197  C     C_R   0.906774 0.367227 0.848722 -0.058423
C198  C     C_R   0.867845 0.359226 0.674867 -0.144586
C199  C     C_R   0.877048 0.361480 0.823390 -0.142597
C200  C     C_R   0.895550 0.503071 0.673311 -0.134603
C201  C     C_R   0.894630 0.501125 0.827499 -0.137545
C202  C     C_R   0.415528 0.824329 0.287678 0.549593
C203  C     C_R   0.415393 0.824031 0.212319 0.551629
C204  C     C_R   0.921677 0.509325 0.647567 -0.051295
C205  C     C_R   0.924369 0.506697 0.852863 -0.053816
C206  C     C_R   0.919052 0.440039 0.635166 0.244632
C207  C     C_R   0.639121 0.500657 0.827152 -0.138078
C208  C     C_R   0.928726 0.439013 0.863792 0.241938
C209  C     C_R   0.934487 0.431824 0.482291 0.042443
C210  C     C_R   0.951680 0.417081 0.016034 0.039296
C211  C     C_R   0.018520 0.480475 0.473254 0.022961
C212  C     C_R   0.035025 0.469701 0.025266 0.024096
C213  C     C_R   0.086293 0.520908 0.491126 0.019342
C214  C     C_R   0.102364 0.512800 0.007527 0.019511
C215  C     C_R   0.868630 0.404656 0.463872 -0.088914
C216  C     C_R   0.885346 0.386340 0.034260 -0.092821
C217  C     C_R   0.184763 0.571312 0.454732 -0.115196
C218  C     C_R   0.493124 0.399536 0.645386 0.306360
C219  C     C_R   0.200558 0.566416 0.044162 -0.113249
C220  C     C_R   0.132176 0.567087 0.536444 -0.133926
C221  C     C_R   0.146039 0.563260 0.962432 -0.131179
C222  C     C_R   0.115139 0.561151 0.562871 -0.104675
C223  C     C_R   0.127731 0.559448 0.936065 -0.102205
C224  C     C_R   0.169318 0.564314 0.481280 -0.157464
C225  C     C_R   0.185218 0.558664 0.017533 -0.145031
C226  C     C_R   0.984800 0.464994 0.401256 0.429064
C227  C     C_R   0.999937 0.457636 0.097120 0.429442
C228  C     C_R   0.395105 0.883085 0.408265 0.465387
Cr1   Cr    Cr6+3 0.456550 0.732290 0.250000 1.038775
Cr2   Cr    Cr6+3 0.275740 0.543450 0.250000 1.127726
Cr3   Cr    Cr6+3 0.267710 0.724260 0.250000 1.028075
Cr4   Cr    Cr6+3 0.543450 0.275740 0.750000 1.068738
Cr5   Cr    Cr6+3 0.724260 0.267710 0.750000 1.026324
Cr6   Cr    Cr6+3 0.732290 0.456550 0.750000 1.030712
H1    H     H_    0.119658 0.655518 0.368935 0.157136
H2    H     H_    0.239906 0.588049 0.005190 0.138100
H3    H     H_    0.303442 0.855599 0.312487 0.119209
H4    H     H_    0.302032 0.850727 0.186158 0.118615
H5    H     H_    0.311905 0.770655 0.446138 0.164112
H6    H     H_    0.309209 0.763626 0.052569 0.160532
H7    H     H_    0.051434 0.397802 0.355718 0.169277
H8    H     H_    0.057953 0.396415 0.144205 0.167397
H9    H     H_    0.389710 0.845355 0.574523 0.167527
H10   H     H_    0.383140 0.836417 0.924003 0.168965
H11   H     H_    0.371507 0.816342 0.529211 0.112027
H12   H     H_    0.137636 0.655806 0.128791 0.167010
H13   H     H_    0.367575 0.806846 0.969268 0.119210
H14   H     H_    0.322364 0.797053 0.491576 0.107995
H15   H     H_    0.321770 0.789828 0.007169 0.105483
H16   H     H_    0.553689 0.891017 0.319527 0.159617
H17   H     H_    0.554214 0.890173 0.181229 0.162470
H18   H     H_    0.563140 0.942866 0.364009 0.150414
H19   H     H_    0.563910 0.936945 0.136283 0.153429
H20   H     H_    0.548248 0.234914 0.505537 0.185414
H21   H     H_    0.576415 0.226931 0.994325 0.201187
H22   H     H_    0.691351 0.179474 0.674271 0.125468
H23   H     H_    0.249556 0.605695 0.448218 0.189726
H24   H     H_    0.690151 0.168035 0.824222 0.130484
H25   H     H_    0.565346 0.261381 0.551156 0.165048
H26   H     H_    0.591750 0.253866 0.948896 0.167963
H27   H     H_    0.692764 0.528282 0.422233 0.157303
H28   H     H_    0.428942 0.683178 0.053031 0.151984
H29   H     H_    0.701492 0.540120 0.683200 0.146396
H30   H     H_    0.434809 0.359183 0.811875 0.159444
H31   H     H_    0.691061 0.566691 0.637050 0.137065
H32   H     H_    0.414147 0.393205 0.856267 0.137659
H33   H     H_    0.672722 0.428778 0.505025 0.191466
H34   H     H_    0.265143 0.602685 0.050833 0.159249
H35   H     H_    0.522669 0.703745 0.970389 0.188426
H36   H     H_    0.421880 0.413305 0.352581 0.131955
H37   H     H_    0.377194 0.435717 0.135157 0.137720
H38   H     H_    0.445534 0.333226 0.681470 0.139250
H39   H     H_    0.702284 0.528592 0.819357 0.120512
H40   H     H_    0.411691 0.556145 0.571927 0.156205
H41   H     H_    0.486970 0.303898 0.942840 0.152734
H42   H     H_    0.328318 0.475357 0.489702 0.164572
H43   H     H_    0.558777 0.382254 0.025191 0.166136
H44   H     H_    0.892015 0.311880 0.639661 0.130691
H45   H     H_    0.894868 0.556460 0.682064 0.139041
H46   H     H_    0.909992 0.314630 0.856985 0.133114
H47   H     H_    0.764081 0.300314 0.553590 0.164868
H48   H     H_    0.784078 0.281949 0.944318 0.167268
H49   H     H_    0.163850 0.689672 0.323978 0.147898
H50   H     H_    0.174080 0.690862 0.174429 0.145097
H51   H     H_    0.079891 0.426341 0.288199 0.336251
H52   H     H_    0.076186 0.427963 0.211880 0.335213
H53   H     H_    0.195338 0.613336 0.530923 0.105066
H54   H     H_    0.208437 0.611177 0.968198 0.113881
H55   H     H_    0.165839 0.600883 0.576058 0.165552
H56   H     H_    0.888565 0.552898 0.819918 0.136098
H57   H     H_    0.176904 0.602523 0.923076 0.167612
H58   H     H_    0.253610 0.890845 0.347682 0.319391
H59   H     H_    0.252273 0.881818 0.150011 0.319640
H60   H     H_    0.429343 0.073480 0.712425 0.335315
H61   H     H_    0.427178 0.078194 0.788033 0.335707
H62   H     H_    0.395033 0.053653 0.644869 0.164304
H63   H     H_    0.397654 0.054100 0.855545 0.165472
H64   H     H_    0.589263 0.178606 0.422252 0.158225
H65   H     H_    0.606595 0.164992 0.077140 0.161786
H66   H     H_    0.831891 0.391302 0.424039 0.164744
H67   H     H_    0.940815 0.566979 0.636911 0.138533
H68   H     H_    0.847704 0.373045 0.073930 0.169388
H69   H     H_    0.723187 0.169418 0.632573 0.325462
H70   H     H_    0.722600 0.149601 0.864980 0.327502
H71   H     H_    0.649904 0.262307 0.455965 0.327396
H72   H     H_    0.675298 0.244656 0.043566 0.322797
H73   H     H_    0.509361 0.702088 0.322268 0.163505
H74   H     H_    0.541522 0.701322 0.184650 0.167860
H75   H     H_    0.569744 0.681224 0.385964 0.349450
H76   H     H_    0.608176 0.695482 0.120698 0.350387
H77   H     H_    0.686693 0.420048 0.550937 0.165588
H78   H     H_    0.940724 0.562247 0.864408 0.140484
H79   H     H_    0.538460 0.690723 0.924770 0.170540
H80   H     H_    0.845583 0.299915 0.684865 0.128761
H81   H     H_    0.857544 0.303902 0.812569 0.130245
H82   H     H_    0.766262 0.529664 0.456655 0.325242
H83   H     H_    0.404396 0.705365 0.012392 0.312770
H84   H     H_    0.365081 0.367992 0.312563 0.334944
H85   H     H_    0.304406 0.378298 0.171870 0.335517
H86   H     H_    0.250552 0.461040 0.455122 0.316716
H87   H     H_    0.578852 0.355693 0.065611 0.322199
H88   H     H_    0.363048 0.590705 0.537265 0.320053
H89   H     H_    0.224234 0.592125 0.493628 0.125896
H90   H     H_    0.451339 0.250689 0.982766 0.324368
H91   H     H_    0.378268 0.305968 0.642789 0.326017
H92   H     H_    0.747032 0.596044 0.858119 0.318128
H93   H     H_    0.730927 0.250918 0.513432 0.350936
H94   H     H_    0.754727 0.228914 0.984139 0.350210
H95   H     H_    0.803795 0.379090 0.469509 0.196177
H96   H     H_    0.820238 0.356536 0.028410 0.193562
N1    N     N_R   0.066940 0.508756 0.392632 -0.395442
N2    N     N_R   0.489289 0.559618 0.106334 -0.417406
N3    N     N_R   0.560192 0.476770 0.605112 -0.363105
N4    N     N_R   0.533661 0.487508 0.890659 -0.361568
N5    N     N_R   0.081567 0.505991 0.106022 -0.393012
N6    N     N_R   0.937002 0.443765 0.607831 -0.389358
N7    N     N_R   0.948998 0.440480 0.890930 -0.388087
N8    N     N_R   0.441346 0.947642 0.391046 -0.359109
N9    N     N_R   0.442921 0.938868 0.108028 -0.360284
N10   N     N_R   0.502930 0.080334 0.606241 -0.366562
N11   N     N_R   0.506796 0.071937 0.893028 -0.366528
N12   N     N_R   0.492071 0.528277 0.389463 -0.416946
O1    O     O_R   0.475290 0.813700 0.278840 -0.506733
O2    O     O_2   0.434612 0.931954 0.885759 -0.500079
O3    O     O_2   0.532037 0.085338 0.384155 -0.495189
O4    O     O_2   0.539484 0.075016 0.115070 -0.489927
O5    O     O_2   0.560165 0.218685 0.597390 -0.441537
O6    O     O_2   0.574589 0.210699 0.902451 -0.439911
O7    O     O_2   0.617481 0.536370 0.383576 -0.489117
O8    O     O_2   0.444705 0.651870 0.098409 -0.453888
O9    O     O_2   0.652987 0.432750 0.597123 -0.466205
O10   O     O_2   0.546252 0.615255 0.885292 -0.481354
O11   O     O_2   0.365362 0.515167 0.396957 -0.393083
O12   O     O_R   0.475290 0.813700 0.221160 -0.506516
O13   O     O_2   0.534379 0.467234 0.112200 -0.415417
O14   O     O_2   0.468536 0.523405 0.610750 -0.480781
O15   O     O_2   0.518922 0.359691 0.898196 -0.474830
O16   O     O_R   0.448450 0.657720 0.276690 -0.517214
O17   O     O_R   0.448450 0.657720 0.223310 -0.519514
O18   O     O_R   0.524710 0.338410 0.721160 -0.498922
O19   O     O_R   0.524710 0.338410 0.778840 -0.492548
O20   O     O_R   0.551550 0.209270 0.723310 -0.480390
O21   O     O_R   0.551550 0.209270 0.776690 -0.477793
O22   O     O_R   0.661590 0.186300 0.721160 -0.512121
O23   O     O_2   0.205764 0.581202 0.401924 -0.434341
O24   O     O_R   0.661590 0.186300 0.778840 -0.513807
O25   O     O_R   0.790730 0.342280 0.723310 -0.497501
O26   O     O_R   0.790730 0.342280 0.776690 -0.496987
O27   O     O_R   0.813700 0.475290 0.721160 -0.512667
O28   O     O_R   0.813700 0.475290 0.778840 -0.511933
O29   O     O_R   0.657720 0.448450 0.723310 -0.496352
O30   O     O_R   0.657720 0.448450 0.776690 -0.497632
O31   O     O_3   0.666667 0.333333 0.750000 -0.238400
O32   O     O_R   0.338410 0.524710 0.278840 -0.420292
O33   O     O_R   0.338410 0.524710 0.221160 -0.411304
O34   O     O_2   0.220378 0.582466 0.097127 -0.462063
O35   O     O_R   0.209270 0.551550 0.276690 -0.485011
O36   O     O_R   0.209270 0.551550 0.223310 -0.481071
O37   O     O_R   0.186300 0.661590 0.278840 -0.514249
O38   O     O_R   0.186300 0.661590 0.221160 -0.512839
O39   O     O_R   0.342280 0.790730 0.276690 -0.496050
O40   O     O_R   0.342280 0.790730 0.223310 -0.496568
O41   O     O_3   0.333333 0.666667 0.250000 -0.253668
O42   O     O_2   0.926888 0.435681 0.385548 -0.496413
O43   O     O_2   0.941633 0.427267 0.112594 -0.495217
O44   O     O_2   0.802198 0.346454 0.598923 -0.458957
O45   O     O_2   0.073207 0.541096 0.614470 -0.504740
O46   O     O_2   0.817453 0.335233 0.899541 -0.474103
O47   O     O_3   0.085501 0.412352 0.306402 -0.660014
O48   O     O_3   0.083081 0.412269 0.194004 -0.658285
O49   O     O_3   0.300286 0.909999 0.360437 -0.655670
O50   O     O_3   0.299348 0.900376 0.137504 -0.651428
O51   O     O_3   0.412146 0.078841 0.694600 -0.672243
O52   O     O_3   0.412614 0.084574 0.806098 -0.667983
O53   O     O_3   0.667871 0.145049 0.623662 -0.632902
O54   O     O_3   0.668156 0.127033 0.874234 -0.635847
O55   O     O_3   0.619976 0.225955 0.471040 -0.713092
O56   O     O_2   0.082519 0.544785 0.884602 -0.504801
O57   O     O_3   0.643897 0.209329 0.028403 -0.711562
O58   O     O_3   0.556458 0.697636 0.369064 -0.666160
O59   O     O_3   0.594282 0.709492 0.137908 -0.662474
O60   O     O_3   0.728285 0.522020 0.471395 -0.719241
O61   O     O_3   0.423019 0.672095 0.001999 -0.741742
O62   O     O_3   0.375700 0.420419 0.303719 -0.639889
O63   O     O_3   0.328789 0.425954 0.184369 -0.629832
O64   O     O_3   0.290722 0.475106 0.440555 -0.625397
O65   O     O_3   0.565915 0.393566 0.075914 -0.616776
O66   O     O_3   0.386987 0.574673 0.522520 -0.725774
O67   O     O_2   0.351022 0.811202 0.400170 -0.465674
O68   O     O_3   0.462712 0.300282 0.993477 -0.715824
O69   O     O_3   0.421316 0.348860 0.631129 -0.648267
O70   O     O_3   0.694308 0.574094 0.868288 -0.653064
O71   O     O_3   0.781167 0.290549 0.503256 -0.685102
O72   O     O_3   0.804185 0.269944 0.994431 -0.681619
O73   O     O_2   0.347705 0.803692 0.098724 -0.455464
O74   O     O_2   0.440419 0.940414 0.612970 -0.501708

loop_
_geom_bond_atom_site_label_1
_geom_bond_atom_site_label_2
_ccdc_geom_bond_type
C172  C177  A    
C183  H48   S    
C63   C65   A    
Cr6   O29   S    
C39   C41   A    
C222  H55   S    
C220  H53   S    
C6    C8    A    
C24   N4    S    
C9    H17   S    
C125  C146  A    
C142  N4    Am   
C88   C108  A    
C58   C60   A    
C184  C193  A    
C25   O34   D    
H94   O72   S    
C61   C63   A    
H85   O63   S    
C80   C86   A    
C146  C150  A    
C197  H46   S    
Cr4   O21   S    
Cr2   O33   S    
C123  C145  A    
C89   N12   Am   
C70   C74   A    
C50   C52   A    
C34   C81   A    
C151  H42   S    
C62   H24   S    
C49   H12   S    
C33   C69   A    
C144  C185  A    
C195  C198  A    
C119  C128  A    
C111  C124  A    
C41   C43   A    
C31   C62   A    
C76   H14   S    
C112  O17   A    
C42   C44   A    
C73   C168  A    
C53   N11   Am   
C87   O7    D    
C180  C182  A    
C50   C83   A    
C181  C183  A    
C206  N6    S    
C145  O66   S    
C198  H80   S    
C219  H34   S    
C127  C136  A    
C175  C177  A    
C180  O71   S    
C123  C126  A    
C139  N3    Am   
C91   O13   D    
C1    O16   A    
H86   O64   S    
C143  H31   S    
C64   C66   A    
C173  C213  A    
C164  H68   S    
Cr2   O35   S    
Cr3   O41   S    
C43   C54   A    
C31   C155  S    
C21   C76   A    
C200  H45   S    
C54   N10   Am   
Cr1   O17   S    
C90   C153  A    
C178  O35   A    
C138  C140  A    
C169  C200  A    
C73   H50   S    
C82   C84   A    
C191  N6    Am   
C8    C28   A    
C49   C73   A    
C196  C218  A    
C59   O51   S    
Cr6   O27   S    
C37   C45   A    
C18   C71   A    
C98   H73   S    
C203  O12   A    
C199  H81   S    
C223  H57   S    
C94   C115  A    
C95   O63   S    
C25   C166  A    
C33   C38   A    
C56   C59   A    
C149  H40   S    
C148  C212  A    
H83   O61   S    
C88   N2    Am   
C44   C55   A    
C45   C50   A    
C171  C209  A    
C128  H33   S    
C23   O23   D    
C101  O60   S    
C119  C126  A    
C226  N1    Am   
C30   C154  S    
C167  C178  S    
C87   C107  A    
C126  C134  A    
C132  C134  A    
C30   C61   A    
C125  C127  A    
C197  C208  A    
C1    C115  S    
C216  H96   S    
C166  C219  A    
C55   N11   Am   
H51   O47   S    
C69   C77   A    
C203  O40   A    
C53   O6    D    
C120  C127  A    
C217  H23   S    
C140  O15   D    
C121  H7    S    
C105  C107  A    
C8    H16   S    
C133  C142  A    
C209  C215  A    
C177  C188  A    
C96   C121  A    
H92   O70   S    
C163  N5    S    
C204  H67   S    
C19   C21   A    
C87   N12   Am   
H90   O68   S    
Cr3   O39   S    
C213  C224  A    
C156  O27   A    
C197  C199  A    
C173  C220  A    
C124  O64   S    
C147  C165  A    
C25   N5    Am   
C172  C181  A    
C224  H89   S    
C23   N1    Am   
C112  O33   A    
C62   C64   A    
C13   C218  A    
C165  C217  A    
C56   H62   S    
C40   C42   A    
C93   C95   A    
C14   O50   S    
C48   C72   A    
C135  O65   S    
C147  C160  A    
C170  C199  A    
C81   C83   A    
C1    O32   A    
C175  C221  A    
H93   O71   S    
C33   C40   A    
C54   O74   D    
C120  C129  A    
C175  C214  A    
C27   C80   A    
C183  C186  A    
C189  C222  A    
C51   C53   A    
C160  C162  A    
C46   C68   A    
C36   C75   A    
C202  O1    A    
C92   H36   S    
C68   C90   A    
C93   H37   S    
C95   C116  A    
C200  C204  A    
C30   C59   A    
Cr5   O25   S    
C46   C120  A    
C32   C37   A    
C159  O19   A    
Cr5   O31   S    
Cr1   O16   S    
C192  O56   D    
C32   C67   A    
Cr3   O38   S    
C78   C85   A    
C21   H5    S    
C124  C151  A    
C210  C212  A    
H76   O59   S    
C5    N9    Am   
C112  C116  S    
C40   H13   S    
H72   O57   S    
C154  O22   A    
C132  C141  A    
C52   N10   Am   
C46   C113  A    
C117  C158  S    
C225  H2    S    
C186  C194  A    
C144  H32   S    
Cr6   O30   S    
C228  O67   D    
C97   C168  A    
C171  C176  A    
C5    O4    D    
C184  C187  A    
C155  O21   A    
C67   C70   A    
C118  C207  A    
C102  O59   S    
C98   C115  A    
C195  C206  A    
C106  C108  A    
C97   O48   S    
Cr1   O1    S    
C108  C110  A    
C86   O57   S    
C74   C85   A    
Cr5   O26   S    
C13   N3    S    
C49   C163  A    
C48   H1    S    
C78   H64   S    
C10   H3    S    
C100  O58   S    
C201  C205  A    
C89   O11   D    
C201  H56   S    
C34   C37   A    
C148  C166  A    
C205  H78   S    
C134  C137  A    
C164  C216  A    
C11   H4    S    
C137  C139  A    
C130  H77   S    
C41   H9    S    
Cr1   O41   S    
Cr6   O28   S    
C194  O46   D    
C3    N9    Am   
C192  N7    Am   
C173  C176  A    
C101  C109  A    
C153  H43   S    
C32   C39   A    
C214  C225  A    
C2    O70   S    
C80   H65   S    
C174  H29   S    
Cr2   O36   S    
H52   O48   S    
C157  O28   A    
C83   H25   S    
C96   O47   S    
C157  O26   A    
C154  O20   A    
C105  C111  A    
H61   O52   S    
H84   O62   S    
C107  C109  A    
C103  N12   S    
C118  C159  S    
H82   O60   S    
C141  O9    D    
C147  C211  A    
C118  C185  A    
C22   H6    S    
C202  O39   A    
H70   O54   S    
C4    N8    Am   
C150  H41   S    
C207  H39   S    
C52   O5    D    
C47   C51   A    
C100  C103  A    
C60   O52   S    
C140  N4    Am   
C31   C60   A    
H87   O65   S    
C130  C132  A    
H88   O66   S    
C157  C170  S    
Cr2   O32   S    
C12   C15   A    
C66   N11   S    
C226  O42   D    
C96   C167  A    
C99   H74   S    
C72   H49   S    
H91   O69   S    
C179  O38   A    
C34   C74   A    
C142  O10   D    
C7    C16   A    
C20   C22   A    
C98   C100  A    
C48   C152  A    
Cr5   O22   S    
C141  N3    Am   
C77   H15   S    
C17   C26   A    
C186  C188  A    
H58   O49   S    
C99   C116  A    
C161  C164  A    
C176  C187  A    
Cr2   O41   S    
C10   C28   A    
C55   O2    D    
C190  C192  A    
C218  O69   S    
C22   C77   A    
C139  O14   D    
C35   C101  A    
C12   O49   S    
C128  C130  A    
C4    C26   A    
C91   C114  A    
C185  H30   S    
C6    H18   S    
C168  C179  S    
C35   C57   A    
C28   C202  S    
C36   C38   A    
C43   C45   A    
Cr4   O20   S    
C190  C223  A    
C3    O73   D    
C24   C144  A    
C210  C216  A    
C90   C125  A    
C196  H38   S    
C13   C143  A    
C94   O62   S    
C99   C102  A    
C85   O55   S    
C2    C207  A    
C143  C174  A    
C51   C84   A    
C215  H95   S    
C145  C149  A    
C208  N7    S    
C117  C174  A    
C57   C105  A    
C152  N1    S    
C29   C203  S    
C191  O45   D    
C57   C79   A    
C35   C119  A    
C91   N2    Am   
C146  O68   S    
C182  H47   S    
C220  C222  A    
C122  H8    S    
C138  C150  A    
C194  N7    Am   
C106  C114  A    
C148  C161  A    
C188  C190  A    
C172  C210  A    
C11   C14   A    
Cr4   O18   S    
C227  O43   D    
C158  O18   A    
C56   C65   A    
C156  C169  S    
C189  C191  A    
C4    O3    D    
C64   O54   S    
C42   H10   S    
C69   C71   A    
C179  O36   A    
C170  C201  A    
C75   C86   A    
C92   C103  A    
C209  C211  A    
C6    C15   A    
C39   H11   S    
C63   O53   S    
C58   C66   A    
C36   C82   A    
H71   O55   S    
C133  C136  A    
C114  C135  A    
C160  C226  A    
C81   H20   S    
C26   C78   A    
C44   C47   A    
C9    C29   A    
Cr3   O37   S    
C217  C224  A    
C17   C70   A    
Cr6   O31   S    
C5    C27   A    
C7    H19   S    
C195  H44   S    
C137  C149  A    
C68   C106  A    
C104  N2    S    
C93   C104  A    
C92   C94   A    
C182  C184  A    
C162  C215  A    
C110  H28   S    
C3    C20   A    
C136  C138  A    
Cr3   O40   S    
C79   C123  A    
C122  C163  A    
C155  O24   A    
Cr1   O12   S    
C221  H54   S    
C19   C228  A    
C97   C122  A    
Cr5   O24   S    
H59   O50   S    
C193  N6    Am   
C219  C225  A    
C102  C104  A    
C110  C113  A    
C38   C47   A    
C10   C12   A    
Cr4   O19   S    
C211  C213  A    
C204  C206  A    
C61   H22   S    
C158  O29   A    
C156  O25   A    
C2    C24   A    
C72   C167  A    
C14   C16   A    
C171  C180  A    
C58   H63   S    
C162  H66   S    
C79   C151  A    
C205  C208  A    
C7    C9    A    
C84   H26   S    
C18   C27   A    
C212  C214  A    
C131  C133  A    
C89   C111  A    
C135  C153  A    
C121  C152  A    
C23   C165  A    
H75   O58   S    
C193  O44   D    
C221  C223  A    
C117  C196  A    
C71   C75   A    
C113  O61   S    
C181  O72   S    
C131  H79   S    
C228  N8    Am   
C17   C19   A    
H60   O51   S    
C15   N8    S    
C18   C20   A    
C82   H21   S    
C88   O8    D    
C187  C189  A    
C129  H35   S    
C159  O30   A    
C11   C29   A    
Cr4   O31   S    
H69   O53   S    
C65   N10   S    
C67   C76   A    
C161  C227  A    
C109  H27   S    
C16   N9    S    
C178  O37   A    
C227  N5    Am   
C169  C198  A    
C129  C131  A    
