data_mof_unit_28513.cif
_audit_creation_date              2012-12-11T17:07:33-0500
_audit_creation_method            fapswitch 2.2
_symmetry_space_group_name_H-M    P1
_symmetry_Int_Tables_number       1
_space_group_crystal_system       triclinic
_cell_length_a                    6.970954
_cell_length_b                    14.509526
_cell_length_c                    16.099001
_cell_angle_alpha                 89.969584
_cell_angle_beta                  89.855069
_cell_angle_gamma                 89.866352
_cell_volume                      1628.32742896

loop_
_atom_site_label
_atom_site_type_symbol
_atom_type_description
_atom_site_fract_x
_atom_site_fract_y
_atom_site_fract_z
_atom_type_partial_charge
O1    O     O_R   0.505720 0.583900 0.413310 -0.536713
O2    O     O_R   0.175940 0.594920 0.586080 -0.543798
O3    O     O_R   0.005640 0.416100 0.586690 -0.534216
C1    C     C_R   0.344556 0.617076 0.614679 0.696311
O4    O     O_R   0.176000 0.594930 0.413930 -0.543218
O5    O     O_R   0.005700 0.416110 0.413310 -0.542368
C2    C     C_R   0.344753 0.616998 0.385310 0.698963
O6    O     O_R   0.505660 0.583890 0.586690 -0.541044
O7    O     O_3   0.339200 0.441330 0.500000 -0.367039
V1    V     V_3+5 0.064350 0.510880 0.500000 1.396621
O8    O     O_R   0.675980 0.405080 0.413920 -0.538215
C3    C     C_R   0.845235 0.383190 0.385108 0.690527
O9    O     O_R   0.675920 0.405070 0.586070 -0.540079
C4    C     C_R   0.844509 0.383328 0.614738 0.695688
V2    V     V_3+5 0.564340 0.489120 0.500000 1.406949
O10   O     O_3   0.839360 0.558670 0.500000 -0.373096
H1    H     H_    0.195041 0.107242 0.523245 0.109267
C5    C     C_R   0.661562 0.416845 0.774293 -0.114062
C6    C     C_R   0.573515 0.435421 0.850223 -0.094644
C7    C     C_R   0.590364 0.373491 0.915536 -0.121269
C8    C     C_R   0.692914 0.291842 0.905010 -0.136463
C9    C     C_R   0.778255 0.269307 0.827624 0.068951
C10   C     C_R   0.763818 0.333609 0.760969 0.060172
C11   C     C_R   0.879713 0.185217 0.816570 -0.183383
C12   C     C_R   0.966176 0.165378 0.738621 0.070093
C13   C     C_R   0.953530 0.230100 0.672212 0.070800
C14   C     C_R   0.853751 0.314656 0.683495 -0.187117
C15   C     C_R   0.061333 0.080390 0.724402 -0.144607
C16   C     C_R   0.144362 0.060431 0.647713 -0.127047
C17   C     C_R   0.132151 0.123504 0.583040 -0.124172
C18   C     C_R   0.036750 0.206998 0.594553 -0.132561
H2    H     H_    0.648676 0.468951 0.726730 0.117263
H3    H     H_    0.494467 0.499059 0.858811 0.140814
H4    H     H_    0.524830 0.389079 0.974946 0.126167
H5    H     H_    0.705102 0.247266 0.958566 0.109783
H6    H     H_    0.071025 0.027718 0.771712 0.111323
H7    H     H_    0.216788 0.995168 0.638203 0.113197
H8    H     H_    0.026965 0.252226 0.541347 0.109469
C19   C     C_R   0.726885 0.183461 0.240994 0.098005
C20   C     C_R   0.881526 0.182735 0.185223 -0.109609
C21   C     C_R   0.033471 0.244056 0.201100 -0.173402
H9    H     H_    0.156123 0.245965 0.160001 0.135174
C22   C     C_R   0.022658 0.308063 0.266783 -0.170847
H10   H     H_    0.137781 0.357114 0.274404 0.131193
C23   C     C_R   0.859226 0.312958 0.318397 -0.111003
C24   C     C_R   0.715736 0.247067 0.305759 0.101783
C25   C     C_3   0.505708 0.260513 0.293720 -0.404443
C26   C     C_3   0.517784 0.190929 0.223423 -0.402178
H11   H     H_    0.471000 0.331424 0.272267 0.170920
H12   H     H_    0.420704 0.235664 0.347750 0.171941
H13   H     H_    0.489506 0.221278 0.161208 0.170572
H14   H     H_    0.440348 0.125700 0.236919 0.163811
C27   C     C_R   0.516498 0.741711 0.693767 0.070066
C28   C     C_R   0.353297 0.687226 0.681572 -0.107049
C29   C     C_R   0.200256 0.698774 0.737785 -0.179403
H15   H     H_    0.075437 0.655518 0.732535 0.168017
C30   C     C_R   0.213304 0.761176 0.804725 -0.174873
H16   H     H_    0.097965 0.766357 0.848962 0.141290
C31   C     C_R   0.380401 0.812337 0.818663 -0.101274
C32   C     C_R   0.532539 0.798854 0.763254 0.040157
C33   C     C_3   0.732940 0.766601 0.779833 -0.177092
C34   C     C_3   0.719378 0.710789 0.699863 -0.445050
H17   H     H_    0.836167 0.824675 0.776436 0.103689
H18   H     H_    0.732190 0.634867 0.706588 0.197218
H19   H     H_    0.807885 0.739749 0.648612 0.163296
C35   C     C_R   0.500640 0.679294 0.256005 0.107270
C36   C     C_R   0.352372 0.682508 0.314762 -0.107416
C37   C     C_R   0.204364 0.747054 0.301115 -0.195399
H20   H     H_    0.084193 0.751102 0.343588 0.125331
C38   C     C_R   0.216597 0.811500 0.235727 -0.135334
H21   H     H_    0.105253 0.863199 0.230019 0.124457
C39   C     C_R   0.375940 0.812598 0.181374 -0.116879
C40   C     C_R   0.511302 0.741671 0.190371 0.090770
C41   C     C_3   0.725540 0.744254 0.194580 -0.215151
C42   C     C_3   0.712818 0.676673 0.267201 -0.457978
H22   H     H_    0.780573 0.813231 0.212531 0.110275
H23   H     H_    0.756681 0.707356 0.327433 0.164073
H24   H     H_    0.773387 0.607020 0.254808 0.184287
O11   O     O_R   0.229140 0.916090 0.913340 -0.548645
O12   O     O_R   0.558860 0.905090 0.086080 -0.536716
O13   O     O_R   0.729100 0.083920 0.086690 -0.544521
C43   C     C_R   0.389859 0.882835 0.114661 0.713756
O14   O     O_R   0.558860 0.905090 0.913930 -0.516212
O15   O     O_R   0.729100 0.083920 0.913310 -0.541708
C44   C     C_R   0.390279 0.881345 0.886601 0.730561
O16   O     O_R   0.229140 0.916080 0.086720 -0.522995
O17   O     O_3   0.395570 0.058660 0.000020 -0.380608
V3    V     V_3+5 0.670450 0.989140 0.000000 1.474555
O18   O     O_R   0.058810 0.094980 0.913910 -0.541667
C45   C     C_R   0.890010 0.116835 0.885428 0.682082
O19   O     O_R   0.058810 0.094980 0.086060 -0.547409
C46   C     C_R   0.889791 0.117097 0.114672 0.672960
V4    V     V_3+5 0.170450 0.010950 0.999970 1.430964
O20   O     O_3   0.895460 0.941370 0.999990 -0.340311
C47   C     C_2   0.751544 0.707013 0.857203 0.765427
O21   O     O_2   0.712919 0.739109 0.925282 -0.543649
O22   O     O_R   0.822513 0.617002 0.851708 -0.685957
H25   H     H_    0.833848 0.586028 0.907955 0.311024
C48   C     C_2   0.820364 0.704383 0.118300 0.863777
O23   O     O_2   0.767972 0.630324 0.090041 -0.562028
O24   O     O_R   0.969739 0.752612 0.080233 -0.644911
H26   H     H_    0.025428 0.718738 0.030631 0.295767

loop_
_geom_bond_atom_site_label_1
_geom_bond_atom_site_label_2
_ccdc_geom_bond_type
C29   H15   S    
V4    O20   S    
C40   C41   S    
C47   O21   D    
C1    O6    A    
O22   H25   S    
C25   H11   S    
C23   C24   A    
C12   C15   A    
C13   C14   A    
O24   H26   S    
C41   H22   S    
C15   C16   A    
O11   V4    S    
O5    C3    A    
C17   C18   A    
C30   C31   A    
V2    O10   S    
C5    C6    A    
C21   H9    S    
C33   H17   S    
C34   H18   S    
C24   C25   S    
O13   C46   A    
O8    V2    S    
C26   H13   S    
C25   C26   S    
C37   H20   S    
C38   H21   S    
O1    V2    S    
C10   C14   A    
C4    C14   S    
O7    V1    S    
O19   C46   A    
C7    H4    S    
C35   C36   A    
C31   C32   A    
C8    C9    A    
H1    C17   S    
C21   C22   A    
O15   C45   A    
C27   C32   A    
C25   H12   S    
V3    O20   S    
C41   C42   S    
C36   C37   A    
C11   C12   A    
O12   C43   A    
C6    H3    S    
C19   C20   A    
O4    C2    A    
C39   C40   A    
C12   C13   A    
C43   O16   A    
C35   C40   A    
C5    C10   A    
C32   C33   S    
O2    C1    A    
C22   H10   S    
C31   C44   S    
C16   C17   A    
O16   V4    S    
O19   V4    S    
C42   H23   S    
C27   C34   S    
C48   O23   D    
C33   C47   S    
C20   C46   S    
C22   C23   A    
O3    C4    A    
C19   C24   A    
C20   C21   A    
O14   C44   A    
O6    V2    S    
C1    C28   S    
O9    V2    S    
C9    C11   A    
C5    H2    S    
O2    V1    S    
O11   C44   A    
C28   C29   A    
C34   H19   S    
C48   O24   S    
O1    C2    A    
C13   C18   A    
O15   V3    S    
C3    C23   S    
C11   C45   S    
O5    V1    S    
O8    C3    A    
C47   O22   S    
C27   C28   A    
C41   C48   S    
C8    H5    S    
C18   H8    S    
C6    C7    A    
C29   C30   A    
O7    V2    S    
O4    V1    S    
O12   V3    S    
O3    V1    S    
V1    O10   S    
C30   H16   S    
C35   C42   S    
O17   V4    S    
O14   V3    S    
O18   V4    S    
C33   C34   S    
C42   H24   S    
O13   V3    S    
C2    C36   S    
C26   H14   S    
C7    C8    A    
C15   H6    S    
O17   V3    S    
C37   C38   A    
C16   H7    S    
C9    C10   A    
C38   C39   A    
O18   C45   A    
O9    C4    A    
C39   C43   S    
C19   C26   S    
