data_mof_unit_23491.cif
_audit_creation_date              2012-12-11T14:07:17-0500
_audit_creation_method            fapswitch 2.2
_symmetry_space_group_name_H-M    P1
_symmetry_Int_Tables_number       1
_space_group_crystal_system       triclinic
_cell_length_a                    19.855005
_cell_length_b                    17.042287
_cell_length_c                    15.378549
_cell_angle_alpha                 89.968017
_cell_angle_beta                  53.305983
_cell_angle_gamma                 89.737362
_cell_volume                      4172.4748349

loop_
_atom_site_label
_atom_site_type_symbol
_atom_type_description
_atom_site_fract_x
_atom_site_fract_y
_atom_site_fract_z
_atom_type_partial_charge
C1    C     C_R   0.341909 0.177121 0.046082 -0.100134
C2    C     C_R   0.376437 0.802393 0.995771 -0.127296
C3    C     C_R   0.841958 0.677167 0.046010 -0.104381
C4    C     C_R   0.876703 0.302401 0.995281 -0.127044
C5    C     C_R   0.631980 0.893779 0.106618 -0.186832
C6    C     C_R   0.662905 0.087120 0.062491 -0.172975
C7    C     C_R   0.131911 0.393724 0.106688 -0.184745
C8    C     C_R   0.163910 0.586406 0.060609 -0.164617
C9    C     C_R   0.698485 0.156223 0.004235 0.032555
C10   C     C_R   0.645012 0.814194 0.079021 0.047943
C11   C     C_R   0.200416 0.654882 0.000799 0.028031
C12   C     C_R   0.144947 0.314132 0.079077 0.047818
C13   C     C_R   0.694065 0.863667 0.679877 0.115001
C14   C     C_R   0.623022 0.179240 0.688012 -0.005146
C15   C     C_R   0.194415 0.364402 0.679690 0.125008
C16   C     C_R   0.113898 0.681986 0.693081 0.024981
C17   C     C_3   0.254695 0.198836 0.481833 -0.371110
C18   C     C_3   0.232224 0.862849 0.523344 -0.381837
C19   C     C_3   0.754112 0.700421 0.479300 -0.372209
C20   C     C_3   0.703856 0.369038 0.522421 -0.385488
C21   C     C_3   0.205258 0.246013 0.586004 -0.451533
C22   C     C_3   0.172358 0.815205 0.625286 -0.405046
C23   C     C_3   0.703794 0.747479 0.583569 -0.449245
C24   C     C_3   0.644999 0.316792 0.621220 -0.394995
C25   C     C_3   0.388990 0.241342 0.452003 -0.498073
C26   C     C_3   0.302109 0.740285 0.410611 -0.459183
C27   C     C_3   0.887592 0.738357 0.454671 -0.472703
C28   C     C_3   0.813489 0.261644 0.423308 -0.469704
C29   C     C_3   0.834326 0.821056 0.371877 -0.463084
C30   C     C_3   0.686892 0.269336 0.418316 -0.430255
C31   C     C_3   0.330419 0.319929 0.372276 -0.464637
C32   C     C_3   0.171441 0.797023 0.439298 -0.457062
C33   C     C_3   0.341731 0.236065 0.400297 0.217313
C34   C     C_3   0.254307 0.816812 0.422304 0.212758
C35   C     C_3   0.842398 0.736068 0.400122 0.200211
C36   C     C_3   0.752934 0.317318 0.418952 0.227181
C37   C     C_3   0.754181 0.819645 0.577592 -0.003456
C38   C     C_3   0.669717 0.228489 0.590014 0.004882
C39   C     C_3   0.254302 0.320410 0.577148 0.001437
C40   C     C_3   0.162850 0.730787 0.594913 -0.029804
C41   C     C_3   0.839150 0.792490 0.556243 0.470464
C42   C     C_3   0.766343 0.215603 0.529857 0.477443
C43   C     C_3   0.341185 0.296701 0.552416 0.487858
C44   C     C_3   0.251398 0.691554 0.514250 0.476417
C45   C     C_R   0.349867 0.829380 0.219565 -0.077096
C46   C     C_R   0.396829 0.199070 0.208605 -0.126705
C47   C     C_R   0.849347 0.330263 0.217644 -0.070277
C48   C     C_R   0.897186 0.699155 0.208522 -0.128113
C49   C     C_3   0.778817 0.869415 0.476110 0.284952
C50   C     C_3   0.648966 0.206875 0.508167 0.236048
C51   C     C_3   0.275269 0.368516 0.476178 0.262768
C52   C     C_3   0.119392 0.740476 0.536670 0.297283
C53   C     C_2   0.269746 0.694061 0.987400 -0.145265
C54   C     C_2   0.188742 0.257351 0.099420 -0.135746
C55   C     C_2   0.767660 0.195547 0.990644 -0.151420
C56   C     C_2   0.688855 0.757426 0.099268 -0.139759
C57   C     C_2   0.808832 0.251274 0.915262 -0.098692
C58   C     C_2   0.722734 0.694204 0.034506 -0.082226
C59   C     C_2   0.310822 0.750367 0.912919 -0.125295
C60   C     C_2   0.222511 0.194018 0.034852 -0.091347
C61   C     C_R   0.366726 0.887566 0.895953 -0.102732
C62   C     C_R   0.332295 0.089075 0.947361 -0.103810
C63   C     C_R   0.866301 0.387861 0.896379 -0.099775
C64   C     C_R   0.832375 0.589169 0.947199 -0.088039
C65   C     C_R   0.405129 0.107699 0.305009 -0.156986
C66   C     C_R   0.359704 0.922088 0.314646 -0.126680
C67   C     C_R   0.905371 0.607649 0.304870 -0.153858
C68   C     C_R   0.856814 0.423472 0.313599 -0.131607
C69   C     C_R   0.291701 0.151502 0.018171 0.105630
C70   C     C_R   0.348961 0.811531 0.933871 0.129996
C71   C     C_R   0.791810 0.651610 0.017976 0.100896
C72   C     C_R   0.848576 0.311866 0.934214 0.116289
C73   C     C_R   0.310874 0.861407 0.322397 0.040160
C74   C     C_R   0.385249 0.184873 0.304765 0.080241
C75   C     C_R   0.806809 0.363883 0.320039 0.031032
C76   C     C_R   0.886108 0.685029 0.304405 0.082842
C77   C     C_R   0.649425 0.187258 0.975643 0.483957
C78   C     C_R   0.615248 0.798449 0.019934 0.445101
C79   C     C_R   0.151092 0.686106 0.972601 0.472187
C80   C     C_R   0.115247 0.298434 0.019900 0.440520
C81   C     C_R   0.650628 0.829822 0.782388 -0.045126
C82   C     C_R   0.607593 0.196563 0.786337 0.053642
C83   C     C_R   0.151273 0.330520 0.782263 -0.049804
C84   C     C_R   0.099969 0.698284 0.790654 0.018330
C85   C     C_R   0.597572 0.103695 0.693155 -0.075069
C86   C     C_R   0.643584 0.924188 0.686965 -0.123223
C87   C     C_R   0.095040 0.604545 0.694520 -0.047650
C88   C     C_R   0.143661 0.424606 0.687126 -0.100300
H1    H     H_    0.333388 0.228161 0.093184 0.095572
H2    H     H_    0.386278 0.747667 0.022374 0.129881
H3    H     H_    0.833460 0.728198 0.093122 0.097049
H4    H     H_    0.886878 0.247502 0.021179 0.132448
H5    H     H_    0.219358 0.196732 0.446582 0.177466
H6    H     H_    0.202954 0.920536 0.529798 0.167237
H7    H     H_    0.720499 0.700000 0.441661 0.174151
H8    H     H_    0.666888 0.415126 0.516493 0.173619
H9    H     H_    0.644095 0.767029 0.598295 0.170283
H10   H     H_    0.579115 0.325971 0.649837 0.187076
H11   H     H_    0.143824 0.263060 0.603949 0.176484
H12   H     H_    0.109893 0.844873 0.675401 0.168950
H13   H     H_    0.190624 0.207580 0.653485 0.242501
H14   H     H_    0.196789 0.815358 0.673883 0.251248
H15   H     H_    0.685650 0.708335 0.652002 0.243666
H16   H     H_    0.646878 0.336826 0.688028 0.234439
H17   H     H_    0.395072 0.181608 0.475754 0.222512
H18   H     H_    0.364897 0.755495 0.389105 0.225704
H19   H     H_    0.892170 0.677841 0.477701 0.229041
H20   H     H_    0.865563 0.296014 0.412314 0.217226
H21   H     H_    0.897950 0.847154 0.316185 0.227972
H22   H     H_    0.713163 0.241230 0.339058 0.203095
H23   H     H_    0.393152 0.347260 0.314703 0.227902
H24   H     H_    0.184748 0.771255 0.364003 0.210650
H25   H     H_    0.804524 0.821946 0.329408 0.154177
H26   H     H_    0.636248 0.309226 0.433600 0.171277
H27   H     H_    0.298970 0.318463 0.331903 0.151150
H28   H     H_    0.134840 0.851829 0.455671 0.170741
H29   H     H_    0.721396 0.884413 0.482547 0.111642
H30   H     H_    0.579850 0.206038 0.552145 0.165855
H31   H     H_    0.216365 0.381222 0.485169 0.102332
H32   H     H_    0.055772 0.766174 0.595441 0.163317
H33   H     H_    0.453796 0.263587 0.391408 0.168938
H34   H     H_    0.313925 0.703696 0.342760 0.175205
H35   H     H_    0.952969 0.759980 0.396041 0.173830
H36   H     H_    0.843439 0.219338 0.354369 0.203432
H37   H     H_    0.330683 0.778158 0.198422 0.108835
H38   H     H_    0.396739 0.255143 0.175889 0.119367
H39   H     H_    0.833212 0.277928 0.194847 0.112045
H40   H     H_    0.897032 0.755213 0.175844 0.119168
H41   H     H_    0.878082 0.845507 0.536898 0.115919
H42   H     H_    0.780896 0.152318 0.508992 0.155244
H43   H     H_    0.379098 0.350837 0.530238 0.121845
H44   H     H_    0.242495 0.632480 0.491871 0.121479
H45   H     H_    0.277613 0.684043 0.050544 0.135632
H46   H     H_    0.204261 0.273388 0.153775 0.126655
H47   H     H_    0.776002 0.185611 0.053380 0.135729
H48   H     H_    0.704266 0.773361 0.153764 0.125773
H49   H     H_    0.801505 0.259437 0.851352 0.191939
H50   H     H_    0.711344 0.680123 0.975933 0.180975
H51   H     H_    0.304510 0.758519 0.848126 0.180616
H52   H     H_    0.210981 0.179787 0.976464 0.180188
H53   H     H_    0.362271 0.912582 0.834877 0.119553
H54   H     H_    0.312994 0.056491 0.905373 0.119934
H55   H     H_    0.861244 0.413136 0.835935 0.117505
H56   H     H_    0.813125 0.556665 0.905097 0.120619
H57   H     H_    0.410313 0.078877 0.363421 0.108907
H58   H     H_    0.350608 0.958515 0.378190 0.101294
H59   H     H_    0.910164 0.578399 0.363366 0.116804
H60   H     H_    0.846512 0.458833 0.378702 0.109085
H61   H     H_    0.665373 0.777259 0.806406 0.209247
H62   H     H_    0.610944 0.252947 0.814444 0.169132
H63   H     H_    0.167272 0.278451 0.805885 0.205247
H64   H     H_    0.095751 0.755371 0.823338 0.146038
H65   H     H_    0.585816 0.075123 0.641139 0.162192
H66   H     H_    0.654431 0.961186 0.623161 0.161213
H67   H     H_    0.091378 0.572889 0.637181 0.161258
H68   H     H_    0.154269 0.461379 0.623410 0.141373
H69   H     H_    0.638810 0.921506 0.164153 0.130979
H70   H     H_    0.682213 0.053440 0.103766 0.140689
H71   H     H_    0.138678 0.421419 0.164297 0.131653
H72   H     H_    0.183399 0.552690 0.101651 0.138153
H73   H     H_    0.260755 0.137370 0.501153 0.182590
H74   H     H_    0.289950 0.873931 0.517651 0.211295
H75   H     H_    0.758198 0.638481 0.499055 0.186164
H76   H     H_    0.747568 0.398907 0.534076 0.214648
N1    N     N_R   0.408680 0.130160 0.995800 -0.053371
N2    N     N_R   0.408680 0.869840 0.995800 -0.045772
N3    N     N_R   0.908680 0.630160 0.995800 -0.055297
N4    N     N_R   0.908680 0.369840 0.995800 -0.046696
N5    N     N_R   0.421680 0.867580 0.153120 -0.033364
N6    N     N_R   0.421680 0.132420 0.153120 -0.044429
N7    N     N_R   0.921680 0.367580 0.153120 -0.034788
N8    N     N_R   0.921680 0.632420 0.153120 -0.045319
N9    N     N_R   0.403730 0.921770 0.935950 -0.054840
N10   N     N_R   0.403730 0.078230 0.935950 -0.054683
N11   N     N_R   0.903730 0.421770 0.935950 -0.055286
N12   N     N_R   0.903730 0.578230 0.935950 -0.055794
N13   N     N_R   0.426630 0.075970 0.212960 -0.041147
N14   N     N_R   0.426630 0.924030 0.212960 -0.044869
N15   N     N_R   0.926630 0.575970 0.212960 -0.042282
N16   N     N_R   0.926630 0.424030 0.212960 -0.044767
N17   N     N_R   0.591320 0.134600 0.004200 -0.088422
N18   N     N_R   0.591320 0.865400 0.004200 -0.080227
N19   N     N_R   0.091320 0.634600 0.004200 -0.086192
N20   N     N_R   0.091320 0.365400 0.004200 -0.079712
N21   N     N_R   0.578320 0.867660 0.846880 -0.058576
N22   N     N_R   0.578320 0.132340 0.846880 -0.054340
N23   N     N_R   0.078320 0.367660 0.846880 -0.058993
N24   N     N_R   0.078320 0.632340 0.846880 -0.042918
N25   N     N_R   0.573370 0.074390 0.787040 -0.053008
N26   N     N_R   0.573370 0.925610 0.787040 -0.062476
N27   N     N_R   0.073370 0.574390 0.787040 -0.048634
N28   N     N_R   0.073370 0.425610 0.787040 -0.065069
N29   N     N_R   0.596270 0.927870 0.064040 -0.057556
N30   N     N_R   0.596270 0.072130 0.064040 -0.063324
N31   N     N_R   0.096270 0.427870 0.064040 -0.057775
N32   N     N_R   0.096270 0.572130 0.064040 -0.062907
Ni1   Ni    Ni4+2 0.500000 0.131190 0.000000 0.259811
Ni2   Ni    Ni4+2 0.500000 0.868810 0.000000 0.282594
Ni3   Ni    Ni4+2 0.000000 0.631190 0.000000 0.260337
Ni4   Ni    Ni4+2 0.000000 0.368810 0.000000 0.283874
Ni5   Ni    Ni4+2 0.488650 1.000000 0.862740 0.224059
Ni6   Ni    Ni4+2 0.988650 0.500000 0.862740 0.236394
Ni7   Ni    Ni4+2 0.511350 0.000000 0.137260 0.226421
Ni8   Ni    Ni4+2 0.011350 0.500000 0.137260 0.232054
S1    S     S_3+6 0.834842 0.746548 0.665449 -0.077372
O1    O     O_2   0.921215 0.717315 0.621360 -0.261605
O2    O     O_2   0.808656 0.805456 0.753281 -0.324968
O3    O     O_3   0.769336 0.669466 0.716411 -0.560482
H77   H     H_    0.771802 0.648726 0.774639 0.378144
S2    S     S_3+6 0.808518 0.236341 0.604607 -0.046377
O4    O     O_2   0.780156 0.174988 0.690095 -0.285726
O5    O     O_2   0.902815 0.233003 0.527263 -0.273841
O6    O     O_3   0.779717 0.325662 0.662621 -0.550256
H78   H     H_    0.807578 0.331334 0.698343 0.379693
S3    S     S_3+6 0.341001 0.254950 0.660515 -0.084880
O7    O     O_2   0.429385 0.231211 0.614694 -0.319956
O8    O     O_2   0.312138 0.315064 0.747901 -0.310990
O9    O     O_3   0.279921 0.174885 0.712721 -0.564609
H79   H     H_    0.284700 0.156370 0.769904 0.374094
S4    S     S_3+6 0.312443 0.673798 0.565091 -0.017729
O10   O     O_2   0.267528 0.618198 0.659392 -0.269702
O11   O     O_2   0.394665 0.636876 0.475755 -0.215752
O12   O     O_3   0.332713 0.757764 0.602596 -0.566197
H80   H     H_    0.361362 0.741328 0.634750 0.371522
Cl1   Cl    Cl    0.829571 0.960473 0.463630 -0.602010
Cl2   Cl    Cl    0.688919 0.112610 0.441756 -0.676207
Cl3   Cl    Cl    0.324736 0.461213 0.459888 -0.598920
Cl4   Cl    Cl    0.105817 0.651300 0.486362 -0.667324
Cl5   Cl    Cl    0.637577 0.287010 0.957249 -0.692469
Cl6   Cl    Cl    0.568518 0.710190 0.021198 -0.685979
Cl7   Cl    Cl    0.142595 0.785166 0.947707 -0.704968
Cl8   Cl    Cl    0.068589 0.210214 0.020893 -0.682872

loop_
_geom_bond_atom_site_label_1
_geom_bond_atom_site_label_2
_ccdc_geom_bond_type
C61   C70   A    
N4    N11   A    
C39   C51   S    
C54   C60   D    
S4    O12   S    
C48   C76   A    
C19   C23   S    
O12   H80   S    
N18   Ni2   S    
C4    C72   A    
C44   H44   S    
C43   S3    S    
C25   C43   S    
C6    C9    A    
S4    O11   D    
C53   C59   D    
C3    N3    A    
N21   N26   A    
C29   C49   S    
S1    O1    D    
C68   C75   A    
C66   N14   A    
C34   C73   S    
C56   C58   D    
C51   H31   S    
C82   N22   A    
N24   N27   A    
C24   H10   S    
C88   H68   S    
C45   C73   A    
C80   Cl8   S    
C38   C42   S    
C67   H59   S    
C32   H24   S    
S3    O8    D    
C21   H11   S    
C81   H61   S    
C58   C71   S    
C48   H40   S    
C67   N15   A    
C85   N25   A    
C54   H46   S    
C13   C81   A    
C16   C84   A    
N8    Ni3   S    
C3    H3    S    
C64   C71   A    
C81   N21   A    
C2    H2    S    
C32   C52   S    
C15   C88   A    
C62   N10   A    
C56   H48   S    
C48   N8    A    
C26   C34   S    
C23   H15   S    
C20   C24   S    
C45   H37   S    
O3    H77   S    
N20   Ni4   S    
C44   S4    S    
C13   C86   A    
C16   C87   A    
C24   C38   S    
N13   Ni7   S    
N22   Ni1   S    
C8    N32   A    
C9    C55   S    
N27   Ni6   S    
C59   H51   S    
N21   Ni2   S    
N32   Ni8   S    
C10   C56   S    
C2    N2    A    
C5    N29   A    
C13   C37   S    
C11   C53   S    
C17   H73   S    
C79   Cl7   S    
C21   H13   S    
C58   H50   S    
C1    C69   A    
C20   H8    S    
N17   Ni1   S    
C18   C22   S    
N14   Ni7   S    
C37   C41   S    
C47   N7    A    
C26   H18   S    
C17   C33   S    
C62   H54   S    
C22   H14   S    
C31   H27   S    
S4    O10   D    
C6    H70   S    
C6    N30   A    
C52   Cl4   S    
C83   H63   S    
S1    O2    D    
C10   C78   A    
C7    C12   A    
C30   C50   S    
C5    H69   S    
C49   H29   S    
C35   C76   S    
C86   N26   A    
C22   H12   S    
N6    N13   A    
C26   C44   S    
O6    H78   S    
N12   Ni6   S    
C53   H45   S    
C30   H22   S    
C25   H17   S    
S3    O9    S    
C14   C85   A    
C27   H35   S    
N9    Ni5   S    
C85   H65   S    
N31   Ni8   S    
C64   H56   S    
N24   Ni3   S    
C27   C35   S    
N1    N10   A    
C40   C52   S    
C66   C73   A    
C68   N16   A    
N10   Ni5   S    
N19   Ni3   S    
C65   C74   A    
C4    N4    A    
C62   C69   A    
C45   N5    A    
C24   H16   S    
C32   C34   S    
C3    C71   A    
S3    O7    D    
N2    Ni2   S    
N7    Ni4   S    
C36   C75   S    
N1    Ni1   S    
C14   C38   S    
C37   C49   S    
C27   C41   S    
C77   N17   A    
C21   C39   S    
C27   H19   S    
C22   C40   S    
C31   C33   S    
N19   N32   A    
C57   H49   S    
C42   H42   S    
N18   N29   A    
C19   H75   S    
C32   H28   S    
C47   H39   S    
N17   N30   A    
C18   C34   S    
C15   C39   S    
N23   N28   A    
C82   H62   S    
C11   C79   A    
C16   C40   S    
C52   H32   S    
N8    N15   A    
C61   H53   S    
C83   N23   A    
C60   H52   S    
S2    O5    D    
C55   C57   D    
C51   Cl3   S    
C18   H6    S    
C87   H67   S    
N7    N16   A    
C84   N24   A    
C17   H5    S    
C14   C82   A    
C7    N31   A    
C8    H72   S    
C84   H64   S    
N5    N14   A    
C46   C74   A    
C19   H7    S    
C87   N27   A    
C30   H26   S    
S1    O3    S    
C29   H21   S    
C88   N28   A    
C29   H25   S    
N2    N9    A    
C1    H1    S    
N4    Ni4   S    
C23   H9    S    
C1    N1    A    
C50   H30   S    
C46   H38   S    
N3    Ni3   S    
N28   Ni6   S    
N11   Ni6   S    
C31   C51   S    
N16   Ni8   S    
C68   H60   S    
C15   C83   A    
C28   H36   S    
N26   Ni5   S    
C63   N11   A    
C38   C50   S    
C78   Cl6   S    
S2    O6    S    
C25   H33   S    
C29   C35   S    
C77   Cl5   S    
N29   Ni7   S    
C30   C36   S    
N23   Ni4   S    
N25   Ni5   S    
N22   N25   A    
C43   H43   S    
C42   S2    S    
C9    C77   A    
C47   C75   A    
C5    C10   A    
C23   C37   S    
C41   H41   S    
C18   H74   S    
O9    H79   S    
C86   H66   S    
C65   N13   A    
C60   C69   S    
C28   H20   S    
C8    C11   A    
C55   H47   S    
N30   Ni7   S    
C12   C80   A    
C65   H57   S    
C28   C42   S    
C79   N19   A    
N20   N31   A    
C31   H23   S    
C80   N20   A    
C57   C72   S    
C41   S1    S    
C17   C21   S    
N15   Ni8   S    
C66   H58   S    
C50   Cl2   S    
C59   C70   S    
C20   C36   S    
C46   N6    A    
C33   C74   S    
C40   C44   S    
C7    H71   S    
C63   C72   A    
C28   C36   S    
S2    O4    D    
C39   C43   S    
C61   N9    A    
C63   H55   S    
C64   N12   A    
C19   C35   S    
C67   C76   A    
C26   H34   S    
C78   N18   A    
C2    C70   A    
C49   Cl1   S    
N6    Ni1   S    
C12   C54   S    
C25   C33   S    
N3    N12   A    
C4    H4    S    
N5    Ni2   S    
C20   H76   S    
