data_mof_unit_64581.cif
_audit_creation_date              2012-12-10T21:26:48-0500
_audit_creation_method            fapswitch 2.2
_symmetry_space_group_name_H-M    P1
_symmetry_Int_Tables_number       1
_space_group_crystal_system       triclinic
_cell_length_a                    10.720297
_cell_length_b                    16.186319
_cell_length_c                    16.697742
_cell_angle_alpha                 87.000291
_cell_angle_beta                  90.56064
_cell_angle_gamma                 91.536791
_cell_volume                      2892.31529281

loop_
_atom_site_label
_atom_site_type_symbol
_atom_type_description
_atom_site_fract_x
_atom_site_fract_y
_atom_site_fract_z
_atom_type_partial_charge
Br1   Br    Br    0.752942 0.568203 0.072690 -0.334808
Br2   Br    Br    0.705595 0.884610 0.653940 -0.420922
Br3   Br    Br    0.337627 0.723565 0.379497 -0.431019
Br4   Br    Br    0.226237 0.505938 0.276768 -0.422359
Br5   Br    Br    0.597864 0.318120 0.745541 -0.475620
Br6   Br    Br    0.765640 0.550107 0.273606 -0.409661
C1    C     C_R   0.497849 0.488298 0.653350 0.904924
C2    C     C_R   0.497212 0.522048 0.260928 -0.221677
C3    C     C_R   0.608207 0.539352 0.218206 0.151279
C4    C     C_R   0.737424 0.500059 0.492897 0.897241
C5    C     C_R   0.603488 0.547824 0.134443 0.275913
C6    C     C_R   0.445966 0.767369 0.459132 0.379181
C7    C     C_R   0.452549 0.853724 0.463962 -0.324812
C8    C     C_R   0.530148 0.890368 0.521505 0.230140
C9    C     C_R   0.599936 0.837782 0.573075 0.152710
C10   C     C_R   0.592295 0.751199 0.565748 -0.043071
C11   C     C_R   0.580968 0.153486 0.529199 -0.112552
C12   C     C_R   0.418911 0.545255 0.775180 -0.246543
C13   C     C_R   0.575717 0.240303 0.530690 -0.017091
C14   C     C_R   0.487949 0.109371 0.485989 0.276286
C15   C     C_R   0.396794 0.242070 0.446797 0.091237
C16   C     C_R   0.500751 0.511780 0.347203 1.002131
C17   C     C_R   0.397162 0.155583 0.444417 -0.304662
C18   C     C_R   0.262769 0.500711 0.501626 0.973191
C19   C     C_2   0.074263 0.563168 0.460220 -0.118726
C20   C     C_2   0.131217 0.503851 0.503875 -0.325846
C21   C     C_2   0.940079 0.568969 0.463594 -0.022370
C22   C     C_2   0.866914 0.499285 0.469431 -0.210837
C23   C     C_R   0.396784 0.541126 0.856672 -0.130865
C24   C     C_R   0.478066 0.480292 0.739601 -0.110203
C25   C     C_1   0.685876 0.114205 0.568493 0.270189
C26   C     C_1   0.668450 0.698975 0.617513 0.364532
C27   C     C_1   0.303060 0.286526 0.401739 0.264188
C28   C     C_1   0.893875 0.652304 0.463510 0.304681
C29   C     C_1   0.910676 0.420550 0.443306 0.284036
C30   C     C_R   0.434067 0.472024 0.903807 0.269307
C31   C     C_R   0.487168 0.405230 0.868691 -0.169855
C32   C     C_R   0.511018 0.408949 0.786741 0.256205
C33   C     C_R   0.378180 0.525265 0.138023 -0.210440
C34   C     C_R   0.381684 0.518200 0.220942 0.229765
C35   C     C_R   0.488925 0.537576 0.094859 0.148367
H1    H     H_    0.127058 0.610626 0.425678 0.225873
H2    H     H_    0.354443 0.592769 0.883782 0.174639
H3    H     H_    0.390098 0.599724 0.740019 0.186726
H4    H     H_    0.646251 0.274423 0.563195 0.174345
H5    H     H_    0.396268 0.891464 0.423055 0.208163
H6    H     H_    0.326523 0.123822 0.409660 0.171228
H7    H     H_    0.081649 0.457716 0.541893 0.143652
H8    H     H_    0.289481 0.520361 0.106745 0.211567
H9    H     H_    0.516711 0.352433 0.905999 0.188189
N1    N     N_2   0.432158 0.473090 0.987603 -0.160208
N2    N     N_1   0.857830 0.719098 0.462973 -0.160026
N3    N     N_1   0.944839 0.357995 0.422480 -0.149484
N4    N     N_2   0.486769 0.536357 0.011059 -0.115701
N5    N     N_R   0.515110 0.716920 0.509720 -0.152454
N6    N     N_2   0.539389 0.978303 0.530241 -0.106795
N7    N     N_2   0.482034 0.021234 0.478252 -0.162302
N8    N     N_R   0.484890 0.283060 0.490290 -0.118199
N9    N     N_1   0.770769 0.083509 0.599964 -0.099511
N10   N     N_1   0.730340 0.657680 0.659332 -0.171218
N11   N     N_1   0.226806 0.321348 0.365190 -0.120930
O1    O     O_R   0.494590 0.422540 0.612660 -0.581250
O2    O     O_R   0.504290 0.561850 0.618900 -0.637672
O3    O     O_R   0.676080 0.430360 0.496880 -0.622453
O4    O     O_R   0.685780 0.569670 0.503120 -0.620256
O5    O     O_R   0.495710 0.438150 0.381100 -0.613814
O6    O     O_R   0.505410 0.577460 0.387340 -0.559415
O7    O     O_R   0.314220 0.430330 0.496880 -0.615808
O8    O     O_R   0.323920 0.569640 0.503120 -0.594418
Zn1   Zn    Zn3+2 0.493520 0.406980 0.495830 1.002543
Zn2   Zn    Zn3+2 0.506480 0.593020 0.504170 1.013427

loop_
_geom_bond_atom_site_label_1
_geom_bond_atom_site_label_2
_ccdc_geom_bond_type
C19   H1    S    
C2    C3    A    
C2    C16   S    
C13   H4    S    
C1    O1    A    
C16   O5    A    
C31   C32   A    
C12   C24   A    
C15   C27   S    
O3    Zn1   S    
C10   C26   S    
C13   N8    A    
C8    N6    S    
Br1   C5    S    
C14   C17   A    
C20   H7    S    
N1    N4    D    
Br6   C3    S    
C19   C20   D    
C10   N5    A    
C15   N8    A    
C33   C35   A    
C12   C23   A    
Br5   C32   S    
C23   H2    S    
Br2   C9    S    
C3    C5    A    
C23   C30   A    
C1    O2    A    
O5    Zn1   S    
C30   N1    S    
C31   H9    S    
C30   C31   A    
C33   H8    S    
C18   C20   S    
C18   O8    A    
C5    C35   A    
O6    Zn2   S    
C15   C17   A    
C21   C28   S    
C7    H5    S    
C11   C25   S    
C4    O3    A    
C35   N4    S    
C6    N5    A    
C29   N3    T    
N6    N7    D    
C26   N10   T    
C4    C22   S    
C9    C10   A    
C12   H3    S    
C21   C22   D    
C11   C14   A    
C17   H6    S    
C6    C7    A    
C24   C32   A    
C27   N11   T    
C4    O4    A    
C25   N9    T    
C33   C34   A    
O8    Zn2   S    
O7    Zn1   S    
C18   O7    A    
C8    C9    A    
N8    Zn1   S    
O1    Zn1   S    
Br3   C6    S    
C2    C34   A    
C7    C8    A    
C11   C13   A    
C14   N7    S    
O4    Zn2   S    
C28   N2    T    
N5    Zn2   S    
Br4   C34   S    
C22   C29   S    
O2    Zn2   S    
C16   O6    A    
C19   C21   S    
C1    C24   S    
