data_mof_unit_12120.cif
_audit_creation_date              2012-12-11T15:29:40-0500
_audit_creation_method            fapswitch 2.2
_symmetry_space_group_name_H-M    P1
_symmetry_Int_Tables_number       1
_space_group_crystal_system       triclinic
_cell_length_a                    21.612243
_cell_length_b                    7.255877
_cell_length_c                    14.925601
_cell_angle_alpha                 89.748689
_cell_angle_beta                  73.409946
_cell_angle_gamma                 90.157807
_cell_volume                      2243.09565773

loop_
_atom_site_label
_atom_site_type_symbol
_atom_type_description
_atom_site_fract_x
_atom_site_fract_y
_atom_site_fract_z
_atom_type_partial_charge
O1    O     O_R   0.464160 0.506670 0.130070 -0.563903
O2    O     O_R   0.535840 0.006670 0.869930 -0.535767
O3    O     O_R   0.589710 0.179080 0.006710 -0.538557
O4    O     O_R   0.410290 0.679080 0.993290 -0.580771
C1    C     C_R   0.616386 0.344048 0.001514 0.794194
C2    C     C_R   0.382798 0.842777 0.001976 0.796349
O5    O     O_R   0.467940 0.177220 0.138010 -0.530926
O6    O     O_R   0.532060 0.677220 0.861990 -0.527008
O7    O     O_R   0.413200 0.002810 0.002170 -0.508166
O8    O     O_R   0.586800 0.502810 0.997830 -0.528647
C3    C     C_R   0.456944 0.345398 0.174732 0.772620
C4    C     C_R   0.542916 0.846835 0.825330 0.840058
O9    O     O_3   0.482180 0.337850 0.955280 -0.387414
O10   O     O_3   0.517820 0.837850 0.044720 -0.397809
V1    V     V_3+5 0.503310 0.064600 0.008300 1.530648
V2    V     V_3+5 0.496690 0.564600 0.991700 1.472178
C5    C     C_R   0.567749 0.864730 0.722728 -0.130352
C6    C     C_R   0.430933 0.357534 0.277300 -0.104789
C7    C     C_R   0.923965 0.873686 0.278739 -0.181347
C8    C     C_R   0.076437 0.376709 0.721283 -0.178603
C9    C     C_R   0.559650 0.005520 0.577279 0.331634
C10   C     C_R   0.437939 0.487618 0.424544 0.340643
C11   C     C_R   0.531528 0.959480 0.673013 0.175902
C12   C     C_R   0.467224 0.442691 0.329684 0.164609
C13   C     C_R   0.629965 0.804448 0.677033 0.219227
C14   C     C_R   0.368644 0.293132 0.321486 0.220141
C15   C     C_R   0.661669 0.869767 0.585286 -0.107198
C16   C     C_R   0.336113 0.352651 0.413556 -0.103688
C17   C     C_R   0.624989 0.958766 0.532773 -0.062744
C18   C     C_R   0.372067 0.443066 0.466631 -0.060068
C19   C     C_R   0.729983 0.864854 0.547881 0.015435
C20   C     C_R   0.267706 0.342674 0.450811 0.019982
C21   C     C_R   0.758836 0.887105 0.450945 0.059505
C22   C     C_R   0.239074 0.362224 0.547939 0.067876
C23   C     C_R   0.720632 0.958885 0.396986 -0.244100
C24   C     C_R   0.276646 0.437439 0.601826 -0.251039
C25   C     C_R   0.655739 0.007439 0.438337 0.475486
C26   C     C_R   0.340575 0.494721 0.559597 0.473435
C27   C     C_R   0.769816 0.871340 0.607249 -0.291283
C28   C     C_R   0.227409 0.347571 0.391615 -0.305292
C29   C     C_R   0.836982 0.888039 0.573092 0.520579
C30   C     C_R   0.160217 0.374966 0.426345 0.537899
C31   C     C_R   0.866223 0.892012 0.475172 -0.093891
C32   C     C_R   0.132479 0.386887 0.524411 -0.085432
C33   C     C_R   0.827121 0.870950 0.413895 -0.133746
C34   C     C_R   0.171001 0.350051 0.584779 -0.141095
C35   C     C_R   0.933027 0.924769 0.436522 0.339536
C36   C     C_R   0.068641 0.448464 0.564553 0.340851
C37   C     C_R   0.958707 0.942810 0.338204 0.139453
C38   C     C_R   0.046191 0.471644 0.662761 0.121913
C39   C     C_R   0.857762 0.834712 0.317530 0.347042
C40   C     C_R   0.139839 0.313401 0.681076 0.353413
H1    H     H_    0.743158 0.003428 0.325838 0.169930
H2    H     H_    0.253555 0.480881 0.672775 0.156145
H3    H     H_    0.748227 0.888244 0.681129 0.158569
H4    H     H_    0.249266 0.357380 0.317476 0.170344
C41   C     C_3   0.215943 0.660960 0.978808 -0.314562
C42   C     C_3   0.788242 0.152033 0.004461 -0.349313
H5    H     H_    0.182622 0.550568 0.016519 0.193180
H6    H     H_    0.815818 0.065622 0.945375 0.194922
H7    H     H_    0.223130 0.635772 0.902963 0.107439
H8    H     H_    0.796042 0.088375 0.068447 0.140278
C43   C     C_3   0.281520 0.644775 0.002049 0.326226
C44   C     C_3   0.715092 0.149145 0.012432 0.296600
H9    H     H_    0.314093 0.562686 0.945430 0.069047
H10   H     H_    0.692542 0.114210 0.087021 0.129755
C45   C     C_3   0.193439 0.906962 0.104862 0.334211
C46   C     C_3   0.804439 0.429928 0.899777 0.279201
C47   C     C_3   0.228186 0.991868 0.932933 -0.545701
C48   C     C_3   0.770969 0.464265 0.078456 -0.488578
C49   C     C_3   0.186117 0.856148 0.005607 -0.116539
C50   C     C_3   0.813759 0.354411 0.993875 -0.112511
H11   H     H_    0.214768 0.134593 0.957965 0.174906
H12   H     H_    0.789462 0.607963 0.076767 0.206380
H13   H     H_    0.216378 0.979102 0.866009 0.163306
H14   H     H_    0.777327 0.397933 0.142193 0.132714
C51   C     C_3   0.310462 0.846024 0.005396 -0.095431
C52   C     C_3   0.687903 0.349633 0.999572 -0.112268
C53   C     C_3   0.267102 0.941101 0.095668 0.193670
C54   C     C_3   0.730701 0.448767 0.908827 0.132497
C55   C     C_3   0.302438 0.960050 0.919436 0.641969
C56   C     C_3   0.697230 0.467217 0.083483 0.583845
H15   H     H_    0.167260 0.037281 0.130402 0.006480
H16   H     H_    0.826107 0.570495 0.885059 0.036380
H17   H     H_    0.276242 0.091378 0.088981 0.058997
H18   H     H_    0.719349 0.597978 0.914146 0.140979
O11   O     O_R   0.913210 0.208550 0.002110 -0.543308
O12   O     O_R   0.086790 0.708550 0.997890 -0.549133
O13   O     O_R   0.032060 0.539960 0.861980 -0.524555
O14   O     O_R   0.967940 0.039960 0.138020 -0.528483
C57   C     C_R   0.046848 0.374677 0.824876 0.781431
C58   C     C_R   0.953489 0.873729 0.175152 0.792217
O15   O     O_R   0.910290 0.538020 0.993280 -0.545005
O16   O     O_R   0.089710 0.038020 0.006720 -0.540284
O17   O     O_R   0.964160 0.712340 0.130090 -0.544347
O18   O     O_R   0.035840 0.212340 0.869910 -0.537940
C59   C     C_R   0.884296 0.368258 0.996596 0.690136
C60   C     C_R   0.115937 0.868928 0.001975 0.688155
O19   O     O_3   0.017820 0.379210 0.044690 -0.387722
O20   O     O_3   0.982180 0.879210 0.955310 -0.381173
V3    V     V_3+5 0.996690 0.652500 0.991710 1.429587
V4    V     V_3+5 0.003310 0.152500 0.008290 1.436599
O21   O     O_3   0.625844 0.126813 0.391259 -0.526583
C61   C     C_3   0.612251 0.033720 0.316666 -0.161954
H19   H     H_    0.586686 0.900785 0.339900 0.114263
H20   H     H_    0.657191 0.013685 0.258872 0.110354
H21   H     H_    0.579549 0.120066 0.289063 0.200103
O22   O     O_3   0.367789 0.629821 0.601779 -0.530259
C62   C     C_3   0.381940 0.556282 0.680652 -0.166621
H22   H     H_    0.405730 0.419130 0.666448 0.118436
H23   H     H_    0.337256 0.550849 0.739794 0.111794
H24   H     H_    0.416339 0.649786 0.700678 0.205545
O23   O     O_3   0.971916 0.947273 0.494887 -0.609595
H25   H     H_    0.017081 0.918152 0.459659 0.307810
O24   O     O_3   0.030997 0.500157 0.507854 -0.606800
H26   H     H_    0.985096 0.502158 0.545636 0.301063
O25   O     O_3   0.267094 0.552345 0.090066 -0.523517
C63   C     C_3   0.318616 0.450847 0.104600 -0.097990
H27   H     H_    0.298360 0.342323 0.156663 0.129781
H28   H     H_    0.347262 0.540267 0.137639 0.172263
H29   H     H_    0.348594 0.381468 0.040830 0.150832
O26   O     O_3   0.695762 0.994448 0.968251 -0.542177
C64   C     C_3   0.709779 0.006815 0.870634 -0.097910
H30   H     H_    0.759203 0.055861 0.836305 0.198276
H31   H     H_    0.672306 0.086997 0.850559 0.181592
H32   H     H_    0.706329 0.866607 0.843947 0.123493
O27   O     O_3   0.171534 0.762451 0.171456 -0.509927
C65   C     C_3   0.104046 0.741036 0.200517 -0.109233
H33   H     H_    0.077964 0.855831 0.179361 0.123072
H34   H     H_    0.087812 0.728988 0.277818 0.201235
H35   H     H_    0.090895 0.611482 0.171198 0.134351
O28   O     O_3   0.831156 0.309303 0.823683 -0.553357
C66   C     C_3   0.898840 0.316269 0.791401 -0.193571
H36   H     H_    0.919752 0.438507 0.815959 0.150856
H37   H     H_    0.913475 0.317844 0.713882 0.194041
H38   H     H_    0.918906 0.189664 0.814126 0.148856
O29   O     O_3   0.283362 0.878826 0.175309 -0.601604
H39   H     H_    0.255812 0.948337 0.229023 0.309250
O30   O     O_3   0.715629 0.388819 0.828241 -0.638507
H40   H     H_    0.740959 0.466825 0.775659 0.316857
O31   O     O_3   0.332222 0.857542 0.838166 -0.669029
H41   H     H_    0.310929 0.883783 0.788905 0.276003
O32   O     O_3   0.659608 0.386076 0.168436 -0.678064
H42   H     H_    0.674958 0.432293 0.220780 0.289925
O33   O     O_3   0.823030 0.764356 0.260713 -0.563554
C67   C     C_3   0.806593 0.578722 0.286265 -0.227790
H43   H     H_    0.804588 0.540935 0.359593 0.134414
H44   H     H_    0.841763 0.486627 0.238331 0.146804
H45   H     H_    0.757628 0.552126 0.279794 0.147912
O34   O     O_3   0.172148 0.225097 0.736611 -0.564514
C68   C     C_3   0.183887 0.039496 0.707589 -0.225704
H46   H     H_    0.176934 0.005940 0.638176 0.135652
H47   H     H_    0.151472 0.947928 0.760484 0.148626
H48   H     H_    0.234651 0.005434 0.703193 0.143990
O35   O     O_3   0.334556 0.131708 0.917586 -0.551093
C69   C     C_3   0.336253 0.239786 0.838524 -0.192493
H49   H     H_    0.288496 0.302726 0.844584 0.119676
H50   H     H_    0.353567 0.164665 0.771732 0.164838
H51   H     H_    0.371614 0.351618 0.836150 0.147511
O36   O     O_3   0.680330 0.655528 0.073226 -0.555628
C70   C     C_3   0.627884 0.721284 0.145408 -0.045922
H52   H     H_    0.638928 0.716583 0.213333 0.095476
H53   H     H_    0.583223 0.644181 0.148359 0.202348
H54   H     H_    0.618755 0.866608 0.130557 0.137503
O37   O     O_3   0.015533 0.037050 0.299671 -0.671919
H55   H     H_    0.023890 0.118978 0.347828 0.321550
O38   O     O_3   0.998706 0.597527 0.701456 -0.670704
H56   H     H_    0.999218 0.693815 0.653911 0.317543
O39   O     O_3   0.872777 0.925957 0.634730 -0.519415
C71   C     C_3   0.865977 0.781687 0.700698 -0.180353
H57   H     H_    0.898148 0.811202 0.744924 0.181587
H58   H     H_    0.879855 0.646798 0.665637 0.142518
H59   H     H_    0.816616 0.773209 0.749366 0.087882
O40   O     O_3   0.121853 0.410304 0.367172 -0.518627
C72   C     C_3   0.141330 0.311333 0.282546 -0.236967
H60   H     H_    0.101158 0.311412 0.250195 0.178326
H61   H     H_    0.153091 0.165252 0.293718 0.123524
H62   H     H_    0.182053 0.381926 0.231719 0.196087
O41   O     O_3   0.525100 0.101925 0.527660 -0.606686
H63   H     H_    0.495075 0.186969 0.570607 0.304673
O42   O     O_3   0.472511 0.577384 0.476263 -0.611025
H64   H     H_    0.503502 0.663455 0.434622 0.299159
O43   O     O_3   0.468074 0.999376 0.719230 -0.640190
H65   H     H_    0.442598 0.995160 0.673669 0.306297
O44   O     O_3   0.532125 0.470283 0.287671 -0.667581
H66   H     H_    0.555511 0.465716 0.335822 0.321263
O45   O     O_3   0.657789 0.678060 0.722835 -0.653198
H67   H     H_    0.688246 0.602518 0.674871 0.301654
O46   O     O_3   0.342425 0.164697 0.274927 -0.656123
H68   H     H_    0.312333 0.086169 0.322497 0.303101

loop_
_geom_bond_atom_site_label_1
_geom_bond_atom_site_label_2
_ccdc_geom_bond_type
C46   C54   S    
C43   H9    S    
C3    C6    S    
C42   H8    S    
O37   H55   S    
O18   V4    S    
C15   C17   A    
C21   C33   A    
O39   C71   S    
O1    C3    A    
C53   H17   S    
O2    C4    A    
C65   H33   S    
C2    O7    A    
C61   H20   S    
C70   H52   S    
C64   H30   S    
C27   C29   A    
O16   C60   A    
O42   H64   S    
C36   C38   A    
C45   H15   S    
C5    C11   A    
C6    C12   A    
C69   H49   S    
C23   C25   A    
C67   H43   S    
C10   O42   S    
C62   H23   S    
O33   C67   S    
C43   O25   S    
C52   C54   S    
C64   H31   S    
C23   H1    S    
C71   H57   S    
C39   O33   S    
C42   H6    S    
O32   H42   S    
C67   H45   S    
C34   C40   A    
O22   C62   S    
C18   C26   A    
C47   C49   S    
C68   H48   S    
C46   O28   S    
C52   C56   S    
O40   C72   S    
O14   V4    S    
C54   H18   S    
C7    C58   S    
C13   O45   S    
C57   O18   A    
C63   H27   S    
C27   H3    S    
O28   C66   S    
C28   H4    S    
C6    C14   A    
C4    C5    S    
C48   H12   S    
C66   H38   S    
C8    C38   A    
C68   H46   S    
C19   C21   A    
C47   H11   S    
C22   C34   A    
O13   C57   A    
C62   H22   S    
C45   C49   S    
C46   C50   S    
C28   C30   A    
O6    V2    S    
C68   H47   S    
C29   C31   A    
C30   C32   A    
C61   H19   S    
C70   H53   S    
C14   O46   S    
C32   C34   A    
O12   V3    S    
C72   H62   S    
C67   H44   S    
C50   C59   S    
C51   C53   S    
C42   C44   S    
C49   C60   S    
C15   C19   A    
C46   H16   S    
C16   C20   A    
C47   C55   S    
C35   C37   A    
C30   O40   S    
C62   H24   S    
O15   V3    S    
O38   H56   S    
C25   O21   S    
C2    C51   S    
O3    C1    A    
C29   O39   S    
C58   O17   A    
C12   O44   S    
C63   H29   S    
C20   C22   A    
O4    V2    S    
C1    C52   S    
O5    C3    A    
O43   H65   S    
C11   O43   S    
C45   O27   S    
O11   V4    S    
C56   O36   S    
C7    C37   A    
O45   H67   S    
O14   C58   A    
C72   H60   S    
C51   C55   S    
O6    C4    A    
C55   O31   S    
C45   C53   S    
O1    V2    S    
C41   C49   S    
O2    V1    S    
C31   C33   A    
C36   O24   S    
O4    C2    A    
C53   O29   S    
C37   O37   S    
C72   H61   S    
C9    C11   A    
C48   H14   S    
C66   H36   S    
C10   C12   A    
C41   H5    S    
C24   C26   A    
C65   H35   S    
O15   C59   A    
O35   C69   S    
C70   H54   S    
O3    V1    S    
O23   H25   S    
C43   C51   S    
C35   O23   S    
C10   C18   A    
O13   V3    S    
O10   V1    S    
C44   C52   S    
C69   H51   S    
C41   C43   S    
C56   O32   S    
C64   H32   S    
C65   H34   S    
C9    C17   A    
O30   H40   S    
C41   H7    S    
O27   C65   S    
C13   C15   A    
C54   O30   S    
O29   H39   S    
C14   C16   A    
C55   O35   S    
C5    C13   A    
O36   C70   S    
C69   H50   S    
O7    V1    S    
C16   C18   A    
C8    C40   A    
O8    V2    S    
O31   H41   S    
C42   C50   S    
O44   H66   S    
C71   H58   S    
C44   O26   S    
O5    V1    S    
O20   V3    S    
C21   C23   A    
C19   C27   A    
O17   V3    S    
C47   H13   S    
C9    O41   S    
C22   C24   A    
C20   C28   A    
C26   O22   S    
O46   H68   S    
C48   C56   S    
C63   H28   S    
C24   H2    S    
O41   H63   S    
C38   O38   S    
C7    C39   A    
C8    C57   S    
C1    O8    A    
O19   V4    S    
O16   V4    S    
C40   O34   S    
O9    V2    S    
C17   C25   A    
O21   C61   S    
C66   H37   S    
C33   C39   A    
O34   C68   S    
C48   C50   S    
O24   H26   S    
O26   C64   S    
O25   C63   S    
C31   C35   A    
C61   H21   S    
O12   C60   A    
C32   C36   A    
C44   H10   S    
O11   C59   A    
C71   H59   S    
