data_mof_unit_34754.cif
_audit_creation_date              2013-03-05T15:43:18-0500
_audit_creation_method            fapswitch 2.2
_symmetry_space_group_name_H-M    P1
_symmetry_Int_Tables_number       1
_space_group_crystal_system       triclinic
_cell_length_a                    10.665915
_cell_length_b                    10.668932
_cell_length_c                    10.022708
_cell_angle_alpha                 89.96072
_cell_angle_beta                  87.491646
_cell_angle_gamma                 89.617572
_cell_volume                      1139.40499029

loop_
_atom_site_label
_atom_site_type_symbol
_atom_site_description
_atom_site_fract_x
_atom_site_fract_y
_atom_site_fract_z
_atom_type_partial_charge
O1    O     O_R   0.499980 0.319060 0.613040 -0.576980
O2    O     O_R   0.500020 0.319100 0.386900 -0.607580
C1    C     C_R   0.505835 0.262132 0.499135 0.943637
O3    O     O_R   0.316750 0.499980 0.613090 -0.608679
O4    O     O_R   0.316790 0.500020 0.386950 -0.606648
C2    C     C_R   0.260252 0.487960 0.504470 0.844606
Zn1   Zn    Zn3+2 0.499970 0.499970 0.650990 1.077635
Zn2   Zn    Zn3+2 0.500030 0.500030 0.349010 1.006183
O5    O     O_R   0.499980 0.680900 0.613100 -0.589140
O6    O     O_R   0.500020 0.680940 0.386960 -0.623626
O7    O     O_R   0.683210 0.499980 0.613050 -0.576851
O8    O     O_R   0.683250 0.500020 0.386910 -0.583207
C3    C     C_R   0.510161 0.737334 0.499624 0.864481
C4    C     C_R   0.739594 0.497923 0.497078 0.856944
H1    H     H_    0.122665 0.638815 0.374648 0.165956
C5    C     C_R   0.099264 0.311727 0.697413 -0.132414
C6    C     C_R   0.022004 0.212554 0.747954 -0.070423
C7    C     C_R   0.901054 0.200185 0.704099 -0.129669
H2    H     H_    0.839320 0.128862 0.745819 0.193191
C8    C     C_R   0.853196 0.286248 0.617137 -0.056657
H3    H     H_    0.757262 0.273593 0.589601 0.169469
C9    C     C_R   0.926163 0.386848 0.567527 0.096640
C10   C     C_R   0.054247 0.394673 0.595194 0.003474
C11   C     C_R   0.126063 0.484056 0.515684 -0.084664
C12   C     C_R   0.068603 0.569809 0.431727 -0.146320
H4    H     H_    0.897430 0.642821 0.363717 0.175389
C13   C     C_R   0.941499 0.570924 0.422617 -0.174490
C14   C     C_R   0.871426 0.481607 0.491420 -0.062420
C15   C     C_2   0.545833 0.932169 0.387544 -0.250362
C16   C     C_2   0.560015 0.862189 0.496804 -0.213778
H5    H     H_    0.498890 0.896404 0.301408 0.196314
C17   C     C_2   0.568763 0.065662 0.391235 -0.018441
C18   C     C_2   0.514153 0.128598 0.495351 -0.390364
H6    H     H_    0.463925 0.079515 0.576235 0.189836
C19   C     C_2   0.450106 0.586903 0.929099 0.036360
N1    N     N_2   0.501340 0.501330 0.852150 -0.020858
H7    H     H_    0.388934 0.655596 0.885021 0.149863
C20   C     C_2   0.466970 0.595554 0.076871 -0.057161
N2    N     N_2   0.501380 0.501360 0.147810 -0.168065
H8    H     H_    0.443798 0.683531 0.126424 0.154302
H9    H     H_    0.502958 0.414458 0.103486 0.209974
N3    N     N_R   0.610673 0.444608 0.894907 0.272657
O9    O     O_R   0.633186 0.328033 0.864159 -0.380090
O10   O     O_R   0.702572 0.513017 0.934821 -0.348124
C21   C     C_2   0.211144 0.337269 0.773474 1.001829
O11   O     O_2   0.213996 0.431575 0.842589 -0.593340
O12   O     O_R   0.306280 0.246954 0.778752 -0.787091
H10   H     H_    0.372501 0.270039 0.843798 0.369345
C22   C     C_2   0.060215 0.123834 0.853783 0.970336
O13   O     O_2   0.035721 0.012422 0.844141 -0.606119
O14   O     O_R   0.118687 0.167493 0.966856 -0.767070
H11   H     H_    0.138320 0.097765 0.031634 0.354688
C23   C     C_2   0.647820 0.897916 0.601461 0.942790
O15   O     O_2   0.619811 0.880297 0.719578 -0.572184
O16   O     O_R   0.766091 0.944280 0.562789 -0.793755
H12   H     H_    0.824995 0.945291 0.639240 0.356360
C24   C     C_2   0.647965 0.122439 0.281459 1.019528
O17   O     O_2   0.650463 0.075650 0.170001 -0.587337
O18   O     O_R   0.724600 0.224813 0.306781 -0.802358
H13   H     H_    0.774806 0.253715 0.224328 0.364477

loop_
_geom_bond_atom_site_label_1
_geom_bond_atom_site_label_2
_geom_bond_distance
_ccdc_geom_bond_type
C5    C21   1.470929 S    
O1    C1    1.292410 A    
O4    Zn2   1.974669 S    
C20   H8    1.084230 S    
C10   C11   1.444456 A    
C4    C14   1.414360 S    
C15   C16   1.338426 D    
Zn2   N2    2.016030 S    
C5    C10   1.448947 A    
Zn1   N1    2.016922 S    
N1    N3    1.394168 S    
C19   N1    1.297834 D    
Zn2   O8    2.007038 S    
C2    C11   1.431631 S    
C17   C18   1.349662 D    
O16   H12   1.012031 S    
C23   O16   1.396948 S    
C6    C7    1.388088 A    
C24   O17   1.223036 D    
O18   H13   1.013850 S    
C15   H5    1.087404 S    
C9    C14   1.405288 A    
C23   O15   1.222939 D    
C8    H3    1.080743 S    
Zn1   O7    1.974670 S    
H4    C13   1.084747 S    
C20   N2    1.291158 D    
N3    O10   1.302983 A    
C17   C24   1.488511 S    
O3    Zn1   2.007037 S    
O3    C2    1.274132 A    
C19   H7    1.084606 S    
C8    C9    1.407635 A    
O2    C1    1.281922 A    
C15   C17   1.447454 S    
C7    C8    1.376558 A    
C21   O12   1.397308 S    
O4    C2    1.306225 A    
O7    C4    1.285258 A    
C24   O18   1.398549 S    
H1    C12   1.085362 S    
N3    O9    1.299836 A    
C1    C18   1.427262 S    
O14   H11   1.013884 S    
C3    C16   1.437378 S    
C19   C20   1.502721 S    
C18   H6    1.087922 S    
C11   C12   1.399043 A    
N2    H9    1.028083 S    
Zn2   O6    1.967492 S    
C22   O13   1.223510 D    
C6    C22   1.489438 S    
C13   C14   1.380463 A    
Zn1   O5    1.967075 S    
O5    C3    1.287227 A    
C9    C10   1.408854 A    
C7    H2    1.081476 S    
O1    Zn1   1.967492 S    
C22   O14   1.398842 S    
C21   O11   1.223249 D    
O6    C3    1.288909 A    
O2    Zn2   1.967075 S    
O12   H10   1.013611 S    
O8    C4    1.280137 A    
C5    C6    1.424621 A    
C16   C23   1.487938 S    
C12   C13   1.362707 A    
