data_mof_unit_17510.cif
_audit_creation_date              2012-12-11T15:39:36-0500
_audit_creation_method            fapswitch 2.2
_symmetry_space_group_name_H-M    P1
_symmetry_Int_Tables_number       1
_space_group_crystal_system       triclinic
_cell_length_a                    17.27577
_cell_length_b                    24.239534
_cell_length_c                    14.893206
_cell_angle_alpha                 89.99553
_cell_angle_beta                  125.3094
_cell_angle_gamma                 89.815369
_cell_volume                      5089.31483219

loop_
_atom_site_label
_atom_site_type_symbol
_atom_type_description
_atom_site_fract_x
_atom_site_fract_y
_atom_site_fract_z
_atom_type_partial_charge
C1    C     C_R   0.351843 0.347950 0.908661 -0.134126
C2    C     C_R   0.690199 0.375555 0.091754 -0.106331
C3    C     C_R   0.851842 0.847951 0.908661 -0.134126
C4    C     C_R   0.190199 0.875555 0.091759 -0.106322
C5    C     C_R   0.384596 0.685263 0.999146 -0.001129
C6    C     C_R   0.688090 0.637528 0.000256 0.027736
C7    C     C_R   0.884599 0.185264 0.999135 -0.001160
C8    C     C_R   0.188090 0.137527 0.000256 0.027736
C9    C     C_R   0.449266 0.499079 0.275763 -0.122126
C10   C     C_R   0.429607 0.499557 0.629495 -0.104958
C11   C     C_R   0.949285 0.999078 0.275788 -0.122115
C12   C     C_R   0.929612 0.999555 0.629498 -0.104959
C13   C     C_R   0.175174 0.501755 0.727309 0.051090
C14   C     C_R   0.804558 0.500533 0.365159 0.098207
C15   C     C_R   0.675174 0.001758 0.727306 0.051083
C16   C     C_R   0.304556 0.000534 0.365157 0.098206
C17   C     C_R   0.024472 0.554677 0.617214 0.093617
C18   C     C_R   0.935177 0.552665 0.520705 0.037891
C19   C     C_R   0.524481 0.054685 0.617180 0.093583
C20   C     C_R   0.435187 0.052669 0.520672 0.037873
C21   C     C_R   0.072436 0.505099 0.668449 0.055182
C22   C     C_R   0.886762 0.502931 0.478844 0.072017
C23   C     C_R   0.572437 0.005106 0.668439 0.055181
C24   C     C_R   0.386763 0.002935 0.478838 0.072016
C25   C     C_R   0.018389 0.456609 0.640526 -0.166799
C26   C     C_R   0.925059 0.455593 0.545649 -0.180916
C27   C     C_R   0.518384 0.956620 0.640537 -0.166791
C28   C     C_R   0.425053 0.955602 0.545660 -0.180916
C29   C     C_3   0.953425 0.598795 0.468286 -0.052605
C30   C     C_3   0.049880 0.603435 0.576403 -0.055425
C31   C     C_3   0.453447 0.098780 0.468218 -0.052566
C32   C     C_3   0.549901 0.103427 0.576333 -0.055412
C33   C     C_R   0.292828 0.769464 0.899265 -0.125954
C34   C     C_R   0.841201 0.686920 0.100184 -0.122752
C35   C     C_R   0.792782 0.269440 0.899249 -0.125966
C36   C     C_R   0.341207 0.186916 0.100182 -0.122752
C37   C     C_R   0.743709 0.314681 0.899329 -0.144986
C38   C     C_R   0.389418 0.232268 0.100138 -0.159824
C39   C     C_R   0.243761 0.814712 0.899344 -0.144983
C40   C     C_R   0.889414 0.732271 0.100140 -0.159821
C41   C     C_R   0.762202 0.333442 0.999027 0.128505
C42   C     C_R   0.358195 0.258120 0.000360 0.127304
C43   C     C_R   0.262226 0.833453 0.999051 0.128537
C44   C     C_R   0.858195 0.758121 0.000362 0.127304
C45   C     C_R   0.445325 0.653063 0.090405 -0.023687
C46   C     C_R   0.598311 0.624337 0.908090 -0.121721
C47   C     C_R   0.945325 0.153066 0.090400 -0.023628
C48   C     C_R   0.098311 0.124336 0.908090 -0.121724
C49   C     C_R   0.843665 0.314816 0.098471 -0.146622
C50   C     C_R   0.291812 0.231491 0.900914 -0.150349
C51   C     C_R   0.343677 0.814811 0.098519 -0.146600
C52   C     C_R   0.791816 0.731490 0.900917 -0.150339
C53   C     C_R   0.392634 0.769502 0.098512 -0.155603
C54   C     C_R   0.743848 0.685885 0.901076 -0.157739
C55   C     C_R   0.892630 0.269510 0.098459 -0.155598
C56   C     C_R   0.243844 0.185886 0.901073 -0.157740
C57   C     C_R   0.360706 0.743205 0.998914 0.125500
C58   C     C_R   0.761554 0.667381 0.000547 0.134786
C59   C     C_R   0.860692 0.243202 0.998887 0.125465
C60   C     C_R   0.261555 0.167380 0.000545 0.134791
C61   C     C_R   0.376269 0.546581 0.453241 -0.147753
C62   C     C_R   0.380087 0.546195 0.362801 -0.147707
C63   C     C_R   0.876267 0.046580 0.453246 -0.147752
C64   C     C_R   0.880090 0.046197 0.362809 -0.147712
C65   C     C_R   0.404345 0.497346 0.334204 0.166255
C66   C     C_R   0.395094 0.497859 0.513619 0.170041
C67   C     C_R   0.904351 0.997347 0.334215 0.166253
C68   C     C_R   0.895095 0.997857 0.513622 0.170033
C69   C     C_R   0.400862 0.447213 0.378614 -0.160820
C70   C     C_R   0.396471 0.447479 0.468266 -0.162253
C71   C     C_R   0.900852 0.947213 0.378610 -0.160824
C72   C     C_R   0.896460 0.947478 0.468260 -0.162245
C73   C     C_R   0.479837 0.453445 0.247844 -0.240294
C74   C     C_R   0.448382 0.454107 0.695285 -0.262651
C75   C     C_R   0.979857 0.953443 0.247871 -0.240307
C76   C     C_R   0.948387 0.954106 0.695289 -0.262654
C77   C     C_R   0.233730 0.546741 0.757450 -0.114663
C78   C     C_R   0.754117 0.545925 0.302806 -0.090785
C79   C     C_R   0.733731 0.046742 0.757448 -0.114694
C80   C     C_R   0.254117 0.045925 0.302805 -0.090820
C81   C     C_R   0.481831 0.545318 0.251538 0.709663
C82   C     C_R   0.447736 0.545383 0.694473 0.682886
C83   C     C_R   0.981841 0.045317 0.251552 0.709673
C84   C     C_R   0.947738 0.045381 0.694472 0.682897
C85   C     C_R   0.230617 0.454729 0.750671 -0.107059
C86   C     C_R   0.756690 0.454382 0.303350 -0.127907
C87   C     C_R   0.730616 0.954730 0.750670 -0.107054
C88   C     C_R   0.256690 0.954382 0.303350 -0.127881
C89   C     C_R   0.353461 0.652734 0.908341 -0.103887
C90   C     C_R   0.689863 0.624548 0.092271 -0.108294
C91   C     C_R   0.853466 0.152733 0.908336 -0.103921
C92   C     C_R   0.189864 0.124548 0.092270 -0.108280
C93   C     C_R   0.443681 0.347682 0.091336 -0.128524
C94   C     C_R   0.598039 0.375642 0.907586 -0.102611
C95   C     C_R   0.943680 0.847683 0.091337 -0.128512
C96   C     C_R   0.098045 0.875641 0.907591 -0.102593
C97   C     C_R   0.382321 0.315761 0.000062 0.050248
C98   C     C_R   0.688234 0.362670 0.999450 0.039415
C99   C     C_R   0.882320 0.815762 0.000063 0.050244
C100  C     C_R   0.188242 0.862672 0.999459 0.039417
H1    H     H_    0.313892 0.334395 0.824272 0.093033
H2    H     H_    0.748292 0.370378 0.177004 0.098310
H3    H     H_    0.813890 0.834395 0.824272 0.093036
H4    H     H_    0.248286 0.870376 0.177013 0.098306
H5    H     H_    0.906971 0.635204 0.448866 0.150007
H6    H     H_    0.108928 0.595600 0.568271 0.169234
H7    H     H_    0.407000 0.135197 0.448774 0.149993
H8    H     H_    0.608952 0.095571 0.568208 0.169237
H9    H     H_    0.270337 0.752309 0.820737 0.138749
H10   H     H_    0.860528 0.671665 0.178703 0.144399
H11   H     H_    0.770266 0.252269 0.820737 0.138806
H12   H     H_    0.360539 0.171657 0.178702 0.144383
H13   H     H_    0.685359 0.330669 0.820863 0.123341
H14   H     H_    0.444133 0.249786 0.178694 0.121225
H15   H     H_    0.185437 0.830724 0.820867 0.123307
H16   H     H_    0.944124 0.749792 0.178696 0.121224
H17   H     H_    0.864117 0.330934 0.176966 0.117690
H18   H     H_    0.269868 0.248413 0.822349 0.116242
H19   H     H_    0.364123 0.830919 0.177034 0.117672
H20   H     H_    0.769876 0.748411 0.822352 0.116245
H21   H     H_    0.448653 0.752341 0.177112 0.123368
H22   H     H_    0.686827 0.669321 0.822682 0.122939
H23   H     H_    0.948668 0.252363 0.177031 0.123357
H24   H     H_    0.186819 0.169324 0.822679 0.122941
H25   H     H_    0.366421 0.585791 0.479453 0.205346
H26   H     H_    0.372042 0.584922 0.322421 0.196365
H27   H     H_    0.866410 0.085787 0.479457 0.205367
H28   H     H_    0.872045 0.084924 0.322428 0.196376
H29   H     H_    0.411990 0.407966 0.353379 0.119566
H30   H     H_    0.404857 0.408414 0.507875 0.122231
H31   H     H_    0.911965 0.907965 0.353361 0.119563
H32   H     H_    0.904828 0.908411 0.507858 0.122226
H33   H     H_    0.494429 0.667668 0.173471 0.149964
H34   H     H_    0.571586 0.629262 0.822883 0.155208
H35   H     H_    0.994420 0.167674 0.173466 0.149952
H36   H     H_    0.071586 0.129262 0.822883 0.155222
H37   H     H_    0.468729 0.410531 0.255668 0.139862
H38   H     H_    0.429286 0.411845 0.668765 0.139487
H39   H     H_    0.968760 0.910529 0.255706 0.139857
H40   H     H_    0.929296 0.911843 0.668771 0.139489
H41   H     H_    0.216275 0.589289 0.757059 0.138090
H42   H     H_    0.761405 0.587783 0.331503 0.095124
H43   H     H_    0.716275 0.089291 0.757048 0.138109
H44   H     H_    0.261404 0.087784 0.331501 0.095113
H45   H     H_    0.208145 0.412237 0.738216 0.097167
H46   H     H_    0.768414 0.412264 0.332410 0.089809
H47   H     H_    0.708140 0.912239 0.738213 0.097170
H48   H     H_    0.268417 0.912264 0.332412 0.089802
H49   H     H_    0.316480 0.666432 0.824012 0.125877
H50   H     H_    0.747360 0.629797 0.177679 0.115191
H51   H     H_    0.816495 0.166430 0.824008 0.125886
H52   H     H_    0.247361 0.129797 0.177679 0.115168
H53   H     H_    0.490890 0.333709 0.175441 0.091353
H54   H     H_    0.570670 0.370735 0.822136 0.104464
H55   H     H_    0.990889 0.833710 0.175442 0.091347
H56   H     H_    0.070681 0.870729 0.822142 0.104473
H57   H     H_    0.050931 0.418177 0.683164 0.125687
H58   H     H_    0.887766 0.416693 0.519401 0.125027
H59   H     H_    0.550922 0.918189 0.683191 0.125686
H60   H     H_    0.387753 0.916703 0.519428 0.125023
N1    N     N_R   0.394180 0.396910 0.943210 -0.039922
N2    N     N_R   0.605820 0.396910 0.056790 -0.042187
N3    N     N_R   0.894180 0.896910 0.943210 -0.039923
N4    N     N_R   0.105820 0.896910 0.056790 -0.042191
N5    N     N_R   0.450950 0.603070 0.056740 -0.056799
N6    N     N_R   0.549050 0.603070 0.943260 -0.040111
N7    N     N_R   0.950950 0.103070 0.056740 -0.056784
N8    N     N_R   0.049050 0.103070 0.943260 -0.040113
N9    N     N_R   0.525650 0.471570 0.206150 -0.072189
N10   N     N_R   0.474350 0.471570 0.793850 -0.070188
N11   N     N_R   0.025650 0.971570 0.206150 -0.072191
N12   N     N_R   0.974350 0.971570 0.793850 -0.070188
N13   N     N_R   0.319480 0.528420 0.793810 -0.042019
N14   N     N_R   0.680520 0.528420 0.206190 -0.046413
N15   N     N_R   0.819480 0.028420 0.793810 -0.042025
N16   N     N_R   0.180520 0.028420 0.206190 -0.046409
N17   N     N_R   0.525640 0.528390 0.206120 -0.107596
N18   N     N_R   0.474360 0.528390 0.793880 -0.099886
N19   N     N_R   0.025640 0.028390 0.206120 -0.107599
N20   N     N_R   0.974360 0.028390 0.793880 -0.099890
N21   N     N_R   0.319490 0.471590 0.793840 -0.044950
N22   N     N_R   0.680510 0.471590 0.206160 -0.041386
N23   N     N_R   0.819490 0.971590 0.793840 -0.044949
N24   N     N_R   0.180510 0.971590 0.206160 -0.041386
N25   N     N_R   0.394130 0.603080 0.943110 -0.052591
N26   N     N_R   0.605870 0.603080 0.056890 -0.052367
N27   N     N_R   0.894130 0.103080 0.943110 -0.052587
N28   N     N_R   0.105870 0.103080 0.056890 -0.052368
N29   N     N_R   0.450990 0.396900 0.056840 -0.036027
N30   N     N_R   0.549010 0.396900 0.943160 -0.039666
N31   N     N_R   0.950990 0.896900 0.056840 -0.036026
N32   N     N_R   0.049010 0.896900 0.943160 -0.039667
Ni1   Ni    Ni4+2 0.434860 0.434850 0.869700 0.213309
Ni2   Ni    Ni4+2 0.565140 0.434850 0.130300 0.208332
Ni3   Ni    Ni4+2 0.934860 0.934850 0.869700 0.213314
Ni4   Ni    Ni4+2 0.065140 0.934850 0.130300 0.208331
Ni5   Ni    Ni4+2 0.565130 0.565140 0.130240 0.228844
Ni6   Ni    Ni4+2 0.434870 0.565140 0.869760 0.267939
Ni7   Ni    Ni4+2 0.065130 0.065140 0.130240 0.228845
Ni8   Ni    Ni4+2 0.934870 0.065140 0.869760 0.267930
I1    I     I_    0.967386 0.573295 0.339363 -0.446140
I2    I     I_    0.064240 0.677350 0.664300 -0.476122
I3    I     I_    0.467398 0.073238 0.339303 -0.446088
I4    I     I_    0.564263 0.177374 0.664171 -0.476193
F1    F     F_    0.478377 0.598359 0.277123 -0.753452
F2    F     F_    0.418067 0.597657 0.658418 -0.744241
F3    F     F_    0.978362 0.098359 0.277106 -0.753461
F4    F     F_    0.918082 0.097655 0.658414 -0.744258

loop_
_geom_bond_atom_site_label_1
_geom_bond_atom_site_label_2
_ccdc_geom_bond_type
C96   N32   A    
N8    N28   A    
C55   C59   A    
C73   H37   S    
C6    C58   S    
C19   C20   A    
C70   H30   S    
C90   H50   S    
N11   N19   A    
C2    N2    A    
C8    C48   A    
C94   N30   A    
C96   H56   S    
C65   C69   A    
C74   H38   S    
C33   C39   A    
C10   C66   S    
C87   H47   S    
N10   N18   A    
C34   C40   A    
C56   H24   S    
C81   F1    S    
C35   C37   A    
C85   H45   S    
C38   C42   A    
C78   H42   S    
C87   N23   A    
C38   H14   S    
C44   C99   S    
C95   C99   A    
C88   N24   A    
C37   H13   S    
C94   C98   A    
C27   H59   S    
C96   C100  A    
C28   H60   S    
C61   C66   A    
C12   C84   A    
C35   C59   A    
C31   H7    S    
C41   C49   A    
C76   N12   A    
N31   Ni4   S    
C83   F3    S    
N30   Ni1   S    
N29   Ni2   S    
C49   H17   S    
C20   C24   A    
C52   C54   A    
N14   N22   A    
C80   H44   S    
C47   N7    A    
C92   H52   S    
N23   Ni3   S    
C4    N4    A    
N26   Ni5   S    
N22   Ni2   S    
C23   C27   A    
N25   Ni6   S    
N21   Ni1   S    
C31   I3    S    
C6    C46   A    
C3    N3    A    
C63   H27   S    
N12   N20   A    
C95   H55   S    
C15   C23   S    
C54   H22   S    
N13   N21   A    
N2    Ni2   S    
C16   C24   S    
N17   Ni5   S    
C30   H6    S    
C37   C41   A    
C17   C30   S    
C29   H5    S    
C61   C62   A    
C9    C73   A    
C19   C32   S    
C86   H46   S    
C7    C59   S    
C93   N29   A    
C11   C67   S    
C72   H32   S    
C32   H8    S    
C13   C77   A    
C76   H40   S    
C30   I2    S    
C79   H43   S    
C29   I1    S    
N1    Ni1   S    
C64   C67   A    
C79   N15   A    
C43   C100  S    
C80   N16   A    
N1    N29   A    
C21   C25   A    
C42   C97   S    
C1    C97   A    
C62   H26   S    
C53   C57   A    
C86   N22   A    
C75   H39   S    
C39   C43   A    
C90   N26   A    
N28   Ni7   S    
C64   H28   S    
C25   C26   A    
N24   Ni4   S    
C5    C45   A    
C93   H53   S    
C10   C82   A    
N5    N25   A    
C56   C60   A    
N3    N31   A    
C51   C53   A    
C7    C47   A    
C32   I4    S    
C19   C23   A    
N6    Ni6   S    
C36   H12   S    
C29   C30   S    
N20   Ni8   S    
N5    Ni5   S    
C46   H34   S    
C12   C68   S    
C84   N20   A    
C84   F4    S    
C51   H19   S    
C31   C32   S    
C48   N8    A    
N3    Ni3   S    
C68   C72   A    
N7    N27   A    
C82   N18   A    
C9    C65   S    
C92   N28   A    
C17   C18   A    
C88   H48   S    
C13   C21   S    
C18   C29   S    
C34   C58   A    
C14   C86   A    
C42   C50   A    
C8    C92   A    
C52   H20   S    
C77   N13   A    
N2    N30   A    
C1    H1    S    
C39   H15   S    
C50   H18   S    
C12   C76   A    
C25   H57   S    
C34   H10   S    
C33   H9    S    
N16   Ni7   S    
C73   N9    A    
C36   C38   A    
C55   H23   S    
C93   C97   A    
C7    C91   A    
C82   F2    S    
C35   H11   S    
N15   N23   A    
C54   C58   A    
C3    H3    S    
N16   N24   A    
C91   N27   A    
C63   C68   A    
N14   Ni5   S    
C33   C57   A    
C95   N31   A    
C46   N6    A    
C62   C65   A    
C47   H35   S    
N13   Ni6   S    
N6    N26   A    
C89   N25   A    
C48   H36   S    
N7    Ni7   S    
N8    Ni8   S    
C24   C28   A    
C5    C57   S    
N11   Ni4   S    
C36   C60   A    
C49   C55   A    
N10   Ni1   S    
C61   H25   S    
N4    Ni4   S    
N9    Ni2   S    
C85   N21   A    
C15   C79   A    
C66   C70   A    
C75   N11   A    
C45   H33   S    
C4    C100  A    
C83   N19   A    
N27   Ni8   S    
C11   C83   A    
C14   C22   S    
C18   C22   A    
N32   Ni3   S    
C81   N17   A    
C71   C72   A    
C11   C75   A    
C50   C56   A    
C8    C60   S    
C91   H51   S    
C94   H54   S    
C10   C74   A    
C44   C52   A    
C40   H16   S    
N19   Ni7   S    
C43   C51   A    
C16   C88   A    
C4    H4    S    
C89   H49   S    
C26   H58   S    
N9    N17   A    
C67   C71   A    
C14   C78   A    
N18   Ni6   S    
C69   C70   A    
C77   H41   S    
N15   Ni8   S    
C74   N10   A    
C1    N1    A    
C63   C64   A    
C3    C99   A    
C40   C44   A    
C6    C90   A    
C2    C98   A    
C71   H31   S    
C69   H29   S    
C22   C26   A    
C15   C87   A    
C13   C85   A    
C27   C28   A    
C78   N14   A    
C2    H2    S    
C41   C98   S    
N12   Ni3   S    
C53   H21   S    
C16   C80   A    
N4    N32   A    
C45   N5    A    
C5    C89   A    
C9    C81   A    
C20   C31   S    
C17   C21   A    
