data_mof_unit_40905.cif
_audit_creation_date              2012-12-10T16:57:41-0500
_audit_creation_method            fapswitch 2.2
_symmetry_space_group_name_H-M    P1
_symmetry_Int_Tables_number       1
_space_group_crystal_system       triclinic
_cell_length_a                    7.780889
_cell_length_b                    8.559162
_cell_length_c                    19.061388
_cell_angle_alpha                 91.645131
_cell_angle_beta                  84.908056
_cell_angle_gamma                 93.438918
_cell_volume                      1261.81238569

loop_
_atom_site_label
_atom_site_type_symbol
_atom_type_description
_atom_site_fract_x
_atom_site_fract_y
_atom_site_fract_z
_atom_type_partial_charge
C1    C     C_R   0.545603 0.794679 0.498114 0.915364
C2    C     C_R   0.658798 0.621597 0.181225 -0.325696
C3    C     C_R   0.532927 0.593113 0.853347 -0.037620
C4    C     C_R   0.504985 0.606280 0.147984 -0.026533
C5    C     C_R   0.653938 0.499246 0.815390 0.498339
C6    C     C_R   0.347822 0.560998 0.186823 0.472868
C7    C     C_R   0.640546 0.471001 0.743394 -0.362327
C8    C     C_R   0.349760 0.526976 0.258091 -0.380993
C9    C     C_R   0.509659 0.535123 0.709636 -0.198960
C10   C     C_R   0.504766 0.538327 0.290560 -0.194821
C11   C     C_R   0.515581 0.623483 0.071596 0.332993
C12   C     C_R   0.454415 0.205312 0.501671 0.955073
C13   C     C_R   0.530830 0.615345 0.929609 0.335101
C14   C     C_3   0.337180 0.849139 0.685872 0.095170
C15   C     C_3   0.292293 0.985776 0.736469 -0.365407
C16   C     C_3   0.338196 0.142882 0.701708 -0.913983
C17   C     C_3   0.835263 0.755791 0.315752 0.115234
C18   C     C_3   0.955389 0.865705 0.269157 -0.373958
C19   C     C_3   0.990149 0.022869 0.306705 -0.912354
C20   C     C_2   0.569832 0.957962 0.496757 -0.388118
C21   C     C_2   0.430242 0.041986 0.502594 -0.390219
C22   C     C_R   0.501856 0.506372 0.634456 0.892888
C23   C     C_R   0.500644 0.506300 0.365448 0.888202
C24   C     C_R   0.394352 0.634562 0.747155 0.499572
C25   C     C_R   0.659848 0.591497 0.252218 0.490936
C26   C     C_R   0.404023 0.658995 0.818946 -0.324236
H1    H     H_    0.310750 0.731291 0.847712 0.192134
H2    H     H_    0.364653 0.980355 0.783921 0.221698
H3    H     H_    0.478432 0.154276 0.684397 0.255422
H4    H     H_    0.306531 0.239136 0.740092 0.274512
H5    H     H_    0.262868 0.154034 0.655439 0.265680
H6    H     H_    0.896094 0.739742 0.365441 0.192764
H7    H     H_    0.710444 0.811132 0.331125 0.104894
H8    H     H_    0.080138 0.810702 0.255302 0.247410
H9    H     H_    0.895461 0.886302 0.219737 0.229809
H10   H     H_    0.867176 0.081001 0.320039 0.261131
H11   H     H_    0.077241 0.100170 0.271712 0.278629
H12   H     H_    0.780183 0.656216 0.151926 0.199681
H13   H     H_    0.053237 0.005986 0.355780 0.267087
H14   H     H_    0.852345 0.370295 0.815133 0.338107
H15   H     H_    0.099365 0.511562 0.188909 0.356760
H16   H     H_    0.937028 0.304221 0.411140 0.337579
H17   H     H_    0.061897 0.695627 0.588940 0.343614
H18   H     H_    0.730647 0.396750 0.713866 0.181830
H19   H     H_    0.230100 0.489426 0.287971 0.209592
H20   H     H_    0.701869 0.008480 0.490977 0.190736
H21   H     H_    0.298215 0.991451 0.508275 0.183463
H22   H     H_    0.276139 0.864922 0.636341 0.168888
H23   H     H_    0.479576 0.852276 0.671061 0.114806
H24   H     H_    0.151621 0.977216 0.753303 0.244762
N1    N     N_R   0.675120 0.599628 0.962912 -0.077713
N2    N     N_R   0.372757 0.645529 0.038212 -0.079955
N3    N     N_R   0.667530 0.603433 0.032688 -0.163917
N4    N     N_R   0.380256 0.641542 0.968406 -0.166501
N5    N     N_2   0.950330 0.457950 0.481240 0.175086
N6    N     N_2   0.049670 0.542050 0.518760 0.175902
O1    O     O_R   0.389250 0.738570 0.504600 -0.642256
O2    O     O_3   0.815806 0.606545 0.282281 -0.640386
O3    O     O_3   0.779234 0.431913 0.849632 -0.737108
O4    O     O_3   0.195962 0.544898 0.154088 -0.746812
O5    O     O_3   0.030866 0.358425 0.435938 -0.663156
O6    O     O_3   0.968615 0.641498 0.563925 -0.656851
O7    O     O_R   0.610750 0.261430 0.495400 -0.633803
O8    O     O_R   0.678400 0.711620 0.492580 -0.597803
O9    O     O_R   0.321600 0.288380 0.507420 -0.582768
O10   O     O_R   0.355380 0.513500 0.607880 -0.595506
O11   O     O_R   0.644620 0.486500 0.392120 -0.604328
O12   O     O_R   0.644530 0.486550 0.595850 -0.576431
O13   O     O_R   0.355470 0.513450 0.404150 -0.579267
O14   O     O_3   0.268273 0.705401 0.714636 -0.626658
Zn1   Zn    Zn3+2 0.306930 0.517990 0.508030 1.034521
Zn2   Zn    Zn3+2 0.693070 0.482010 0.491970 1.028210

loop_
_geom_bond_atom_site_label_1
_geom_bond_atom_site_label_2
_ccdc_geom_bond_type
C2    C4    A    
N5    N6    D    
C9    C24   A    
C13   N4    A    
C1    O1    A    
C10   C23   S    
C14   O14   S    
C12   O9    A    
C2    H12   S    
N5    Zn2   S    
C3    C13   S    
C17   O2    S    
O12   Zn2   S    
N6    Zn1   S    
C17   C18   S    
C15   H2    S    
C24   O14   S    
H14   O3    S    
C13   N1    A    
C7    H18   S    
O1    Zn1   S    
C4    C11   S    
C18   H8    S    
H16   O5    S    
C22   O12   A    
C26   H1    S    
C17   H7    S    
C14   H22   S    
C19   H13   S    
C10   C25   A    
C8    C10   A    
O7    Zn2   S    
N2    N4    A    
O11   Zn2   S    
C2    C25   A    
C5    C7    A    
C19   H10   S    
O8    Zn2   S    
C14   C15   S    
C17   H6    S    
N6    O6    S    
C9    C22   S    
C15   H24   S    
C14   H23   S    
O13   Zn1   S    
C25   O2    S    
C5    O3    S    
N1    N3    A    
C16   H4    S    
C15   C16   S    
C1    O8    A    
N5    O5    S    
C20   C21   D    
H17   O6    S    
C4    C6    A    
C18   C19   S    
C18   H9    S    
C6    O4    S    
C23   O11   A    
C7    C9    A    
C12   O7    A    
C23   O13   A    
C8    H19   S    
C22   O10   A    
C1    C20   S    
C6    C8    A    
C11   N2    A    
C19   H11   S    
C21   H21   S    
C16   H3    S    
O9    Zn1   S    
C16   H5    S    
C12   C21   S    
C3    C26   A    
C20   H20   S    
O10   Zn1   S    
H15   O4    S    
C24   C26   A    
C3    C5    A    
C11   N3    A    
