data_mof_unit_39064.cif
_audit_creation_date              2012-12-11T16:08:56-0500
_audit_creation_method            fapswitch 2.2
_symmetry_space_group_name_H-M    P1
_symmetry_Int_Tables_number       1
_space_group_crystal_system       triclinic
_cell_length_a                    12.956352
_cell_length_b                    13.306611
_cell_length_c                    27.734416
_cell_angle_alpha                 95.210751
_cell_angle_beta                  89.653675
_cell_angle_gamma                 119.179557
_cell_volume                      4153.48337326

loop_
_atom_site_label
_atom_site_type_symbol
_atom_type_description
_atom_site_fract_x
_atom_site_fract_y
_atom_site_fract_z
_atom_type_partial_charge
C1    C     C_R   0.628325 0.896093 0.427245 0.541261
C2    C     C_R   0.298311 0.853975 0.292828 0.004601
C3    C     C_R   0.424076 0.739920 0.037709 -0.092432
C4    C     C_R   0.419618 0.843025 0.039336 -0.106393
C5    C     C_R   0.351822 0.865507 0.073549 -0.089698
C6    C     C_R   0.248636 0.829958 0.192926 0.006942
C7    C     C_R   0.601231 0.221762 0.440483 0.542446
C8    C     C_R   0.351694 0.832548 0.210456 -0.130239
C9    C     C_R   0.376024 0.844607 0.259981 -0.131101
C10   C     C_R   0.216892 0.809080 0.142980 -0.033217
C11   C     C_R   0.113978 0.810263 0.128009 -0.000631
C12   C     C_R   0.144737 0.878234 0.359470 -0.139052
C13   C     C_R   0.121888 0.872004 0.309875 0.017463
C14   C     C_R   0.198452 0.858466 0.276378 0.062419
C15   C     C_R   0.592457 0.352821 0.230681 -0.118877
C16   C     C_R   0.023327 0.877415 0.293142 -0.126110
C17   C     C_R   0.999226 0.866905 0.243593 -0.128931
C18   C     C_R   0.073488 0.851198 0.210417 0.000381
C19   C     C_R   0.271594 0.877203 0.425479 0.539434
C20   C     C_R   0.174129 0.847486 0.226493 0.050044
C21   C     C_R   0.045729 0.834799 0.161379 -0.140394
C22   C     C_R   0.240952 0.868067 0.375003 0.018324
C23   C     C_R   0.745804 0.949411 0.355096 -0.128696
C24   C     C_R   0.748381 0.938923 0.305118 0.001880
C25   C     C_R   0.743849 0.923107 0.204238 -0.000827
C26   C     C_R   0.585288 0.338977 0.280117 -0.157917
C27   C     C_R   0.825454 0.025905 0.231103 -0.137859
C28   C     C_R   0.829195 0.032954 0.281374 -0.122153
C29   C     C_R   0.747809 0.911987 0.154220 -0.138288
C30   C     C_R   0.679451 0.803931 0.127896 -0.003430
C31   C     C_R   0.626568 0.899363 0.565264 0.544028
C32   C     C_R   0.573843 0.757404 0.352816 -0.148006
C33   C     C_R   0.580079 0.742529 0.302507 0.002220
C34   C     C_R   0.664448 0.835790 0.278515 0.047552
C35   C     C_R   0.498944 0.639464 0.275398 -0.133943
C36   C     C_R   0.501651 0.628957 0.224866 -0.136916
C37   C     C_R   0.668670 0.320495 0.303986 0.079787
C38   C     C_R   0.583518 0.722417 0.200899 0.003200
C39   C     C_R   0.663350 0.827225 0.227866 0.048458
C40   C     C_R   0.592272 0.711175 0.150736 -0.134824
C41   C     C_R   0.653442 0.863031 0.378778 -0.011587
C42   C     C_R   0.733639 0.292418 0.653637 -0.137244
C43   C     C_R   0.600838 0.224171 0.579306 0.544019
C44   C     C_R   0.744968 0.308694 0.704207 0.008305
C45   C     C_R   0.765521 0.338116 0.805849 0.005680
C46   C     C_R   0.859669 0.343940 0.778780 -0.131583
C47   C     C_R   0.848896 0.327875 0.728248 -0.135552
C48   C     C_R   0.682515 0.347360 0.204449 0.007439
C49   C     C_R   0.778883 0.364670 0.856129 -0.124222
C50   C     C_R   0.686118 0.365926 0.882139 0.001609
C51   C     C_R   0.537905 0.274188 0.657242 -0.137502
C52   C     C_R   0.545131 0.286353 0.707685 -0.008006
C53   C     C_R   0.649362 0.302416 0.731249 0.039582
C54   C     C_R   0.448715 0.277241 0.735169 -0.019981
C55   C     C_R   0.272191 0.879936 0.563584 0.544768
C56   C     C_R   0.457626 0.282978 0.785540 -0.130861
C57   C     C_R   0.562310 0.303853 0.808902 -0.008379
C58   C     C_R   0.658576 0.313365 0.781964 0.040592
C59   C     C_1   0.693002 0.369053 0.154185 -0.053752
C60   C     C_R   0.575281 0.325399 0.858968 -0.110188
C61   C     C_R   0.628888 0.272040 0.630143 -0.009706
C62   C     C_1   0.226165 0.865713 0.611035 -0.009010
C63   C     C_R   0.279307 0.918844 0.737227 -0.113462
C64   C     C_R   0.264660 0.910190 0.787391 0.258431
C65   C     C_R   0.056137 0.771451 0.770174 -0.161371
C66   C     C_R   0.071323 0.780913 0.720627 -0.126016
C67   C     C_1   0.634163 0.269268 0.394817 -0.000125
C68   C     C_R   0.182921 0.854039 0.704053 -0.000129
C69   C     C_R   0.152277 0.834965 0.803560 0.076142
C70   C     C_1   0.653464 0.297200 0.354127 0.007451
C71   C     C_1   0.132646 0.819541 0.854173 0.012580
C72   C     C_1   0.201329 0.859003 0.652965 -0.050654
C73   C     C_1   0.105626 0.799585 0.895269 0.000636
C74   C     C_1   0.639719 0.868558 0.612250 -0.013628
C75   C     C_R   0.650764 0.922527 0.739094 -0.105817
C76   C     C_R   0.652748 0.910981 0.789107 0.269430
C77   C     C_R   0.645130 0.725418 0.769508 -0.164223
C78   C     C_R   0.643279 0.737641 0.720020 -0.127261
C79   C     C_R   0.760240 0.315712 0.278101 0.268411
C80   C     C_R   0.647172 0.836655 0.704704 0.004407
C81   C     C_1   0.702676 0.395629 0.113279 -0.014269
C82   C     C_R   0.650390 0.811760 0.804133 0.080597
C83   C     C_1   0.663476 0.801416 0.854847 0.014219
C84   C     C_1   0.644935 0.850658 0.653822 -0.055971
C85   C     C_1   0.682164 0.791297 0.896239 0.001711
C86   C     C_R   0.064067 0.772854 0.078934 0.547286
C87   C     C_R   0.716812 0.441574 0.067335 0.546506
C88   C     C_R   0.719586 0.782555 0.080791 0.538950
C89   C     C_R   0.057455 0.766455 0.941495 0.542408
C90   C     C_R   0.709843 0.431848 0.929693 0.546229
C91   C     C_R   0.766623 0.329499 0.228079 -0.098615
C92   C     C_R   0.318538 0.858240 0.342050 -0.116332
C93   C     C_R   0.716312 0.776245 0.943080 0.535861
C94   C     C_R   0.338660 0.264906 0.713032 0.021683
C95   C     C_R   0.228805 0.168083 0.719857 -0.092914
C96   C     C_R   0.124679 0.157906 0.700126 -0.104533
C97   C     C_R   0.129305 0.244824 0.673934 -0.101425
C98   C     C_R   0.238069 0.342197 0.667540 -0.108101
C99   C     C_R   0.342438 0.352627 0.687165 -0.098140
C100  C     C_R   0.288584 0.784999 0.106573 0.034793
C101  C     C_R   0.293032 0.681326 0.104629 -0.085261
C102  C     C_R   0.360548 0.659003 0.070231 -0.111360
Cr1   Cr    Cr6+3 0.416430 0.829200 0.492370 1.025739
Cr2   Cr    Cr6+3 0.674630 0.087020 0.504170 1.027699
Cr3   Cr    Cr6+3 0.408920 0.083740 0.503490 1.028017
Cr4   Cr    Cr6+3 0.914010 0.832750 0.013970 1.026860
Cr5   Cr    Cr6+3 0.922310 0.578600 0.003000 1.034370
Cr6   Cr    Cr6+3 0.656280 0.574630 0.003870 1.009200
H1    H     H_    0.921147 0.868523 0.231152 0.130921
H2    H     H_    0.433528 0.567250 0.293243 0.112391
H3    H     H_    0.837159 0.326989 0.207737 0.092535
H4    H     H_    0.503223 0.690220 0.371182 0.125153
H5    H     H_    0.864093 0.393566 0.874196 0.133258
H6    H     H_    0.803780 0.290417 0.632774 0.122578
H7    H     H_    0.942051 0.362383 0.796655 0.122007
H8    H     H_    0.922493 0.332290 0.707952 0.110528
H9    H     H_    0.502368 0.322982 0.879245 0.139867
H10   H     H_    0.384597 0.277329 0.806717 0.123201
H11   H     H_    0.456608 0.256501 0.638851 0.155712
H12   H     H_    0.964092 0.887925 0.318273 0.120882
H13   H     H_    0.365682 0.975329 0.724034 0.102634
H14   H     H_    0.527967 0.368335 0.212937 0.119874
H15   H     H_    0.969292 0.713438 0.782500 0.117470
H16   H     H_    0.996535 0.730053 0.695266 0.124157
H17   H     H_    0.652835 0.998696 0.726988 0.098927
H18   H     H_    0.644375 0.649237 0.780844 0.116833
H19   H     H_    0.639660 0.670377 0.693789 0.118042
H20   H     H_    0.513978 0.341794 0.299712 0.113718
H21   H     H_    0.395688 0.854982 0.355000 0.130212
H22   H     H_    0.413587 0.824298 0.186280 0.137674
H23   H     H_    0.087579 0.888942 0.385719 0.104681
H24   H     H_    0.455013 0.845419 0.272678 0.134413
H25   H     H_    0.965653 0.833799 0.149242 0.137482
H26   H     H_    0.900368 0.297929 0.278977 0.308874
H27   H     H_    0.223820 0.100797 0.740517 0.122271
H28   H     H_    0.040354 0.082869 0.705327 0.118507
H29   H     H_    0.048586 0.236984 0.658798 0.106876
H30   H     H_    0.241466 0.409831 0.647536 0.114071
H31   H     H_    0.426056 0.429056 0.682402 0.107992
H32   H     H_    0.429916 0.021755 0.803385 0.326443
H33   H     H_    0.659983 0.059081 0.806958 0.320275
H34   H     H_    0.813470 0.984414 0.136461 0.132593
H35   H     H_    0.244345 0.618165 0.129734 0.109828
H36   H     H_    0.363859 0.579087 0.068851 0.103403
H37   H     H_    0.476641 0.722689 0.011227 0.128238
H38   H     H_    0.468682 0.905513 0.014073 0.123918
H39   H     H_    0.349013 0.945690 0.074519 0.106595
H40   H     H_    0.808951 0.030730 0.374903 0.148798
H41   H     H_    0.888493 0.099517 0.213256 0.104944
H42   H     H_    0.893912 0.112494 0.301721 0.137275
H43   H     H_    0.538306 0.627811 0.130305 0.125988
H44   H     H_    0.439864 0.547945 0.204550 0.104876
O1    O     O_R   0.296680 0.802170 0.437540 -0.513809
O2    O     O_R   0.637200 0.461990 0.052510 -0.513401
O3    O     O_R   0.664790 0.681920 0.057970 -0.508959
O4    O     O_R   0.525380 0.838530 0.443500 -0.506031
O5    O     O_R   0.815840 0.852920 0.961840 -0.498946
O6    O     O_R   0.012100 0.822630 0.963670 -0.493479
O7    O     O_R   0.037010 0.668460 0.953040 -0.507827
O8    O     O_R   0.813390 0.478970 0.949660 -0.502634
O9    O     O_R   0.632250 0.456930 0.945520 -0.518389
O10   O     O_R   0.660200 0.677230 0.958780 -0.505027
O11   O     O_3   0.830870 0.661990 0.006950 -0.246472
O12   O     O_R   0.662610 0.183990 0.557860 -0.500967
O13   O     O_R   0.702130 0.995190 0.446810 -0.516939
O14   O     O_R   0.661770 0.181390 0.458760 -0.487155
O15   O     O_R   0.499820 0.198480 0.455280 -0.510034
O16   O     O_R   0.311660 0.976250 0.449080 -0.496990
O17   O     O_R   0.297580 0.804960 0.544440 -0.505476
O18   O     O_R   0.526220 0.841130 0.542590 -0.493772
O19   O     O_R   0.703030 0.997990 0.553710 -0.511368
O20   O     O_3   0.841589 0.297342 0.302183 -0.707703
O21   O     O_3   0.358038 0.972961 0.820798 -0.682337
O22   O     O_3   0.658642 0.995547 0.823582 -0.684019
O23   O     O_R   0.500730 0.201280 0.562180 -0.521179
O24   O     O_R   0.312500 0.978850 0.548170 -0.495605
O25   O     O_3   0.499990 0.999990 0.500010 -0.249374
O26   O     O_R   0.820790 0.857990 0.068830 -0.523369
O27   O     O_R   0.016700 0.827330 0.062850 -0.509225
O28   O     O_R   0.041970 0.673520 0.060040 -0.498458
O29   O     O_R   0.817980 0.483660 0.048840 -0.492906

loop_
_geom_bond_atom_site_label_1
_geom_bond_atom_site_label_2
_ccdc_geom_bond_type
C8    C9    A    
C49   H5    S    
C28   H42   S    
C101  C102  A    
C5    H39   S    
C15   H14   S    
C12   C22   A    
Cr5   O28   S    
C18   C21   A    
C66   C68   A    
C95   C96   A    
C51   C61   A    
C80   C84   S    
Cr5   O8    S    
C57   C58   A    
C89   O6    A    
C96   H28   S    
C77   C78   A    
C37   C79   A    
C102  H36   S    
C46   H7    S    
Cr5   O29   S    
C94   C99   A    
C12   H23   S    
C16   H12   S    
C38   C39   A    
C78   C80   A    
C11   C86   S    
C91   H3    S    
C55   C62   S    
C97   C98   A    
C56   C57   A    
C97   H29   S    
C69   C71   S    
C86   O27   A    
Cr2   O14   S    
Cr2   O13   S    
C46   C47   A    
C85   C93   S    
C44   C53   A    
C50   C90   S    
C35   C36   A    
H32   O21   S    
Cr3   O24   S    
Cr1   O18   S    
C51   H11   S    
C32   C41   A    
C1    O13   A    
C24   C28   A    
C75   C80   A    
C79   C91   A    
C44   C47   A    
C43   O12   A    
C27   H41   S    
H26   O20   S    
C37   C70   S    
C99   H31   S    
C42   C44   A    
C15   C48   A    
C78   H19   S    
C21   H25   S    
C63   H13   S    
C52   C54   A    
C89   O7    A    
C25   C29   A    
C47   H8    S    
C93   O5    A    
Cr6   O11   S    
C54   C56   A    
C45   C58   A    
C42   H6    S    
C90   O9    A    
C30   C40   A    
C51   C52   A    
C88   O3    A    
C14   C20   A    
C19   C22   S    
C76   C82   A    
C71   C73   T    
C16   C17   A    
C57   C60   A    
C6    C8    A    
C45   C46   A    
Cr6   O10   S    
C11   C21   A    
C24   C34   A    
C31   C74   S    
C34   C39   A    
C40   H43   S    
Cr1   O25   S    
C79   O20   S    
C1    O4    A    
C2    C92   A    
C75   C76   A    
C6    C10   A    
C29   C30   A    
C48   C91   A    
Cr3   O25   S    
C75   H17   S    
Cr2   O25   S    
C5    C100  A    
C45   C49   A    
C68   C72   S    
C4    H38   S    
C96   C97   A    
C95   H27   S    
C17   C18   A    
C87   O2    A    
C62   C72   T    
C60   H9    S    
C26   H20   S    
Cr4   O11   S    
C10   C100  S    
C42   C61   A    
C81   C87   S    
C35   H2    S    
Cr2   O19   S    
C3    C102  A    
C1    C41   S    
C83   C85   T    
C7    O14   A    
Cr5   O11   S    
C3    H37   S    
C8    H22   S    
H33   O22   S    
C19   O1    A    
C49   C50   A    
C66   H16   S    
C19   O16   A    
C30   C88   S    
C43   O23   A    
Cr4   O27   S    
C52   C53   A    
C43   C61   S    
C48   C59   S    
C23   H40   S    
C9    H24   S    
C7    O15   A    
C63   C68   A    
C32   H4    S    
C56   H10   S    
C64   C69   A    
C36   H44   S    
C59   C81   T    
C74   C84   T    
C4    C5    A    
C15   C26   A    
C17   H1    S    
C87   O29   A    
Cr5   O7    S    
C53   C58   A    
C26   C37   A    
C88   O26   A    
C31   O18   A    
C25   C27   A    
Cr4   O5    S    
C6    C20   A    
Cr6   O9    S    
C23   C41   A    
Cr3   O16   S    
C67   C70   T    
C50   C60   A    
C32   C33   A    
C36   C38   A    
C86   O28   A    
C73   C89   S    
C65   C66   A    
Cr4   O6    S    
C98   H30   S    
C25   C39   A    
C38   C40   A    
C101  H35   S    
Cr1   O1    S    
Cr2   O12   S    
Cr6   O3    S    
C31   O19   A    
C77   C82   A    
C65   C69   A    
C29   H34   S    
C76   O22   S    
C100  C101  A    
C33   C35   A    
C33   C34   A    
C92   H21   S    
C18   C20   A    
C65   H15   S    
C90   O8    A    
C94   C95   A    
C2    C14   A    
C93   O10   A    
C55   O24   A    
C54   C94   S    
C10   C11   A    
C23   C24   A    
C7    C67   S    
C63   C64   A    
Cr3   O15   S    
Cr1   O4    S    
Cr6   O2    S    
C12   C13   A    
C98   C99   A    
Cr3   O23   S    
C13   C16   A    
C27   C28   A    
Cr1   O17   S    
C22   C92   A    
C55   O17   A    
C82   C83   S    
C64   O21   S    
C13   C14   A    
C2    C9    A    
Cr4   O26   S    
C77   H18   S    
C3    C4    A    
