data_mof_unit_47506.cif
_audit_creation_date              2012-12-10T16:48:44-0500
_audit_creation_method            fapswitch 2.2
_symmetry_space_group_name_H-M    P1
_symmetry_Int_Tables_number       1
_space_group_crystal_system       triclinic
_cell_length_a                    7.884851
_cell_length_b                    8.558922
_cell_length_c                    10.662989
_cell_angle_alpha                 89.327255
_cell_angle_beta                  98.948363
_cell_angle_gamma                 93.317458
_cell_volume                      709.648345032

loop_
_atom_site_label
_atom_site_type_symbol
_atom_type_description
_atom_site_fract_x
_atom_site_fract_y
_atom_site_fract_z
_atom_type_partial_charge
C1    C     C_R   0.544210 0.794196 0.497024 0.954236
C2    C     C_2   0.432740 0.042131 0.504753 -0.360667
C3    C     C_3   0.677980 0.648562 0.096914 -0.757147
C4    C     C_3   0.321414 0.352974 0.902931 -0.757460
C5    C     C_3   0.980627 0.312031 0.417721 -0.457966
C6    C     C_3   0.019373 0.687967 0.582283 -0.458148
C7    C     C_R   0.455788 0.205804 0.502968 0.954024
C8    C     C_R   0.570549 0.482496 0.735585 0.880892
C9    C     C_R   0.429441 0.517493 0.264428 0.880975
C10   C     C_2   0.612027 0.454020 0.870958 -0.027223
C11   C     C_2   0.387997 0.546366 0.129134 -0.027231
C12   C     C_2   0.487031 0.452057 0.942106 0.141079
C13   C     C_2   0.513093 0.548335 0.058117 0.141755
C14   C     C_2   0.567253 0.957869 0.495227 -0.360831
H1    H     H_    0.694551 0.008455 0.486073 0.172759
H2    H     H_    0.077093 0.328665 0.353405 0.222230
H3    H     H_    0.018335 0.229186 0.496626 0.181572
H4    H     H_    0.136959 0.740208 0.640957 0.184922
H5    H     H_    0.981667 0.770815 0.503381 0.181669
H6    H     H_    0.922906 0.671330 0.646599 0.222247
H7    H     H_    0.305441 0.991544 0.513906 0.172796
H8    H     H_    0.710736 0.717754 0.014383 0.245960
H9    H     H_    0.664172 0.733482 0.172283 0.230838
H10   H     H_    0.784985 0.573636 0.133242 0.280488
H11   H     H_    0.288121 0.283621 0.985226 0.245978
H12   H     H_    0.215064 0.428775 0.866927 0.280608
H13   H     H_    0.334547 0.268174 0.827315 0.231072
H14   H     H_    0.863041 0.259785 0.359050 0.184941
I1    I     I_    0.164184 0.666987 0.061033 -0.385686
I2    I     I_    0.837729 0.336506 0.939858 -0.386482
N1    N     N_2   0.940600 0.458860 0.467170 -0.004094
N2    N     N_2   0.059400 0.541140 0.532830 -0.004102
O1    O     O_R   0.391630 0.738350 0.508060 -0.607523
O2    O     O_R   0.608370 0.261650 0.491940 -0.607628
O3    O     O_R   0.674540 0.711990 0.487010 -0.646772
O4    O     O_R   0.325460 0.288010 0.512990 -0.646835
O5    O     O_R   0.411370 0.508250 0.688780 -0.605592
O6    O     O_R   0.588630 0.491750 0.311220 -0.605428
O7    O     O_R   0.694270 0.481880 0.667740 -0.599097
O8    O     O_R   0.305730 0.518120 0.332260 -0.599084
Zn1   Zn    Zn3+2 0.311100 0.517600 0.514050 0.956948
Zn2   Zn    Zn3+2 0.688900 0.482400 0.485950 0.957008

loop_
_geom_bond_atom_site_label_1
_geom_bond_atom_site_label_2
_ccdc_geom_bond_type
C6    N2    S    
N2    Zn1   S    
N1    Zn2   S    
C4    C12   S    
C5    H14   S    
C11   C13   D    
C7    O4    A    
C10   I2    S    
C3    H9    S    
C2    C7    S    
O2    Zn2   S    
O1    Zn1   S    
C2    H7    S    
C4    H11   S    
C3    H10   S    
C1    O1    A    
C6    H5    S    
C9    C11   S    
C1    O3    A    
O4    Zn1   S    
C10   C12   D    
C6    H4    S    
C9    O6    A    
C8    O7    A    
O6    Zn2   S    
O7    Zn2   S    
O5    Zn1   S    
C2    C14   D    
C7    O2    A    
C4    H12   S    
C5    H3    S    
C8    O5    A    
C4    H13   S    
C6    H6    S    
C12   C13   S    
C11   I1    S    
C8    C10   S    
O3    Zn2   S    
C14   H1    S    
O8    Zn1   S    
C5    H2    S    
C1    C14   S    
C5    N1    S    
C9    O8    A    
N1    N2    D    
C3    H8    S    
C3    C13   S    
