data_mof_unit_30625.cif
_audit_creation_date              2012-12-11T14:08:24-0500
_audit_creation_method            fapswitch 2.2
_symmetry_space_group_name_H-M    P1
_symmetry_Int_Tables_number       1
_space_group_crystal_system       triclinic
_cell_length_a                    28.26567
_cell_length_b                    7.168971
_cell_length_c                    17.305427
_cell_angle_alpha                 89.998774
_cell_angle_beta                  101.818191
_cell_angle_gamma                 90.003129
_cell_volume                      3432.36494935

loop_
_atom_site_label
_atom_site_type_symbol
_atom_type_description
_atom_site_fract_x
_atom_site_fract_y
_atom_site_fract_z
_atom_type_partial_charge
O1    O     O_R   0.000700 0.436510 0.857920 -0.508814
O2    O     O_R   0.999300 0.563490 0.142080 -0.485174
O3    O     O_R   0.999300 0.936510 0.642080 -0.508784
O4    O     O_R   0.000700 0.063490 0.357920 -0.485169
O5    O     O_R   0.930080 0.766380 0.721890 -0.551753
O6    O     O_R   0.069920 0.233620 0.278110 -0.539965
O7    O     O_R   0.069920 0.266380 0.778110 -0.551687
O8    O     O_R   0.930080 0.733620 0.221890 -0.539964
C1    C     C_R   0.910490 0.597561 0.708656 0.723522
C2    C     C_R   0.089381 0.402355 0.291294 0.799051
C3    C     C_R   0.089513 0.097572 0.791354 0.723482
C4    C     C_R   0.910619 0.902348 0.208710 0.799102
O9    O     O_R   0.996180 0.766230 0.862310 -0.545118
O10   O     O_R   0.003820 0.233770 0.137690 -0.561043
O11   O     O_R   0.003820 0.266230 0.637690 -0.545105
O12   O     O_R   0.996180 0.733770 0.362310 -0.561044
O13   O     O_R   0.065870 0.936460 0.783500 -0.523239
O14   O     O_R   0.934130 0.063540 0.216500 -0.542423
O15   O     O_R   0.934130 0.436460 0.716500 -0.523304
O16   O     O_R   0.065870 0.563540 0.283500 -0.542427
C5    C     C_R   0.999129 0.596582 0.894693 0.670476
C6    C     C_R   0.000618 0.403438 0.105260 0.729452
C7    C     C_R   0.000872 0.096584 0.605306 0.670393
C8    C     C_R   0.999382 0.903436 0.394741 0.729454
O17   O     O_3   0.022790 0.603020 0.723980 -0.365513
O18   O     O_3   0.977210 0.396980 0.276020 -0.370758
O19   O     O_3   0.977210 0.103020 0.776020 -0.365605
O20   O     O_3   0.022790 0.896980 0.223980 -0.370758
V1    V     V_3+5 0.995770 0.877900 0.754830 1.574107
V2    V     V_3+5 0.004230 0.122100 0.245170 1.585627
V3    V     V_3+5 0.004230 0.377900 0.745170 1.574116
V4    V     V_3+5 0.995770 0.622100 0.254830 1.585635
C9    C     C_2   0.997373 0.083662 0.518032 0.211437
C10   C     C_2   0.003252 0.916552 0.482073 0.158729
C11   C     C_2   0.002631 0.583661 0.981968 0.211529
C12   C     C_2   0.996746 0.416553 0.017927 0.158621
C13   C     C_R   0.683740 0.986731 0.024943 0.701242
C14   C     C_R   0.318065 0.063690 0.967924 0.700433
C15   C     C_R   0.316263 0.486715 0.475103 0.701271
C16   C     C_R   0.681937 0.563727 0.532103 0.700496
O21   O     O_2   0.713816 0.044342 0.978551 -0.492268
O22   O     O_2   0.290462 0.134930 0.015737 -0.479380
O23   O     O_2   0.286189 0.544324 0.521494 -0.492310
O24   O     O_2   0.709534 0.635086 0.484300 -0.479345
N1    N     N_R   0.702681 0.944115 0.102152 -0.538104
N2    N     N_R   0.297899 0.035551 0.889971 -0.543797
N3    N     N_R   0.297319 0.444109 0.397893 -0.538087
N4    N     N_R   0.702110 0.535472 0.610047 -0.543890
C17   C     C_R   0.673215 0.910019 0.154143 0.727569
C18   C     C_R   0.325983 0.988814 0.837224 0.728594
C19   C     C_R   0.326783 0.410004 0.345901 0.727609
C20   C     C_R   0.674025 0.488654 0.662788 0.727981
C21   C     C_R   0.779275 0.068343 0.182888 -0.091942
C22   C     C_R   0.225468 0.200236 0.814135 -0.054668
C23   C     C_R   0.220732 0.568387 0.317165 -0.091953
C24   C     C_R   0.774542 0.699907 0.686016 -0.054399
C25   C     C_R   0.829744 0.051494 0.212411 -0.161810
C26   C     C_R   0.174457 0.213677 0.788881 -0.149219
C27   C     C_R   0.170263 0.551543 0.287632 -0.161851
C28   C     C_R   0.825551 0.713340 0.711303 -0.149172
C29   C     C_R   0.832216 0.783218 0.125060 -0.129634
C30   C     C_R   0.164589 0.944640 0.871913 -0.077054
C31   C     C_R   0.167778 0.283212 0.374951 -0.129642
C32   C     C_R   0.835426 0.444832 0.627995 -0.077537
C33   C     C_R   0.781141 0.788243 0.101843 -0.102513
C34   C     C_R   0.215336 0.920584 0.890960 -0.083108
C35   C     C_R   0.218852 0.288235 0.398180 -0.102572
C36   C     C_R   0.784680 0.420710 0.608945 -0.083158
C37   C     C_R   0.754772 0.933806 0.129106 0.356966
C38   C     C_R   0.245854 0.051353 0.863962 0.321646
C39   C     C_R   0.245228 0.433820 0.370937 0.356981
C40   C     C_R   0.754158 0.551264 0.636052 0.321589
C41   C     C_R   0.602206 0.956613 0.049183 -0.122563
C42   C     C_R   0.397845 0.996772 0.942887 -0.124179
C43   C     C_R   0.397795 0.456575 0.450860 -0.122546
C44   C     C_R   0.602159 0.496731 0.557140 -0.124201
C45   C     C_R   0.633245 0.974743 0.994776 -0.019402
C46   C     C_R   0.367430 0.023432 0.997574 -0.020245
C47   C     C_R   0.366758 0.474718 0.505270 -0.019412
C48   C     C_R   0.632571 0.523458 0.502452 -0.020242
C49   C     C_R   0.612585 0.986460 0.912996 -0.023404
C50   C     C_R   0.387656 0.014090 0.079419 -0.037088
C51   C     C_R   0.387421 0.486440 0.587050 -0.023531
C52   C     C_R   0.612341 0.514171 0.420606 -0.037084
C53   C     C_R   0.622507 0.928793 0.130232 -0.065907
C54   C     C_R   0.376952 0.980866 0.861423 -0.063687
C55   C     C_R   0.377492 0.428755 0.369812 -0.065914
C56   C     C_R   0.623056 0.480752 0.638598 -0.063661
C57   C     C_R   0.856769 0.911856 0.182061 -0.078335
C58   C     C_R   0.143580 0.086230 0.817908 -0.108699
C59   C     C_R   0.143231 0.411874 0.317958 -0.078344
C60   C     C_R   0.856427 0.586190 0.682122 -0.108787
C61   C     C_R   0.479433 0.973071 0.914166 0.008627
C62   C     C_R   0.520335 0.962412 0.078171 0.008570
C63   C     C_R   0.520573 0.472993 0.585868 0.008611
C64   C     C_R   0.479665 0.462381 0.421867 0.008563
C65   C     C_R   0.469328 0.985190 0.051732 0.082382
C66   C     C_R   0.530699 0.978835 0.940834 0.078786
C67   C     C_R   0.530672 0.485186 0.448301 0.082388
C68   C     C_R   0.469306 0.478774 0.559205 0.078784
C69   C     C_R   0.448988 0.984969 0.969670 0.065104
C70   C     C_R   0.550970 0.966077 0.022669 0.064194
C71   C     C_R   0.551015 0.484929 0.530361 0.065098
C72   C     C_R   0.449032 0.466033 0.477372 0.064199
C73   C     C_R   0.457571 0.951808 0.833569 -0.283247
C74   C     C_R   0.541761 0.934654 0.158562 -0.274918
C75   C     C_R   0.542437 0.451681 0.666462 -0.283265
C76   C     C_R   0.458238 0.434602 0.341478 -0.274931
C77   C     C_R   0.407224 0.955060 0.806817 0.394216
C78   C     C_R   0.591898 0.919057 0.185001 0.389084
C79   C     C_R   0.592785 0.454908 0.693206 0.394229
C80   C     C_R   0.408101 0.418997 0.315042 0.389107
O25   O     O_2   0.304488 0.952560 0.761703 -0.463623
O26   O     O_2   0.693217 0.859425 0.228783 -0.466000
O27   O     O_2   0.695523 0.452246 0.738295 -0.463699
O28   O     O_2   0.306778 0.359428 0.271261 -0.465990
C81   C     C_R   0.562428 0.995400 0.887916 -0.245915
C82   C     C_R   0.437747 0.003876 0.104912 -0.248250
C83   C     C_R   0.437580 0.495347 0.612127 -0.245896
C84   C     C_R   0.562250 0.503936 0.395118 -0.248268
H1    H     H_    0.478832 0.925814 0.789719 0.117070
H2    H     H_    0.520358 0.919482 0.202840 0.115032
H3    H     H_    0.521176 0.425660 0.710311 0.117080
H4    H     H_    0.479642 0.419411 0.297203 0.115041
H5    H     H_    0.549096 0.014851 0.825480 0.106287
H6    H     H_    0.450869 0.008670 0.167816 0.104420
H7    H     H_    0.450917 0.514795 0.674562 0.106306
H8    H     H_    0.549124 0.508776 0.332215 0.104424
O29   O     O_3   0.986186 0.242392 0.472092 -0.612457
H9    H     H_    0.980224 0.348674 0.505211 0.332986
O30   O     O_3   0.015086 0.758199 0.527983 -0.639991
H10   H     H_    0.023783 0.655455 0.495347 0.302915
O31   O     O_3   0.013828 0.742388 0.027907 -0.612439
H11   H     H_    0.019804 0.848661 0.994789 0.332973
O32   O     O_3   0.984904 0.258202 0.972018 -0.640011
H12   H     H_    0.976206 0.155455 0.004656 0.302950
C85   C     C_2   0.859601 0.643178 0.088248 0.348848
H13   H     H_    0.847838 0.498789 0.082821 0.030554
O33   O     O_2   0.894502 0.689679 0.061257 -0.528894
C86   C     C_2   0.133911 0.822640 0.910910 0.409631
H14   H     H_    0.139549 0.672834 0.913451 0.044667
O34   O     O_2   0.103160 0.890016 0.942804 -0.523428
C87   C     C_2   0.140384 0.143158 0.411747 0.348829
H15   H     H_    0.152134 0.998768 0.417149 0.030492
O35   O     O_2   0.105491 0.189647 0.438751 -0.528922
C88   C     C_2   0.866113 0.323133 0.588896 0.409487
H16   H     H_    0.860460 0.173338 0.586165 0.044211
O36   O     O_2   0.896893 0.390751 0.557134 -0.523343
C89   C     C_2   0.755505 0.643495 0.046632 0.488400
H17   H     H_    0.773010 0.579300 0.003134 0.060839
O37   O     O_2   0.714874 0.591261 0.050024 -0.485234
C90   C     C_2   0.236568 0.760394 0.941575 0.493608
H18   H     H_    0.218662 0.705229 0.986419 0.057834
O38   O     O_2   0.273874 0.685490 0.932730 -0.485818
C91   C     C_2   0.244481 0.143449 0.453376 0.488360
H19   H     H_    0.226963 0.079168 0.496837 0.060817
O39   O     O_2   0.285120 0.091271 0.450010 -0.485241
C92   C     C_2   0.763453 0.260674 0.558230 0.493927
H20   H     H_    0.781348 0.205788 0.513326 0.057727
O40   O     O_2   0.726164 0.185582 0.567058 -0.485540
C93   C     C_2   0.640802 0.971814 0.849779 0.548736
H21   H     H_    0.630688 0.055166 0.796598 0.069618
O41   O     O_2   0.672886 0.856074 0.853584 -0.482276
C94   C     C_2   0.358534 0.992517 0.141311 0.570937
H22   H     H_    0.372025 0.047138 0.200146 0.072729
O42   O     O_2   0.321464 0.900063 0.129447 -0.481919
C95   C     C_2   0.359205 0.471880 0.650274 0.548968
H23   H     H_    0.369333 0.555254 0.703445 0.069495
O43   O     O_2   0.327107 0.356192 0.646489 -0.482024
C96   C     C_2   0.641460 0.492661 0.358709 0.570963
H24   H     H_    0.627962 0.547274 0.299874 0.072735
O44   O     O_2   0.678538 0.400263 0.370567 -0.481937
C97   C     C_2   0.153180 0.359930 0.731152 0.368694
H25   H     H_    0.125267 0.323124 0.680446 0.068598
O45   O     O_2   0.165234 0.523165 0.741457 -0.531668
C98   C     C_2   0.853831 0.181081 0.275591 0.412042
H26   H     H_    0.845539 0.329009 0.271740 0.028749
O46   O     O_2   0.882016 0.122502 0.333609 -0.506254
C99   C     C_2   0.846832 0.859221 0.769217 0.369132
H27   H     H_    0.874859 0.822328 0.819693 0.068524
O47   O     O_2   0.834624 0.022329 0.759326 -0.531295
C100  C     C_2   0.146181 0.681168 0.224464 0.412155
H28   H     H_    0.154472 0.829099 0.228339 0.028697
O48   O     O_2   0.118003 0.622621 0.166431 -0.506191
C101  C     C_2   0.257520 0.338638 0.785867 0.568955
H29   H     H_    0.246876 0.400903 0.727805 0.109451
O49   O     O_2   0.295789 0.387200 0.827457 -0.502148
C102  C     C_2   0.751920 0.224512 0.210450 0.458599
H30   H     H_    0.763661 0.282929 0.269038 0.078403
O50   O     O_2   0.716394 0.292297 0.167581 -0.490930
C103  C     C_2   0.742474 0.838012 0.714386 0.568993
H31   H     H_    0.752982 0.899209 0.772678 0.109836
O51   O     O_2   0.704348 0.887478 0.672627 -0.501999
C104  C     C_2   0.248094 0.724578 0.289621 0.458588
H32   H     H_    0.236347 0.783081 0.231051 0.078438
O52   O     O_2   0.283634 0.792284 0.332486 -0.490953
O53   O     O_3   0.387296 0.937096 0.727182 -0.598496
H33   H     H_    0.413304 0.921005 0.697025 0.287785
O54   O     O_3   0.611483 0.900386 0.264724 -0.607859
H34   H     H_    0.585350 0.897862 0.295181 0.283775
O55   O     O_3   0.612717 0.436896 0.772838 -0.598512
H35   H     H_    0.586711 0.420783 0.802997 0.287781
O56   O     O_3   0.388514 0.400291 0.235321 -0.607849
H36   H     H_    0.414646 0.397752 0.204864 0.283774

loop_
_geom_bond_atom_site_label_1
_geom_bond_atom_site_label_2
_ccdc_geom_bond_type
O17   V3    S    
C104  O52   D    
O56   H36   S    
O1    C5    A    
O31   H11   S    
C23   C27   A    
O19   V1    S    
O13   V1    S    
O55   H35   S    
C77   O53   S    
C11   C12   D    
C75   H3    S    
C48   C52   A    
C21   C37   A    
C11   O31   S    
C93   H21   S    
O32   H12   S    
C95   O43   D    
C34   C38   A    
C97   H25   S    
C28   C99   S    
O7    C3    A    
C85   O33   D    
C25   C57   A    
C32   C36   A    
O2    V4    S    
C102  O50   D    
C94   H22   S    
C21   C102  S    
O10   V2    S    
C14   O22   S    
N4    C20   A    
C52   C96   S    
C89   O37   D    
O16   V4    S    
O4    C8    A    
C101  O49   D    
C91   O39   D    
C96   H24   S    
C9    O29   S    
C87   H15   S    
C64   C67   A    
C49   C81   A    
O1    V3    S    
C52   C84   A    
C35   C91   S    
C31   C59   A    
C51   C83   A    
C65   C82   A    
O3    V1    S    
C100  H28   S    
C61   C73   A    
C67   C84   A    
C56   C79   A    
O3    C7    A    
C1    O15   A    
C68   C72   A    
C87   O35   D    
C31   C87   S    
C2    O16   A    
C24   C40   A    
C22   C101  S    
O2    C6    A    
C16   C48   A    
C98   H26   S    
O14   V2    S    
C76   H4    S    
N1    C17   A    
C44   C56   A    
O5    V1    S    
C36   C40   A    
C44   C71   A    
O11   C7    A    
C104  H32   S    
C64   C76   A    
C24   C103  S    
O15   V3    S    
O54   H34   S    
O12   C8    A    
C92   O40   D    
C79   O55   S    
C75   C79   A    
N4    C40   S    
C36   C92   S    
C1    C60   S    
C93   O41   D    
C63   C71   A    
C88   O36   D    
C97   O45   D    
C31   C35   A    
O7    V3    S    
C30   C34   A    
N1    C37   S    
C103  H31   S    
O8    V4    S    
C17   C53   A    
C4    C57   S    
C20   C56   A    
C54   C77   A    
C86   H14   S    
C53   C78   A    
C19   C55   A    
C95   H23   S    
C13   N1    A    
C21   C25   A    
O18   V4    S    
N3    C19   A    
C55   C80   A    
C14   C46   A    
C62   C65   A    
C7    C9    S    
C66   C70   A    
C51   C95   S    
C8    C10   S    
C24   C28   A    
C102  H30   S    
C15   C47   A    
C27   C100  S    
C103  O51   D    
O5    C1    A    
C29   C33   A    
C25   C98   S    
C46   C50   A    
C65   C69   A    
C22   C38   A    
C45   C49   A    
O8    C4    A    
N3    C39   S    
C74   H2    S    
C9    C10   D    
C73   H1    S    
C68   C83   A    
C27   C59   A    
C42   C54   A    
C26   C58   A    
C41   C53   A    
C63   C75   A    
C42   C69   A    
C43   C55   A    
C41   C70   A    
O6    V2    S    
C90   O38   D    
C10   O30   S    
C64   C72   A    
C92   H20   S    
C26   C97   S    
C32   C60   A    
C61   C69   A    
O30   H10   S    
C12   O32   S    
N2    C38   S    
C66   C81   A    
C15   N3    A    
C88   H16   S    
C22   C26   A    
C20   O27   S    
O9    V1    S    
C16   N4    A    
C73   C77   A    
C62   C74   A    
C41   C45   A    
C100  O48   D    
C32   C88   S    
C78   O54   S    
C63   C68   A    
C49   C93   S    
C67   C71   A    
C44   C48   A    
C86   O34   D    
C3    O13   A    
C2    C59   S    
C15   O23   S    
C84   H8    S    
O11   V3    S    
C5    C11   S    
C82   H6    S    
O12   V4    S    
C6    C12   S    
C85   H13   S    
N2    C18   A    
C19   O28   S    
C18   O25   S    
O10   C6    A    
O20   V2    S    
O29   H9    S    
C89   H17   S    
O9    C5    A    
C47   C51   A    
C3    C58   S    
C29   C85   S    
C101  H29   S    
C43   C72   A    
C43   C47   A    
C33   C37   A    
C30   C58   A    
C94   O42   D    
C34   C90   S    
C17   O26   S    
C35   C39   A    
C13   O21   S    
O53   H33   S    
C29   C57   A    
O4    V2    S    
C14   N2    A    
O6    C2    A    
C18   C54   A    
C99   H27   S    
C50   C94   S    
C76   C80   A    
C16   O24   S    
C23   C104  S    
C13   C45   A    
C90   H18   S    
C62   C70   A    
C74   C78   A    
C42   C46   A    
C4    O14   A    
C91   H19   S    
C33   C89   S    
C50   C82   A    
C96   O44   D    
C80   O56   S    
C30   C86   S    
C28   C60   A    
C81   H5    S    
C61   C66   A    
C23   C39   A    
C98   O46   D    
C99   O47   D    
C83   H7    S    
