data_mof_unit_44306.cif
_audit_creation_date              2013-03-05T15:50:33-0500
_audit_creation_method            fapswitch 2.2
_symmetry_space_group_name_H-M    P1
_symmetry_Int_Tables_number       1
_space_group_crystal_system       triclinic
_cell_length_a                    8.251289
_cell_length_b                    14.956019
_cell_length_c                    17.317259
_cell_angle_alpha                 96.572633
_cell_angle_beta                  95.807363
_cell_angle_gamma                 98.388159
_cell_volume                      2085.14150082

loop_
_atom_site_label
_atom_site_type_symbol
_atom_site_description
_atom_site_fract_x
_atom_site_fract_y
_atom_site_fract_z
_atom_type_partial_charge
P1    P     P_3+3 0.994810 0.708030 0.567580 0.466896
O1    O     O_2   0.167760 0.722240 0.545330 -0.400350
O2    O     O_3   0.895630 0.608830 0.542770 -0.355819
O3    O     O_3   0.383340 0.666720 0.405900 -0.368662
O4    O     O_2   0.302894 0.826074 0.460297 -0.399985
O5    O     O_3   0.003927 0.720177 0.670433 -0.587956
O6    O     O_3   0.368392 0.809793 0.315812 -0.502951
H1    H     H_    0.528797 0.723148 0.276509 0.036040
C1    C     C_3   0.425042 0.787453 0.183347 -0.819669
H2    H     H_    0.316800 0.732466 0.167318 0.266233
H3    H     H_    0.387216 0.853792 0.172971 0.272493
P2    P     P_3+3 0.329370 0.428660 0.324010 0.547850
P3    P     P_3+3 0.921077 0.619255 0.264532 0.509484
O7    O     O_2   0.160650 0.456070 0.313260 -0.316217
O8    O     O_3   0.956180 0.620960 0.366010 -0.390316
O9    O     O_2   0.039592 0.560795 0.226970 -0.343202
O10   O     O_3   0.290718 0.310179 0.299489 -0.535565
O11   O     O_3   0.984807 0.728981 0.241921 -0.522493
C2    C     C_3   0.962432 0.792150 0.304941 0.468795
H4    H     H_    0.045735 0.786342 0.357914 0.164823
H5    H     H_    0.832852 0.781513 0.318308 -0.039487
C3    C     C_3   0.004541 0.887995 0.284164 -0.860302
H6    H     H_    0.991296 0.938362 0.334511 0.239293
H7    H     H_    0.133754 0.900179 0.270519 0.274642
C4    C     C_3   0.661552 0.247026 0.282961 0.642184
H8    H     H_    0.557004 0.233890 0.317470 -0.019196
C5    C     C_3   0.670835 0.160900 0.226295 -0.167364
H9    H     H_    0.571812 0.150860 0.176121 0.115004
H10   H     H_    0.789514 0.170219 0.200892 0.171370
Ba1   Ba    Ba6+2 0.159600 0.544390 0.464780 1.623876
C6    C     C_3   0.164678 0.746535 0.709311 0.832662
H11   H     H_    0.250692 0.708885 0.679646 0.026618
C7    C     C_3   0.218158 0.849685 0.712882 -0.991619
H12   H     H_    0.260006 0.865986 0.656586 0.235671
H13   H     H_    0.322989 0.874898 0.759297 0.278565
H14   H     H_    0.114292 0.886502 0.725585 0.246829
C8    C     C_3   0.235247 0.268553 0.362296 0.267506
H15   H     H_    0.122721 0.294026 0.378159 0.116210
H16   H     H_    0.331086 0.282616 0.413879 0.063155
C9    C     C_3   0.195858 0.165604 0.337484 0.078434
H17   H     H_    0.131768 0.133109 0.382626 0.091266
H18   H     H_    0.313220 0.137111 0.335974 0.063195
P4    P     P_3+3 0.815490 0.291960 0.432360 0.498915
O12   O     O_2   0.642530 0.277700 0.454650 -0.421362
O13   O     O_3   0.914670 0.391160 0.457170 -0.347205
O14   O     O_3   0.426950 0.333280 0.594040 -0.399984
O15   O     O_3   0.815363 0.274492 0.329458 -0.565348
P5    P     P_3+3 0.883816 0.382515 0.736140 0.488241
O16   O     O_3   0.389270 0.546240 0.592370 -0.405926
O17   O     O_3   0.854110 0.379030 0.633930 -0.380040
O18   O     O_2   0.751242 0.432731 0.770811 -0.374073
O19   O     O_3   0.835654 0.271022 0.758431 -0.533131
Ba2   Ba    Ba6+2 0.650580 0.455600 0.535150 1.620354
P6    P     P_3+3 0.425132 0.784954 0.410041 0.443111
C10   C     C_3   0.491298 0.790439 0.268906 0.388102
H19   H     H_    0.599952 0.845392 0.283214 0.107671
H20   H     H_    0.522265 0.773506 0.145786 0.207790
O20   O     O_3   0.421020 0.453750 0.407560 -0.406824
C11   C     C_3   0.584793 0.734856 0.648410 0.365800
H21   H     H_    0.677135 0.698001 0.622239 0.124873
H22   H     H_    0.477933 0.733166 0.603546 0.096995
C12   C     C_3   0.663288 0.833543 0.674883 -0.843178
H23   H     H_    0.781549 0.836462 0.712580 0.267635
H24   H     H_    0.687019 0.869297 0.623666 0.218724
H25   H     H_    0.579639 0.869513 0.708695 0.290502
P7    P     P_3+3 0.479568 0.578457 0.689508 0.485059
O21   O     O_2   0.649640 0.543870 0.686710 -0.310180
O22   O     O_3   0.532742 0.696603 0.713630 -0.532822
H26   H     H_    0.920810 0.896909 0.232231 0.267787
C13   C     C_3   0.877442 0.210452 0.698005 0.313548
H27   H     H_    0.787506 0.204722 0.644744 0.154997
H28   H     H_    0.002449 0.233823 0.682731 -0.030578
C14   C     C_3   0.877540 0.116489 0.724466 -0.111504
H29   H     H_    0.935128 0.072950 0.682320 0.072558
H30   H     H_    0.952863 0.123766 0.782510 0.132070
P8    P     P_3+3 0.383463 0.216258 0.594072 0.470677
C15   C     C_3   0.392779 0.263365 0.742164 0.460270
H31   H     H_    0.265707 0.277312 0.727920 -0.015184
O23   O     O_2   0.508590 0.173452 0.547118 -0.386679
O24   O     O_3   0.427615 0.191777 0.689677 -0.460663
H32   H     H_    0.481291 0.326341 0.740976 0.139842
H33   H     H_    0.381701 0.293983 0.866532 0.201897
C16   C     C_3   0.409109 0.237729 0.824694 -0.865237
H34   H     H_    0.536742 0.225533 0.841518 0.299168
H35   H     H_    0.320836 0.174989 0.827781 0.252051
C17   C     C_R   0.640546 0.829190 0.452576 0.134956
H36   H     H_    0.678494 0.694090 0.472632 0.171011
H37   H     H_    0.495438 0.967721 0.405749 0.178354
C18   C     C_R   0.889396 0.792483 0.519798 0.298608
C19   C     C_R   0.074942 0.235430 0.522552 -0.538817
C20   C     C_R   0.170789 0.173645 0.550055 0.231601
C21   C     C_R   0.107615 0.080991 0.542378 -0.328209
C22   C     C_R   0.945075 0.047174 0.506524 0.050646
C23   C     C_R   0.850096 0.110895 0.475581 -0.023196
C24   C     C_R   0.875012 0.951987 0.499103 0.070604
C25   C     C_R   0.710908 0.922670 0.461597 -0.014058
C26   C     C_R   0.620715 0.987001 0.433770 -0.090720
C27   C     C_R   0.689542 0.078067 0.439380 0.013694
C28   C     C_R   0.960722 0.884898 0.528976 -0.318733
C29   C     C_R   0.732742 0.765296 0.479338 -0.504654
C30   C     C_R   0.917998 0.205788 0.482204 0.214322
H38   H     H_    0.082118 0.902311 0.560429 0.159767
H39   H     H_    0.126904 0.306947 0.528701 0.176114
H40   H     H_    0.189208 0.037482 0.564698 0.177266
H41   H     H_    0.612836 0.121747 0.413864 0.143202
H42   H     H_    0.533288 0.566218 0.859768 0.162923
H43   H     H_    0.721129 0.592294 0.107714 0.154003
C31   C     C_R   0.603628 0.537487 0.281511 -0.396137
C32   C     C_R   0.444421 0.491392 0.255826 0.338702
C33   C     C_R   0.381308 0.485154 0.176652 -0.144862
C34   C     C_R   0.479615 0.522537 0.122962 0.058258
C35   C     C_R   0.642395 0.565737 0.148958 -0.241272
C36   C     C_R   0.704562 0.572396 0.228286 0.264600
C37   C     C_R   0.411232 0.529664 0.837523 -0.156349
C38   C     C_R   0.356389 0.521639 0.757490 0.244169
C39   C     C_R   0.092462 0.439239 0.778824 0.279987
C40   C     C_R   0.146568 0.447025 0.859349 -0.243121
C41   C     C_R   0.306760 0.492324 0.888900 0.058586
C42   C     C_1   0.364537 0.502441 0.971763 0.023329
C43   C     C_1   0.416316 0.511808 0.040705 0.026519
C44   C     C_R   0.198339 0.476007 0.728622 -0.450647
H44   H     H_    0.064643 0.418509 0.898496 0.153435
H45   H     H_    0.258518 0.448266 0.156488 0.156240
H46   H     H_    0.652939 0.540946 0.342284 0.161462
H47   H     H_    0.155829 0.471042 0.666843 0.168990
N1    N     N_R   0.655256 0.078926 0.264382 0.230637
O25   O     O_R   0.509449 0.032996 0.266036 -0.499449
O26   O     O_R   0.783781 0.039733 0.277994 -0.409830
N2    N     N_R   0.167743 0.722371 0.789004 0.218002
O27   O     O_R   0.033816 0.684730 0.813921 -0.358996
O28   O     O_R   0.306646 0.734384 0.834579 -0.400811
O29   O     O_3   0.088957 0.146443 0.266269 -0.575780
C45   C     C_3   0.170100 0.109609 0.205070 0.336578
H48   H     H_    0.200654 0.042027 0.216641 0.123062
H49   H     H_    0.284933 0.156264 0.199232 0.138717
C46   C     C_3   0.056610 0.097008 0.128037 -0.336171
H50   H     H_    0.941418 0.050141 0.132769 0.230866
H51   H     H_    0.023799 0.164002 0.116019 0.222374
C47   C     C_3   0.139816 0.057469 0.060064 -0.909980
H52   H     H_    0.254058 0.103982 0.053413 0.272493
H53   H     H_    0.054528 0.049112 0.004944 0.282915
H54   H     H_    0.171449 0.989723 0.070266 0.273525
N3    N     N_R   0.709698 0.072432 0.728965 0.286703
O30   O     O_R   0.609508 0.043707 0.665134 -0.374047
O31   O     O_R   0.663645 0.055081 0.796071 -0.366420
N4    N     N_R   0.634153 0.318407 0.234362 0.193611
O32   O     O_R   0.758914 0.378102 0.224056 -0.382183
O33   O     O_R   0.500614 0.307445 0.185119 -0.473053

loop_
_geom_bond_atom_site_label_1
_geom_bond_atom_site_label_2
_geom_bond_distance
_ccdc_geom_bond_type
P7    O22   1.748428 S    
C10   H19   1.110908 S    
N1    O25   1.300185 A    
C38   C44   1.395246 A    
Ba2   O20   2.755782 S    
C5    H10   1.110534 S    
C47   H53   1.110443 S    
C14   H29   1.110931 S    
Ba1   O13   2.807023 S    
C24   C25   1.425211 A    
P8    O23   1.542923 D    
O6    C10   1.403767 S    
C40   H44   1.083160 S    
O14   P8    1.734622 S    
C37   C38   1.399722 A    
C15   H31   1.107692 S    
C31   C32   1.395046 A    
C22   C23   1.435053 A    
C27   H41   1.073652 S    
P3    O11   1.749271 S    
C18   C28   1.405510 A    
C21   C22   1.414822 A    
C2    H5    1.109495 S    
C8    H15   1.101610 S    
C31   H46   1.081924 S    
O11   C2    1.404743 S    
C8    C9    1.528154 S    
C11   O22   1.400630 S    
C5    N1    1.452905 S    
C24   C28   1.423508 A    
H36   C29   1.081691 S    
C23   C27   1.400281 A    
N3    O30   1.300998 A    
C7    H14   1.110947 S    
C39   C40   1.406807 A    
P1    O1    1.507203 D    
H43   C35   1.083282 S    
C41   C42   1.449165 S    
P2    C32   1.842898 S    
C12   H24   1.106394 S    
C7    H13   1.109605 S    
C33   C34   1.405112 A    
O12   Ba2   2.847376 S    
P4    Ba2   3.387385 S    
P5    O18   1.546149 D    
C34   C35   1.407841 A    
C23   C30   1.434931 A    
O29   C45   1.411550 S    
P2    O10   1.748571 S    
C45   C46   1.526475 S    
N1    O26   1.298556 A    
C6    C7    1.533794 S    
C4    N4    1.461760 S    
C1    C10   1.519861 S    
C17   C29   1.396000 A    
C1    H2    1.111008 S    
C4    O15   1.411795 S    
C3    H26   1.110177 S    
H37   C26   1.080107 S    
P5    C39   1.844664 S    
P2    O20   1.541940 S    
P5    O17   1.755860 S    
O5    C6    1.404988 S    
C9    O29   1.416436 S    
O13   Ba2   2.900192 S    
C11   H21   1.106802 S    
C22   C24   1.442351 A    
C14   H30   1.112326 S    
O7    Ba1   2.800766 S    
C46   C47   1.526193 S    
H1    C10   1.113038 S    
C35   C36   1.404049 A    
C26   C27   1.385590 A    
N4    O33   1.301277 A    
Ba1   Ba2   4.538921 S    
C11   H22   1.109984 S    
O17   Ba2   2.736079 S    
P7    C38   1.833102 S    
C18   C29   1.387521 A    
P1    O5    1.762361 S    
O4    P6    1.545643 D    
C2    C3    1.517572 S    
C46   H51   1.111777 S    
O16   P7    1.753019 S    
C20   C21   1.393821 A    
P6    C17   1.849310 S    
C4    H8    1.105285 S    
P2    Ba1   3.366502 S    
C34   C43   1.449246 S    
P1    O2    1.576127 S    
C31   C36   1.398013 A    
O2    Ba1   2.899439 S    
P4    O12   1.507563 D    
P4    C30   1.883182 S    
C19   C30   1.392921 A    
C44   H47   1.082309 S    
C12   H23   1.110135 S    
C33   H45   1.083533 S    
P4    O13   1.576127 S    
C16   H34   1.110577 S    
C15   H32   1.108018 S    
C47   H52   1.111199 S    
C25   C26   1.397936 A    
C13   C14   1.527271 S    
C7    H12   1.107727 S    
O10   C8    1.397372 S    
C1    H3    1.110816 S    
C37   C41   1.405363 A    
C17   C25   1.418085 A    
C9    H17   1.105718 S    
C16   H35   1.110780 S    
Ba1   O16   2.756329 S    
H42   C37   1.083609 S    
P3    O8    1.748505 S    
C45   H48   1.111684 S    
C3    H7    1.109023 S    
C13   H27   1.110674 S    
O8    Ba1   2.735420 S    
N4    O32   1.301605 A    
C14   N3    1.457933 S    
C15   O24   1.405342 S    
N3    O31   1.300697 A    
C11   C12   1.521254 S    
P1    C18   1.857615 S    
C12   H25   1.107551 S    
O3    P6    1.743289 S    
C6    H11   1.099483 S    
P8    O24   1.750280 S    
P2    O7    1.507430 D    
C46   H50   1.111748 S    
C42   C43   1.211841 T    
C4    C5    1.543581 S    
O1    Ba1   2.846905 S    
C2    H4    1.108874 S    
N2    O27   1.301879 A    
C6    N2    1.464793 S    
C40   C41   1.410845 A    
O2    Ba2   2.807593 S    
C19   C20   1.394241 A    
O16   Ba2   2.906224 S    
Ba1   O20   2.906993 S    
O14   Ba2   2.759477 S    
C9    H18   1.114910 S    
P1    Ba1   3.386911 S    
C47   H54   1.111195 S    
P7    O21   1.568131 D    
C1    H20   1.110638 S    
Ba2   O21   2.800953 S    
P3    C36   1.839533 S    
C19   H39   1.081715 S    
O19   C13   1.407710 S    
C21   H40   1.076491 S    
P8    C20   1.832608 S    
P5    O19   1.752854 S    
C28   H38   1.071850 S    
C8    H16   1.110422 S    
H33   C16   1.110413 S    
P3    O9    1.546557 D    
C5    H9    1.111643 S    
C45   H49   1.112446 S    
C15   C16   1.519636 S    
C3    H6    1.110182 S    
C13   H28   1.107818 S    
C39   C44   1.394407 A    
O6    P6    1.747812 S    
C32   C33   1.404201 A    
P4    O15   1.771063 S    
O3    Ba1   2.760036 S    
N2    O28   1.301230 A    
