data_mof_unit_8708.cif
_audit_creation_date              2012-12-10T18:46:14-0500
_audit_creation_method            fapswitch 2.2
_symmetry_space_group_name_H-M    P1
_symmetry_Int_Tables_number       1
_space_group_crystal_system       triclinic
_cell_length_a                    9.90324
_cell_length_b                    10.66573
_cell_length_c                    13.096929
_cell_angle_alpha                 90.870014
_cell_angle_beta                  69.444007
_cell_angle_gamma                 88.168284
_cell_volume                      1294.10980828

loop_
_atom_site_label
_atom_site_type_symbol
_atom_type_description
_atom_site_fract_x
_atom_site_fract_y
_atom_site_fract_z
_atom_type_partial_charge
C1    C     C_R   0.499399 0.739240 0.497170 0.935491
C2    C     C_R   0.433278 0.495441 0.983757 0.092682
C3    C     C_R   0.456749 0.452121 0.877193 0.030892
C4    C     C_R   0.545186 0.474010 0.026206 0.024441
C5    C     C_R   0.673425 0.401249 0.965571 0.055561
C6    C     C_R   0.676880 0.335282 0.869581 0.196106
C7    C     C_R   0.569216 0.363298 0.826719 -0.236882
C8    C     C_R   0.532002 0.523359 0.128293 -0.233415
C9    C     C_R   0.762512 0.432107 0.115319 -0.316306
C10   C     C_R   0.365715 0.497087 0.823027 -0.095317
C11   C     C_R   0.613198 0.929807 0.419452 0.147326
C12   C     C_R   0.419337 0.496973 0.704325 0.839136
C13   C     C_R   0.622230 0.058275 0.431366 0.155871
C14   C     C_R   0.504760 0.126557 0.507606 -0.185779
C15   C     C_R   0.387417 0.066453 0.582495 -0.056239
C16   C     C_R   0.386050 0.937136 0.575079 -0.217452
C17   C     C_R   0.497265 0.871121 0.494515 -0.145717
C18   C     C_R   0.970462 0.445739 0.414020 0.197511
C19   C     C_R   0.114175 0.447335 0.415123 -0.096687
C20   C     C_R   0.031655 0.553809 0.584405 -0.132213
C21   C     C_R   0.888279 0.556067 0.584283 0.243370
C22   C     C_R   0.501082 0.260015 0.502847 0.861125
C23   C     C_R   0.580533 0.500668 0.295440 0.884219
C24   C     C_R   0.789242 0.394541 0.006913 -0.008076
C25   C     C_R   0.630440 0.489855 0.177110 -0.048055
C26   C     C_R   0.235352 0.561639 0.881336 -0.142518
C27   C     C_R   0.200089 0.588306 0.991822 -0.160720
C28   C     C_R   0.299233 0.559379 0.042331 -0.197632
H1    H     H_    0.844400 0.417255 0.151248 0.171706
H2    H     H_    0.300577 0.886775 0.633538 0.191653
H3    H     H_    0.204067 0.405544 0.348956 0.166862
H4    H     H_    0.053859 0.595987 0.652241 0.158417
H5    H     H_    0.440829 0.582585 0.175655 0.146608
H6    H     H_    0.163531 0.595480 0.840747 0.172496
H7    H     H_    0.265751 0.586584 0.127347 0.131254
H8    H     H_    0.098657 0.637170 0.037363 0.151900
H9    H     H_    0.569170 0.311506 0.755116 0.161285
N1    N     N_R   0.142790 0.500030 0.500030 -0.108085
N2    N     N_R   0.857180 0.499940 0.500010 -0.134167
O1    O     O_R   0.385370 0.683250 0.500010 -0.622798
O2    O     O_R   0.614700 0.683220 0.500010 -0.588275
O3    O     O_R   0.328400 0.499990 0.653620 -0.607460
O4    O     O_R   0.557730 0.499960 0.653620 -0.584119
O5    O     O_R   0.385300 0.316780 0.499990 -0.620097
O6    O     O_R   0.614630 0.316750 0.499990 -0.616306
O7    O     O_R   0.442270 0.500040 0.346380 -0.623463
O8    O     O_R   0.671600 0.500010 0.346380 -0.623534
Zn1   Zn    Zn3+2 0.346870 0.500020 0.500000 0.946615
Zn2   Zn    Zn3+2 0.653130 0.499980 0.500000 0.944544
N3    N     N_2   0.754092 0.116697 0.375459 -0.295449
H10   H     H_    0.794376 0.099672 0.292281 0.215983
C29   C     C_3   0.862006 0.101242 0.426796 -0.741274
H11   H     H_    0.965338 0.062684 0.366775 0.223368
H12   H     H_    0.827698 0.037319 0.496953 0.232336
H13   H     H_    0.881386 0.192959 0.458559 0.250183
C30   C     C_2   0.272559 0.135766 0.673182 0.418530
H14   H     H_    0.280709 0.234686 0.689286 0.097831
O9    O     O_2   0.168017 0.082273 0.732879 -0.593257
N4    N     N_2   0.942463 0.388679 0.324347 -0.294230
H15   H     H_    0.845314 0.346470 0.345697 0.295170
C31   C     C_3   0.057194 0.319549 0.239522 -0.883916
H16   H     H_    0.103571 0.242904 0.274998 0.249003
H17   H     H_    0.142590 0.383607 0.194564 0.259434
H18   H     H_    0.013995 0.276527 0.180236 0.237535
N5    N     N_2   0.776338 0.612977 0.674618 -0.249450
H19   H     H_    0.773265 0.576185 0.747753 0.231552
C32   C     C_3   0.773756 0.748617 0.678911 -0.762592
H20   H     H_    0.872225 0.782420 0.691008 0.220971
H21   H     H_    0.677625 0.784155 0.748176 0.241098
H22   H     H_    0.766396 0.787049 0.602915 0.251898
N6    N     N_2   0.771945 0.228563 0.825347 -0.292774
H23   H     H_    0.821134 0.185503 0.873682 0.243636
C33   C     C_3   0.852034 0.223177 0.708903 -0.653072
H24   H     H_    0.926559 0.139149 0.687740 0.255967
H25   H     H_    0.916012 0.308105 0.683565 0.264080
H26   H     H_    0.778345 0.214530 0.662385 0.210419
C34   C     C_2   0.941153 0.360270 0.939922 0.369048
H27   H     H_    0.013289 0.320539 0.978142 0.078065
O10   O     O_2   0.989886 0.383665 0.843186 -0.584252
N7    N     N_2   0.711265 0.861392 0.327050 -0.315522
H28   H     H_    0.722364 0.899719 0.252846 0.208973
C35   C     C_3   0.845984 0.813320 0.334382 -0.702335
H29   H     H_    0.861022 0.712242 0.310094 0.256760
H30   H     H_    0.847873 0.823575 0.418199 0.240861
H31   H     H_    0.937782 0.863709 0.277909 0.209665

loop_
_geom_bond_atom_site_label_1
_geom_bond_atom_site_label_2
_ccdc_geom_bond_type
C33   H24   S    
C4    C8    A    
C19   H3    S    
C9    C25   A    
O8    Zn2   S    
C34   H27   S    
C26   C27   A    
C12   O4    A    
C3    C7    A    
C5    C6    A    
C16   H2    S    
C15   C16   A    
C30   H14   S    
C18   C19   A    
C31   H17   S    
C12   O3    A    
C1    O1    A    
C26   H6    S    
C22   O5    A    
C28   H7    S    
C16   C17   A    
N5    C32   S    
N3    C29   S    
N1    Zn1   S    
C29   H13   S    
C9    H1    S    
C10   C26   A    
N4    H15   S    
C23   O7    A    
C13   C14   A    
C8    C25   A    
C33   H25   S    
O2    Zn2   S    
C29   H12   S    
C34   O10   D    
C6    N6    S    
O7    Zn1   S    
N4    C31   S    
C23   O8    A    
C32   H20   S    
N7    C35   S    
N6    C33   S    
O4    Zn2   S    
C32   H21   S    
C31   H18   S    
C2    C4    A    
C18   N2    A    
C19   N1    A    
C20   N1    A    
C18   N4    S    
C21   N2    A    
O6    Zn2   S    
N3    H10   S    
C7    H9    S    
O3    Zn1   S    
C10   C12   S    
C1    O2    A    
N2    Zn2   S    
N5    H19   S    
C35   H30   S    
C33   H26   S    
C29   H11   S    
C20   H4    S    
O1    Zn1   S    
C11   C17   A    
C21   N5    S    
N7    H28   S    
C9    C24   A    
C6    C7    A    
C27   H8    S    
C35   H31   S    
C1    C17   S    
C32   H22   S    
C15   C30   S    
C14   C22   S    
C2    C3    A    
N6    H23   S    
C3    C10   A    
C11   C13   A    
C5    C24   A    
C30   O9    D    
C8    H5    S    
C23   C25   S    
C31   H16   S    
C11   N7    S    
C13   N3    S    
C24   C34   S    
C4    C5    A    
C22   O6    A    
C20   C21   A    
C35   H29   S    
C27   C28   A    
C14   C15   A    
C2    C28   A    
O5    Zn1   S    
