data_mof_unit_47878.cif
_audit_creation_date              2012-12-10T21:07:44-0500
_audit_creation_method            fapswitch 2.2
_symmetry_space_group_name_H-M    P1
_symmetry_Int_Tables_number       1
_space_group_crystal_system       triclinic
_cell_length_a                    8.554078
_cell_length_b                    17.271311
_cell_length_c                    16.90836
_cell_angle_alpha                 89.87277
_cell_angle_beta                  98.116184
_cell_angle_gamma                 91.408359
_cell_volume                      2472.27360781

loop_
_atom_site_label
_atom_site_type_symbol
_atom_type_description
_atom_site_fract_x
_atom_site_fract_y
_atom_site_fract_z
_atom_type_partial_charge
C1    C     C_R   0.507807 0.352832 0.500661 0.921415
C2    C     C_R   0.499671 0.646858 0.499666 0.951986
C3    C     C_1   0.631987 0.966120 0.480605 0.102833
C4    C     C_1   0.641083 0.034961 0.483472 0.084024
C5    C     C_R   0.398231 0.448267 0.825713 -0.187488
C6    C     C_R   0.624465 0.537724 0.175899 -0.199469
C7    C     C_R   0.402523 0.448927 0.741422 0.005682
C8    C     C_R   0.615658 0.540763 0.259656 0.005440
C9    C     C_R   0.597111 0.550011 0.756262 -0.030873
C10   C     C_R   0.383318 0.461332 0.242146 -0.042989
C11   C     C_R   0.605261 0.546775 0.840737 0.357912
C12   C     C_R   0.387597 0.457441 0.158445 0.366100
C13   C     C_R   0.502124 0.497463 0.876211 -0.076637
C14   C     C_R   0.508341 0.495988 0.124445 -0.086102
C15   C     C_1   0.505483 0.496964 0.964063 0.104795
C16   C     C_1   0.506724 0.496248 0.036702 0.102377
C17   C     C_R   0.201126 0.498008 0.479468 1.006315
C18   C     C_R   0.798897 0.501225 0.520591 0.980107
C19   C     C_2   0.036582 0.490714 0.469340 -0.335232
C20   C     C_2   0.963558 0.507023 0.531107 -0.267129
C21   C     C_R   0.706022 0.837757 0.527636 0.512812
C22   C     C_R   0.541901 0.153447 0.422786 0.519794
C23   C     C_R   0.662887 0.760585 0.538068 -0.324735
C24   C     C_R   0.495319 0.228597 0.431211 -0.264748
C25   C     C_R   0.520580 0.730100 0.498651 -0.118191
C26   C     C_R   0.543498 0.270230 0.501548 -0.190581
C27   C     C_R   0.416787 0.776166 0.447372 -0.112045
C28   C     C_R   0.639741 0.234906 0.566359 -0.086809
C29   C     C_R   0.458027 0.854798 0.437298 -0.161347
C30   C     C_R   0.682673 0.156869 0.559389 -0.138672
C31   C     C_R   0.601811 0.884796 0.478963 -0.065913
C32   C     C_R   0.630541 0.116828 0.487465 -0.098768
H1    H     H_    0.976190 0.469672 0.412316 0.214625
H2    H     H_    0.024002 0.527271 0.588495 0.227252
H3    H     H_    0.742686 0.723334 0.575108 0.159262
H4    H     H_    0.422590 0.254767 0.381353 0.228297
N1    N     N_R   0.500040 0.500030 0.707230 -0.196074
N2    N     N_R   0.499960 0.499970 0.292770 -0.188242
O1    O     O_R   0.500000 0.389130 0.566570 -0.606834
O2    O     O_R   0.500000 0.610870 0.433430 -0.588326
O3    O     O_R   0.499990 0.389100 0.433480 -0.595821
O4    O     O_R   0.500010 0.610900 0.566520 -0.614433
O5    O     O_R   0.271750 0.500010 0.550980 -0.614873
O6    O     O_R   0.728250 0.499990 0.449020 -0.645717
O7    O     O_R   0.271740 0.499980 0.417890 -0.599515
O8    O     O_R   0.728260 0.500020 0.582110 -0.576223
Zn1   Zn    Zn3+2 0.500010 0.500020 0.588860 1.010911
Zn2   Zn    Zn3+2 0.499990 0.499980 0.411140 1.004062
O9    O     O_3   0.842557 0.869867 0.570274 -0.595710
C33   C     C_3   0.976380 0.835722 0.545793 0.088934
H5    H     H_    0.968861 0.834972 0.479396 0.180992
H6    H     H_    0.989990 0.775615 0.569001 0.159746
C34   C     C_3   0.123452 0.882567 0.579650 -0.633464
H7    H     H_    0.134432 0.884465 0.645859 0.254843
H8    H     H_    0.229979 0.855385 0.562409 0.206920
H9    H     H_    0.116237 0.942609 0.555972 0.276357
O10   O     O_3   0.487285 0.113675 0.352988 -0.586415
C35   C     C_3   0.604957 0.115610 0.301873 0.166076
H10   H     H_    0.592737 0.061317 0.266257 0.210483
H11   H     H_    0.728247 0.117353 0.334191 0.116628
C36   C     C_3   0.580871 0.183571 0.243977 -0.885181
H12   H     H_    0.602840 0.239318 0.276660 0.247770
H13   H     H_    0.664627 0.180134 0.199638 0.229256
H14   H     H_    0.458288 0.181766 0.211840 0.271281
C37   C     C_2   0.267120 0.741347 0.405107 0.974622
O11   O     O_2   0.226052 0.754566 0.334229 -0.556128
O12   O     O_R   0.174359 0.692543 0.446642 -0.849526
H15   H     H_    0.075624 0.672439 0.411856 0.359503
C38   C     C_2   0.707548 0.281105 0.637193 0.989444
O13   O     O_2   0.657926 0.271597 0.700931 -0.516749
O14   O     O_R   0.825937 0.336761 0.630170 -0.795927
H16   H     H_    0.859826 0.365945 0.681950 0.370779
C39   C     C_2   0.349402 0.906328 0.386079 0.991848
O15   O     O_2   0.400500 0.948100 0.336687 -0.584025
O16   O     O_R   0.189109 0.906926 0.394285 -0.820891
H17   H     H_    0.127799 0.944440 0.356269 0.357843
C40   C     C_2   0.784599 0.117324 0.625361 0.943579
O17   O     O_2   0.894110 0.078248 0.610340 -0.601575
O18   O     O_R   0.753926 0.123370 0.704090 -0.740379
H18   H     H_    0.831185 0.093592 0.743071 0.357766
C41   C     C_2   0.283719 0.396854 0.860693 0.919328
O19   O     O_2   0.203508 0.423140 0.908224 -0.631931
O20   O     O_R   0.267319 0.318669 0.839147 -0.755126
H19   H     H_    0.185253 0.290027 0.866641 0.345093
C42   C     C_2   0.754519 0.578940 0.142167 1.000622
O21   O     O_2   0.834105 0.543832 0.100193 -0.608553
O22   O     O_R   0.786659 0.657419 0.158964 -0.757315
H20   H     H_    0.879006 0.678545 0.133292 0.356003
C43   C     C_2   0.292158 0.397084 0.690464 1.039393
O23   O     O_2   0.156400 0.416744 0.670098 -0.649695
O24   O     O_R   0.337652 0.322653 0.673045 -0.720094
H21   H     H_    0.249947 0.291803 0.639625 0.347574
C44   C     C_2   0.730327 0.591373 0.309846 1.032221
O25   O     O_2   0.869324 0.574307 0.321613 -0.635351
O26   O     O_R   0.683738 0.663169 0.334832 -0.753772
H22   H     H_    0.773905 0.693881 0.366541 0.326407
C45   C     C_2   0.689222 0.612039 0.723141 1.006355
O27   O     O_2   0.812920 0.597818 0.698550 -0.656401
O28   O     O_R   0.642055 0.688538 0.728241 -0.764597
H23   H     H_    0.722116 0.727382 0.711844 0.344043
C46   C     C_2   0.243376 0.427493 0.272033 1.022653
O29   O     O_2   0.114852 0.456901 0.253294 -0.561764
O30   O     O_R   0.255446 0.360265 0.317953 -0.840279
H24   H     H_    0.150542 0.342537 0.334036 0.325031
O31   O     O_3   0.711549 0.594618 0.888328 -0.596906
C47   C     C_3   0.857378 0.556709 0.903890 0.117308
H25   H     H_    0.895231 0.532844 0.848540 0.154469
H26   H     H_    0.848659 0.508436 0.946841 0.198937
C48   C     C_3   0.985056 0.614224 0.939996 -0.630620
H27   H     H_    0.951663 0.640527 0.994845 0.263553
H28   H     H_    0.098644 0.584202 0.955527 0.235209
H29   H     H_    0.000842 0.660861 0.896279 0.241995
O32   O     O_3   0.267228 0.418826 0.109573 -0.560276
C49   C     C_3   0.309250 0.340775 0.102669 0.103893
H30   H     H_    0.357511 0.315225 0.161489 0.125736
H31   H     H_    0.398606 0.336305 0.061129 0.157138
C50   C     C_3   0.163198 0.292993 0.069305 -0.715714
H32   H     H_    0.110821 0.316091 0.010456 0.278698
H33   H     H_    0.195634 0.231855 0.061780 0.201027
H34   H     H_    0.074109 0.294969 0.111069 0.254797

loop_
_geom_bond_atom_site_label_1
_geom_bond_atom_site_label_2
_ccdc_geom_bond_type
O22   H20   S    
C44   O25   D    
C27   C29   A    
O26   H22   S    
C39   O15   D    
C28   C38   S    
C22   O10   S    
C21   O9    S    
C49   H30   S    
C40   O17   D    
C21   C31   A    
C24   H4    S    
C6    C42   S    
C22   C32   A    
O20   H19   S    
C22   C24   A    
C24   C26   A    
O32   C49   S    
C48   H28   S    
C42   O21   D    
O7    Zn2   S    
C29   C39   S    
C47   H25   S    
C35   H11   S    
C15   C16   T    
C7    C43   S    
C38   O14   S    
C36   H13   S    
C45   O28   S    
C30   C40   S    
C19   C20   D    
C37   O12   S    
C11   O31   S    
C33   H6    S    
C43   O24   S    
N2    Zn2   S    
C20   H2    S    
C35   C36   S    
C40   O18   S    
C44   O26   S    
C39   O16   S    
C38   O13   D    
C8    N2    A    
C18   O8    A    
C41   O20   S    
C45   O27   D    
C34   H8    S    
C33   C34   S    
C42   O22   S    
O12   H15   S    
C46   O29   D    
C19   H1    S    
C50   H34   S    
O24   H21   S    
C5    C7    A    
C50   H33   S    
C6    C8    A    
C35   H10   S    
C34   H7    S    
C41   O19   D    
C36   H14   S    
O16   H17   S    
C17   O5    A    
C27   C37   S    
C18   O6    A    
C6    C14   A    
C5    C41   S    
O28   H23   S    
C9    N1    A    
C33   H5    S    
C7    N1    A    
C3    C31   S    
C9    C11   A    
C4    C32   S    
C10   C12   A    
C1    O3    A    
C12   C14   A    
C37   O11   D    
C23   H3    S    
C13   C15   S    
C1    C26   S    
C14   C16   S    
C48   H29   S    
N1    Zn1   S    
C3    C4    T    
O1    Zn1   S    
C12   O32   S    
C34   H9    S    
O2    Zn2   S    
O8    Zn1   S    
C9    C45   S    
C5    C13   A    
C10   C46   S    
C8    C44   S    
C17   O7    A    
C49   H31   S    
C25   C27   A    
O31   C47   S    
C26   C28   A    
C10   N2    A    
C21   C23   A    
O14   H16   S    
C29   C31   A    
C48   H27   S    
C30   C32   A    
C11   C13   A    
O10   C35   S    
C47   H26   S    
C2    O4    A    
C28   C30   A    
C17   C19   S    
O3    Zn2   S    
C2    C25   S    
C18   C20   S    
O4    Zn1   S    
C23   C25   A    
C36   H12   S    
C49   C50   S    
C1    O1    A    
O18   H18   S    
C2    O2    A    
C46   O30   S    
O9    C33   S    
O30   H24   S    
C43   O23   D    
C50   H32   S    
O5    Zn1   S    
O6    Zn2   S    
C47   C48   S    
