data_mof_unit_58788.cif
_audit_creation_date              2012-12-11T14:58:30-0500
_audit_creation_method            fapswitch 2.2
_symmetry_space_group_name_H-M    P1
_symmetry_Int_Tables_number       1
_space_group_crystal_system       triclinic
_cell_length_a                    10.981771
_cell_length_b                    10.972581
_cell_length_c                    18.82645
_cell_angle_alpha                 90.308379
_cell_angle_beta                  90.774225
_cell_angle_gamma                 59.669446
_cell_volume                      1957.86952772

loop_
_atom_site_label
_atom_site_type_symbol
_atom_type_description
_atom_site_fract_x
_atom_site_fract_y
_atom_site_fract_z
_atom_type_partial_charge
C1    C     C_R   0.359069 0.772155 0.397731 0.543007
C2    C     C_R   0.604876 0.093989 0.176064 0.017249
C3    C     C_R   0.356253 0.318696 0.166252 0.004986
C4    C     C_R   0.466513 0.220829 0.279307 -0.147192
C5    C     C_R   0.473153 0.213760 0.206362 -0.028469
C6    C     C_R   0.072871 0.705040 0.282511 -0.074279
C7    C     C_R   0.955844 0.821735 0.312299 -0.097520
C8    C     C_R   0.608504 0.972011 0.151409 -0.025984
C9    C     C_R   0.726323 0.867151 0.115699 0.154026
C10   C     C_R   0.245078 0.433544 0.201149 -0.154213
C11   C     C_R   0.241899 0.443711 0.274915 -0.034391
C12   C     C_R   0.383610 0.353032 0.388706 0.536052
C13   C     C_R   0.881792 0.802839 0.366673 -0.109283
C14   C     C_R   0.924888 0.667169 0.391554 -0.102006
C15   C     C_R   0.041595 0.550005 0.361818 -0.046200
C16   C     C_R   0.117839 0.567765 0.307392 0.062187
C17   C     C_R   0.355427 0.335444 0.314535 -0.003924
C18   C     C_R   0.955312 0.297286 0.308690 -0.155558
C19   C     C_R   0.985210 0.288933 0.236807 -0.131913
C20   C     C_R   0.875848 0.335567 0.186128 0.034527
C21   C     C_R   0.735499 0.404220 0.206907 -0.154005
C22   C     C_R   0.705594 0.410311 0.278697 -0.135676
C23   C     C_R   0.777223 0.378740 0.403073 0.535833
C24   C     C_R   0.815553 0.356216 0.329365 0.040879
C25   C     C_R   0.472740 0.766587 0.285587 -0.136738
C26   C     C_R   0.460904 0.787408 0.212628 -0.171331
C27   C     C_R   0.328818 0.877677 0.182764 0.019152
C28   C     C_R   0.209977 0.947385 0.226605 -0.142755
C29   C     C_R   0.220345 0.921781 0.298474 -0.149729
C30   C     C_R   0.350913 0.827952 0.327733 0.032911
C31   C     C_R   0.377926 0.200496 0.693278 -0.144469
C32   C     C_R   0.365287 0.186619 0.765068 -0.126981
C33   C     C_R   0.297276 0.307017 0.808625 0.028227
C34   C     C_R   0.347553 0.765619 0.606107 0.540163
C35   C     C_R   0.231093 0.441743 0.778953 -0.158092
C36   C     C_R   0.242625 0.455761 0.706558 -0.136814
C37   C     C_R   0.321930 0.334835 0.664319 0.025994
C38   C     C_R   0.909347 0.388251 0.707742 -0.150412
C39   C     C_R   0.948194 0.371073 0.778680 -0.144809
C40   C     C_R   0.924463 0.281907 0.821438 0.004259
C41   C     C_R   0.873458 0.199671 0.791464 -0.103598
C42   C     C_R   0.829061 0.218100 0.720197 -0.004876
C43   C     C_R   0.841144 0.320286 0.678736 0.021419
C44   C     C_R   0.200299 0.848536 0.711669 -0.151507
C45   C     C_R   0.369240 0.350924 0.595581 0.539344
C46   C     C_R   0.185399 0.861400 0.784353 -0.145138
C47   C     C_R   0.299172 0.839921 0.827237 0.013493
C48   C     C_R   0.428242 0.801285 0.797984 -0.108655
C49   C     C_R   0.445651 0.793529 0.724850 -0.010848
C50   C     C_R   0.329842 0.812159 0.680559 0.025375
C51   C     C_R   0.912486 0.316074 0.112162 0.564354
C52   C     C_R   0.328877 0.291939 0.093366 0.544567
C53   C     C_R   0.304641 0.904202 0.106956 0.556164
C54   C     C_R   0.949817 0.279925 0.897641 0.562954
C55   C     C_R   0.292329 0.285017 0.883866 0.537237
C56   C     C_R   0.766791 0.373769 0.610098 0.533308
C57   C     C_R   0.274810 0.893357 0.898677 0.545335
C58   C     C_R   0.849034 0.874757 0.113195 -0.082424
C59   C     C_R   0.852091 0.987687 0.145413 -0.145522
C60   C     C_R   0.730837 0.096467 0.176735 -0.126532
Cr1   Cr    Cr6+3 0.601770 0.606860 0.505860 0.984799
Cr2   Cr    Cr6+3 0.291380 0.601660 0.495070 1.018659
Cr3   Cr    Cr6+3 0.606880 0.291510 0.499120 0.994249
Cr4   Cr    Cr6+3 0.062440 0.063090 0.008210 1.006154
Cr5   Cr    Cr6+3 0.062880 0.375170 0.998920 1.051648
Cr6   Cr    Cr6+3 0.374700 0.061720 0.992470 1.049530
H1    H     H_    0.555071 0.137641 0.308600 0.146424
H2    H     H_    0.791486 0.893402 0.389778 0.108920
H3    H     H_    0.868414 0.653049 0.434333 0.130363
H4    H     H_    0.074229 0.445876 0.382184 0.096625
H5    H     H_    0.040082 0.258062 0.347715 0.095622
H6    H     H_    0.093774 0.244301 0.220444 0.117177
H7    H     H_    0.650564 0.445302 0.167858 0.127614
H8    H     H_    0.596608 0.458279 0.294979 0.123474
H9    H     H_    0.575532 0.694629 0.308272 0.153456
H10   H     H_    0.553029 0.731085 0.180078 0.163401
H11   H     H_    0.107048 0.018923 0.204788 0.128050
H12   H     H_    0.126184 0.970230 0.330520 0.121548
H13   H     H_    0.437748 0.106861 0.661243 0.120372
H14   H     H_    0.411848 0.081030 0.786837 0.142683
H15   H     H_    0.175136 0.534928 0.811779 0.122136
H16   H     H_    0.198342 0.561182 0.684831 0.140401
H17   H     H_    0.923610 0.463098 0.676883 0.134997
H18   H     H_    0.989956 0.433527 0.801165 0.138436
H19   H     H_    0.860720 0.127992 0.825380 0.142545
H20   H     H_    0.110420 0.864279 0.679925 0.132728
H21   H     H_    0.923075 0.927060 0.293632 0.108724
H22   H     H_    0.083359 0.893543 0.806735 0.130276
H23   H     H_    0.512967 0.783750 0.833938 0.149937
H24   H     H_    0.941642 0.793580 0.086616 0.134554
H25   H     H_    0.948054 0.991022 0.145567 0.155003
H26   H     H_    0.735735 0.180220 0.202974 0.130016
H27   H     H_    0.129325 0.721856 0.240555 0.111946
H28   H     H_    0.515783 0.965433 0.156730 0.153772
H29   H     H_    0.155405 0.512847 0.170872 0.144454
O1    O     O_R   0.748800 0.497470 0.428000 -0.530565
O2    O     O_R   0.300070 0.471040 0.567100 -0.508649
O3    O     O_R   0.491670 0.258900 0.574910 -0.538009
O4    O     O_R   0.718780 0.304180 0.577850 -0.516861
O5    O     O_3   0.500010 0.500010 0.500020 -0.241985
O6    O     O_R   0.186690 0.923650 0.086970 -0.540001
O7    O     O_R   0.957250 0.194250 0.084630 -0.522863
O8    O     O_R   0.934970 0.407490 0.085330 -0.456704
O9    O     O_R   0.203780 0.365190 0.067090 -0.505847
O10   O     O_R   0.417600 0.174890 0.067840 -0.506988
O11   O     O_R   0.375320 0.946260 0.070860 -0.482575
O12   O     O_R   0.476420 0.724060 0.429470 -0.511428
O13   O     O_R   0.160600 0.919630 0.926660 -0.529716
O14   O     O_R   0.933060 0.190520 0.936020 -0.502822
O15   O     O_R   0.908880 0.403460 0.925020 -0.486672
O16   O     O_R   0.179600 0.361450 0.918490 -0.525386
O17   O     O_R   0.391510 0.170860 0.907530 -0.516863
O18   O     O_R   0.351130 0.942530 0.922260 -0.499046
O19   O     O_3   0.166667 0.166667 0.999870 -0.289794
O20   O     O_R   0.264580 0.744340 0.416750 -0.505439
O21   O     O_R   0.309380 0.472470 0.418200 -0.492907
O22   O     O_R   0.501710 0.260430 0.414300 -0.531242
O23   O     O_R   0.728090 0.305600 0.428960 -0.500857
O24   O     O_R   0.738760 0.495930 0.588610 -0.547549
O25   O     O_R   0.467110 0.722640 0.578360 -0.519408
O26   O     O_R   0.254530 0.742800 0.577360 -0.527369
Br1   Br    Br    0.716239 0.722334 0.064260 -0.520725
C61   C     C_3   0.758422 0.139905 0.690341 -0.255328
C62   C     C_3   0.754693 0.029826 0.737500 -0.479602
H30   H     H_    0.862863 0.944794 0.751968 0.138873
H31   H     H_    0.691324 0.079047 0.785772 0.167545
H32   H     H_    0.702324 0.983167 0.706250 0.144632
H33   H     H_    0.647012 0.219386 0.678400 0.201679
H34   H     H_    0.813462 0.084200 0.641062 0.166661
C63   C     C_3   0.587765 0.760787 0.696178 -0.269799
C64   C     C_3   0.698381 0.751636 0.749906 -0.480364
H35   H     H_    0.656321 0.850198 0.781360 0.154891
H36   H     H_    0.731343 0.661039 0.786549 0.172114
H37   H     H_    0.793783 0.733804 0.721289 0.135065
H38   H     H_    0.634681 0.655523 0.673748 0.219868
H39   H     H_    0.571964 0.839351 0.654755 0.150180

loop_
_geom_bond_atom_site_label_1
_geom_bond_atom_site_label_2
_ccdc_geom_bond_type
C33   C55   S    
Cr6   O18   S    
C38   H17   S    
Cr1   O24   S    
Cr5   O19   S    
C35   C36   A    
C64   H37   S    
C23   O23   A    
C35   H15   S    
Cr1   O1    S    
C61   C62   S    
C51   O7    A    
Cr4   O7    S    
C26   C27   A    
Cr3   O5    S    
C18   C24   A    
C28   C29   A    
C39   H18   S    
C18   C19   A    
C20   C51   S    
C45   O3    A    
C38   C39   A    
C55   O17   A    
C2    C60   A    
C32   H14   S    
C51   O8    A    
C15   C16   A    
C21   H7    S    
C18   H5    S    
C23   O1    A    
C54   O15   A    
C9    C58   A    
C41   C42   A    
Cr5   O16   S    
Cr3   O4    S    
C33   C35   A    
C53   O11   A    
C11   C17   A    
C29   H12   S    
C47   C48   A    
C36   H16   S    
C8    C9    A    
C12   C17   S    
C26   H10   S    
C23   C24   S    
C59   C60   A    
C21   C22   A    
C61   H34   S    
Cr1   O25   S    
C19   H6    S    
Cr6   O11   S    
C44   H20   S    
C44   C46   A    
C42   C61   S    
Cr4   O13   S    
C46   H22   S    
C60   H26   S    
C34   O25   A    
Cr4   O6    S    
C63   H39   S    
C34   C50   S    
Cr4   O19   S    
Cr4   O14   S    
C8    H28   S    
C53   O6    A    
C39   C40   A    
Cr3   O23   S    
C57   O18   A    
C3    C5    A    
C58   C59   A    
Cr3   O22   S    
C31   C37   A    
C54   O14   A    
C25   H9    S    
Cr2   O21   S    
C29   C30   A    
C47   C57   S    
Cr2   O2    S    
C11   C16   S    
C31   C32   A    
C7    C13   A    
C6    H27   S    
C9    Br1   S    
C59   H25   S    
C28   H11   S    
C58   H24   S    
C1    O12   A    
C62   H32   S    
Cr2   O5    S    
C4    C17   A    
C40   C41   A    
C63   H38   S    
C52   O10   A    
C34   O26   A    
C40   C54   S    
C48   H23   S    
C14   H3    S    
C22   C24   A    
Cr1   O5    S    
C42   C43   A    
C22   H8    S    
Cr6   O10   S    
C37   C45   S    
C64   H35   S    
C62   H31   S    
C44   C50   A    
C25   C30   A    
C15   H4    S    
C46   C47   A    
C52   O9    A    
Cr6   O19   S    
C55   O16   A    
C2    C8    A    
C4    C5    A    
C64   H36   S    
C4    H1    S    
C3    C52   S    
C27   C53   S    
C31   H13   S    
C6    C7    A    
Cr3   O3    S    
C41   H19   S    
C49   C63   S    
Cr5   O9    S    
C32   C33   A    
C19   C20   A    
C63   C64   S    
C25   C26   A    
Cr2   O20   S    
C3    C10   A    
C45   O2    A    
C61   H33   S    
C10   H29   S    
C48   C49   A    
C1    C30   S    
C56   O24   A    
Cr1   O12   S    
Cr5   O15   S    
C10   C11   A    
C6    C16   A    
C12   O22   A    
C2    C5    S    
C43   C56   S    
C38   C43   A    
C57   O13   A    
C7    H21   S    
C20   C21   A    
C36   C37   A    
C49   C50   A    
C27   C28   A    
Cr5   O8    S    
C14   C15   A    
C1    O20   A    
C56   O4    A    
Cr6   O17   S    
C13   C14   A    
Cr2   O26   S    
C62   H30   S    
C12   O21   A    
C13   H2    S    
