data_mof_unit_29510.cif
_audit_creation_date              2013-03-05T15:45:22-0500
_audit_creation_method            fapswitch 2.2
_symmetry_space_group_name_H-M    P1
_symmetry_Int_Tables_number       1
_space_group_crystal_system       triclinic
_cell_length_a                    10.999039
_cell_length_b                    10.962663
_cell_length_c                    18.864899
_cell_angle_alpha                 89.775776
_cell_angle_beta                  89.965803
_cell_angle_gamma                 119.972462
_cell_volume                      1970.47603662

loop_
_atom_site_label
_atom_site_type_symbol
_atom_site_description
_atom_site_fract_x
_atom_site_fract_y
_atom_site_fract_z
_atom_type_partial_charge
O1    O     O_R   0.916700 0.566820 0.669930 -0.425426
O2    O     O_R   0.650120 0.083300 0.830070 -0.442513
O3    O     O_R   0.433180 0.349880 0.669930 -0.450731
O4    O     O_R   0.916700 0.566820 0.830070 -0.444011
O5    O     O_R   0.650120 0.083300 0.669930 -0.443754
O6    O     O_R   0.433180 0.349880 0.830070 -0.442334
O7    O     O_R   0.566820 0.916700 0.169930 -0.443236
O8    O     O_R   0.083300 0.650120 0.330070 -0.447594
O9    O     O_R   0.349880 0.433180 0.169930 -0.444352
O10   O     O_R   0.566820 0.916700 0.330070 -0.443496
O11   O     O_R   0.083300 0.650120 0.169930 -0.442008
O12   O     O_R   0.349880 0.433180 0.330070 -0.445347
O13   O     O_R   0.649840 0.534790 0.674920 -0.488328
O14   O     O_R   0.884950 0.350160 0.825080 -0.489589
O15   O     O_R   0.465210 0.115050 0.674920 -0.505682
O16   O     O_R   0.649840 0.534790 0.825080 -0.494015
O17   O     O_R   0.884950 0.350160 0.674920 -0.475954
O18   O     O_R   0.465210 0.115050 0.825080 -0.494325
O19   O     O_R   0.534790 0.649840 0.174920 -0.492117
O20   O     O_R   0.350160 0.884950 0.325080 -0.494406
O21   O     O_R   0.115050 0.465210 0.174920 -0.495755
O22   O     O_R   0.534790 0.649840 0.325080 -0.489777
O23   O     O_R   0.350160 0.884950 0.174920 -0.494932
O24   O     O_R   0.115050 0.465210 0.325080 -0.496125
C1    C     C_R   0.526543 0.467273 0.646458 0.571143
C2    C     C_R   0.939576 0.472488 0.853678 0.585805
C3    C     C_R   0.533820 0.061298 0.646189 0.563038
C4    C     C_R   0.527521 0.466752 0.853753 0.581238
C5    C     C_R   0.883556 0.451178 0.638505 0.542403
C6    C     C_R   0.532994 0.060190 0.853642 0.579336
C7    C     C_R   0.467047 0.527383 0.146366 0.582512
C8    C     C_R   0.472526 0.939417 0.353662 0.580463
C9    C     C_R   0.060631 0.533166 0.146282 0.582105
C10   C     C_R   0.466481 0.526941 0.353617 0.594158
C11   C     C_R   0.472637 0.939666 0.146310 0.580010
C12   C     C_R   0.055433 0.529581 0.351661 0.580591
Cr1   Cr    Cr6+3 0.776430 0.541680 0.750000 1.180119
Cr2   Cr    Cr6+3 0.765250 0.223570 0.750000 1.179980
Cr3   Cr    Cr6+3 0.458320 0.234750 0.750000 1.163690
Cr4   Cr    Cr6+3 0.541680 0.776430 0.250000 1.185545
Cr5   Cr    Cr6+3 0.223570 0.765250 0.250000 1.180905
Cr6   Cr    Cr6+3 0.234750 0.458320 0.250000 1.180282
O25   O     O_3   0.666667 0.333333 0.750000 -0.354766
O26   O     O_3   0.333333 0.666667 0.250000 -0.343041
C13   C     C_R   0.395062 0.010305 0.536598 -0.132407
C14   C     C_R   0.616150 0.606960 0.963408 -0.131726
C15   C     C_R   0.949610 0.368136 0.531248 -0.134460
C16   C     C_R   0.392333 0.007480 0.963405 -0.133109
C17   C     C_R   0.603484 0.612282 0.536940 -0.144347
C18   C     C_R   0.991921 0.383996 0.963721 -0.131767
C19   C     C_R   0.008829 0.392568 0.036681 -0.130390
C20   C     C_R   0.598547 0.618660 0.463969 -0.146867
C21   C     C_R   0.384339 0.991597 0.036436 -0.133034
C22   C     C_R   0.987514 0.382842 0.460330 -0.116112
C23   C     C_R   0.607850 0.615463 0.036374 -0.132457
C24   C     C_R   0.385423 0.992640 0.463632 -0.108449
H1    H     H_    0.317175 0.023550 0.564686 0.245444
H2    H     H_    0.708570 0.685429 0.936006 0.248653
H3    H     H_    0.952569 0.286605 0.562030 0.246429
H4    H     H_    0.313823 0.021155 0.936125 0.249051
H5    H     H_    0.686160 0.698174 0.564236 0.265402
H6    H     H_    0.977895 0.291311 0.936740 0.248384
H7    H     H_    0.022800 0.313922 0.064073 0.248560
H8    H     H_    0.673078 0.713790 0.437012 0.246566
H9    H     H_    0.292098 0.977828 0.063698 0.248753
H10   H     H_    0.027291 0.318480 0.438714 0.238935
H11   H     H_    0.686269 0.708036 0.063340 0.248525
H12   H     H_    0.291705 0.976706 0.436830 0.249816
C25   C     C_R   0.496097 0.995141 0.425894 -0.015642
C26   C     C_R   0.499323 0.504300 0.074051 -0.014375
C27   C     C_R   0.977294 0.482598 0.418410 0.003736
C28   C     C_R   0.495549 0.994655 0.073806 -0.013940
C29   C     C_R   0.496723 0.503982 0.426243 -0.008006
C30   C     C_R   0.006251 0.501418 0.073848 -0.014180
C31   C     C_R   0.994486 0.495323 0.926046 -0.016015
C32   C     C_R   0.499460 0.498098 0.574176 -0.019518
C33   C     C_R   0.500788 0.004792 0.926067 -0.014839
C34   C     C_R   0.923112 0.467399 0.563570 -0.049827
C35   C     C_R   0.504936 0.498426 0.926256 -0.014781
C36   C     C_R   0.503495 0.007961 0.573628 -0.028559
C37   C     C_R   0.616037 0.012456 0.462808 0.159375
C38   C     C_R   0.396521 0.384906 0.037026 0.164255
C39   C     C_R   0.926137 0.565962 0.448437 0.191899
C40   C     C_R   0.614411 0.010499 0.036453 0.163743
C41   C     C_R   0.395768 0.382516 0.463323 0.163226
C42   C     C_R   0.990455 0.604757 0.036287 0.162659
C43   C     C_R   0.010890 0.614868 0.963085 0.164185
C44   C     C_R   0.383952 0.391112 0.536589 0.164312
C45   C     C_R   0.603794 0.988958 0.963433 0.163639
C46   C     C_R   0.925915 0.577093 0.522074 0.152414
C47   C     C_R   0.386123 0.395226 0.963855 0.163451
C48   C     C_R   0.606801 0.992590 0.536230 0.160284
N1    N     N_R   0.744870 0.050859 0.425620 0.101638
O27   O     O_R   0.788414 0.147647 0.376600 -0.310438
O28   O     O_R   0.803060 0.973067 0.430113 -0.224262
N2    N     N_R   0.304931 0.255319 0.073781 0.103314
O29   O     O_R   0.357031 0.208809 0.121693 -0.312863
O30   O     O_R   0.169345 0.197829 0.069128 -0.229611
N3    N     N_R   0.884397 0.646116 0.404178 0.081257
O31   O     O_R   0.929344 0.778700 0.416038 -0.213173
O32   O     O_R   0.806879 0.587447 0.348699 -0.305904
N4    N     N_R   0.743761 0.048803 0.072726 0.103136
O33   O     O_R   0.789723 0.147692 0.120224 -0.313623
O34   O     O_R   0.801506 0.970586 0.068250 -0.229463
N5    N     N_R   0.305729 0.253470 0.426474 0.099480
O35   O     O_R   0.359213 0.209403 0.378226 -0.315976
O36   O     O_R   0.169957 0.194738 0.431123 -0.227684
N6    N     N_R   0.952981 0.696819 0.072478 0.103329
O37   O     O_R   0.030679 0.832839 0.066923 -0.229016
O38   O     O_R   0.854309 0.644722 0.120325 -0.307093
N7    N     N_R   0.048620 0.744503 0.926332 0.103535
O39   O     O_R   0.147160 0.790924 0.878437 -0.318649
O40   O     O_R   0.970591 0.802328 0.931080 -0.229250
N8    N     N_R   0.254091 0.297971 0.572337 0.110491
O41   O     O_R   0.200285 0.349849 0.616067 -0.298755
O42   O     O_R   0.197439 0.162062 0.567702 -0.230011
N9    N     N_R   0.695275 0.950907 0.927155 0.102915
O43   O     O_R   0.830875 0.028727 0.932065 -0.229602
O44   O     O_R   0.643186 0.852486 0.879411 -0.314674
N10   N     N_R   0.974674 0.715156 0.550970 0.129980
O45   O     O_R   0.094425 0.818031 0.529690 -0.301017
O46   O     O_R   0.901411 0.742625 0.595223 -0.262236
N11   N     N_R   0.256761 0.303695 0.927755 0.103598
O47   O     O_R   0.210225 0.356318 0.880114 -0.313198
O48   O     O_R   0.198471 0.167611 0.933185 -0.229670
N12   N     N_R   0.698106 0.954492 0.572968 0.094822
O49   O     O_R   0.833476 0.026968 0.564626 -0.224579
O50   O     O_R   0.647259 0.862415 0.624275 -0.313349

loop_
_geom_bond_atom_site_label_1
_geom_bond_atom_site_label_2
_geom_bond_distance
_ccdc_geom_bond_type
O16   C4    1.285414 A    
C36   C48   1.417217 A    
N12   O49   1.299886 A    
C40   N4    1.440554 S    
N7    O39   1.301614 A    
C19   C30   1.398818 A    
O19   C7    1.286169 A    
N8    O41   1.301409 A    
N11   O47   1.301563 A    
C34   C46   1.419649 A    
N5    O36   1.300409 A    
C33   C45   1.416743 A    
O9    Cr6   2.076259 S    
N1    O27   1.301700 A    
C38   N2    1.440594 S    
N9    O44   1.301613 A    
C14   C35   1.398765 A    
N11   O48   1.300065 A    
O21   C9    1.283708 A    
O24   Cr6   1.960408 S    
N6    O37   1.300084 A    
O10   Cr4   2.077631 S    
O8    C12   1.263709 A    
C4    C35   1.463747 S    
O12   Cr6   2.075788 S    
O5    C3    1.260289 A    
C37   C48   1.397011 A    
C7    C26   1.463906 S    
O6    C4    1.262756 A    
C5    C34   1.462634 S    
C13   C24   1.387536 A    
N2    O30   1.300159 A    
C14   C23   1.386039 A    
O7    Cr4   2.068622 S    
O18   C6    1.286015 A    
C21   H9    1.078134 S    
C32   C44   1.418185 A    
O13   Cr1   1.961792 S    
C12   C27   1.463181 S    
O1    Cr1   2.075344 S    
O16   Cr1   1.960164 S    
O22   Cr4   1.953755 S    
N1    O28   1.299602 A    
C47   N11   1.440528 S    
O5    Cr2   2.079581 S    
C14   H2    1.078295 S    
C6    C33   1.462547 S    
O13   C1    1.294732 A    
Cr6   O26   1.979394 S    
C41   N5    1.440142 S    
N10   O46   1.296387 A    
C16   H4    1.078098 S    
C27   C39   1.410732 A    
C16   C21   1.385210 A    
O22   C10   1.285284 A    
C17   H5    1.061843 S    
C22   C27   1.396462 A    
O11   C9    1.261044 A    
C19   H7    1.078403 S    
O8    Cr5   2.071621 S    
C3    C36   1.462491 S    
C20   H8    1.076734 S    
C42   C43   1.394053 A    
Cr3   O25   1.986182 S    
C24   H12   1.081729 S    
C15   H3    1.078040 S    
O14   C2    1.285081 A    
C38   C47   1.393984 A    
N8    O42   1.299710 A    
C46   N10   1.439215 S    
C16   C33   1.397962 A    
Cr1   O25   1.979687 S    
O18   Cr3   1.954165 S    
O14   Cr2   1.964034 S    
C37   N1    1.441471 S    
O2    Cr2   2.069716 S    
O15   C3    1.287177 A    
N3    O31   1.300671 A    
O3    C1    1.257519 A    
C17   C20   1.380566 A    
C13   H1    1.077077 S    
N2    O29   1.301628 A    
O1    C5    1.279016 A    
C18   C19   1.386264 A    
C17   C32   1.389460 A    
N7    O40   1.300158 A    
O24   C12   1.282238 A    
C30   C42   1.416400 A    
N4    O34   1.300172 A    
O15   Cr3   1.961531 S    
C29   C41   1.417702 A    
C28   C40   1.416680 A    
C15   C22   1.385702 A    
C31   C43   1.417512 A    
N3    O32   1.301713 A    
C45   N9    1.440707 S    
C11   C28   1.462546 S    
C20   C29   1.393722 A    
O23   C11   1.286500 A    
C18   H6    1.078329 S    
Cr5   O26   1.982227 S    
C40   C45   1.393607 A    
O12   C10   1.259266 A    
N10   O45   1.295965 A    
O20   C8    1.288081 A    
C41   C44   1.396112 A    
C39   C46   1.395089 A    
N12   O50   1.302367 A    
C35   C47   1.416421 A    
C42   N6    1.440598 S    
C48   N12   1.442563 S    
O4    C2    1.259999 A    
C8    C25   1.464887 S    
C22   H10   1.079831 S    
N5    O35   1.301783 A    
N9    O43   1.300117 A    
O23   Cr5   1.955577 S    
O2    C6    1.262496 A    
C1    C32   1.469610 S    
Cr2   O25   1.981756 S    
O17   C5    1.307499 A    
C23   H11   1.078249 S    
O7    C11   1.263071 A    
N6    O38   1.301627 A    
O11   Cr5   2.080150 S    
C13   C36   1.393760 A    
O17   Cr2   1.955048 S    
C44   N8    1.440072 S    
N4    O33   1.301636 A    
C26   C38   1.417362 A    
C23   C26   1.397827 A    
C25   C37   1.418895 A    
O19   Cr4   1.961681 S    
O9    C7    1.261300 A    
C10   C29   1.460345 S    
O3    Cr3   2.070114 S    
O21   Cr6   1.961117 S    
O10   C8    1.262591 A    
C9    C30   1.463839 S    
Cr4   O26   1.986006 S    
C43   N7    1.440570 S    
O4    Cr1   2.078251 S    
C2    C31   1.464181 S    
C24   C25   1.398164 A    
O6    Cr3   2.077068 S    
C39   N3    1.441461 S    
C15   C34   1.401000 A    
C18   C31   1.397927 A    
C21   C28   1.398079 A    
O20   Cr5   1.964199 S    
