data_mof_unit_62947.cif
_audit_creation_date              2013-03-05T16:03:26-0500
_audit_creation_method            fapswitch 2.2
_symmetry_space_group_name_H-M    P1
_symmetry_Int_Tables_number       1
_space_group_crystal_system       triclinic
_cell_length_a                    18.914644
_cell_length_b                    18.600108
_cell_length_c                    18.998063
_cell_angle_alpha                 109.580197
_cell_angle_beta                  111.160709
_cell_angle_gamma                 109.382944
_cell_volume                      5032.57623578

loop_
_atom_site_label
_atom_site_type_symbol
_atom_site_description
_atom_site_fract_x
_atom_site_fract_y
_atom_site_fract_z
_atom_type_partial_charge
O1    O     O_R   0.592740 0.540340 0.447840 -0.572288
O2    O     O_R   0.592480 0.644870 0.552180 -0.628116
C1    C     C_R   0.618319 0.621577 0.498107 1.002705
O3    O     O_R   0.407320 0.447740 0.355030 -0.571067
O4    O     O_R   0.407060 0.552270 0.459360 -0.577639
C2    C     C_R   0.380218 0.501085 0.378841 0.984409
Zn1   Zn    Zn3+2 0.500170 0.430200 0.430330 1.194277
Zn2   Zn    Zn3+2 0.499830 0.569800 0.569670 1.200596
O5    O     O_R   0.407520 0.355130 0.447820 -0.611522
O6    O     O_R   0.407260 0.459660 0.552160 -0.538471
O7    O     O_R   0.592940 0.447730 0.540640 -0.585875
O8    O     O_R   0.592680 0.552260 0.644970 -0.606960
C3    C     C_R   0.378815 0.377968 0.498608 0.926090
C4    C     C_R   0.622539 0.501431 0.621754 0.885244
C5    C     C_3   0.298020 0.580574 0.325951 0.347595
C6    C     C_3   0.198527 0.513934 0.276324 0.195940
C7    C     C_3   0.190676 0.501529 0.189593 -0.291421
C8    C     C_3   0.290528 0.568780 0.238357 -0.204820
C9    C     C_3   0.306394 0.490099 0.224616 0.427371
C10   C     C_3   0.206127 0.422610 0.174074 -0.188721
C11   C     C_3   0.215084 0.436769 0.262153 0.167253
C12   C     C_3   0.314339 0.502415 0.311623 -0.343513
H1    H     H_    0.320919 0.623015 0.227434 0.252879
H2    H     H_    0.169108 0.357488 0.112305 0.270443
C13   C     C_3   0.708898 0.649545 0.429105 0.245583
H3    H     H_    0.735133 0.608431 0.445149 0.236261
C14   C     C_3   0.779059 0.722784 0.430921 0.087263
H4    H     H_    0.751667 0.719201 0.367093 0.235118
C15   C     C_3   0.652474 0.753154 0.480168 0.126499
C16   C     C_3   0.769384 0.750571 0.594104 -0.071765
C17   C     C_3   0.685386 0.691002 0.498481 -0.392818
H5    H     H_    0.748355 0.785236 0.634748 0.189639
C18   C     C_3   0.809817 0.816408 0.505300 -0.455332
C19   C     C_3   0.723871 0.826941 0.480547 0.377836
C20   C     C_3   0.848072 0.821139 0.599007 0.529360
H6    H     H_    0.644053 0.785839 0.534955 0.195191
C21   C     C_3   0.643233 0.410067 0.687525 -0.002290
H7    H     H_    0.588202 0.408196 0.696949 0.177107
C22   C     C_3   0.710638 0.409706 0.766024 0.379327
H8    H     H_    0.741733 0.461969 0.604413 0.261604
H9    H     H_    0.814094 0.423831 0.695980 0.284254
C23   C     C_3   0.765039 0.507242 0.673876 -0.319021
C24   C     C_3   0.730618 0.579342 0.782913 -0.358193
C25   C     C_3   0.688672 0.499009 0.689729 -0.096452
H10   H     H_    0.756208 0.643104 0.784000 0.249570
H11   H     H_    0.680242 0.575102 0.800885 0.262670
C26   C     C_3   0.806504 0.493524 0.809047 -0.129979
C27   C     C_3   0.826036 0.490094 0.735534 -0.368870
C28   C     C_3   0.807423 0.581529 0.851136 -0.368796
H12   H     H_    0.803285 0.593114 0.910429 0.242263
H13   H     H_    0.870954 0.639018 0.873582 0.257022
H14   H     H_    0.804189 0.575728 0.689194 0.261809
H15   H     H_    0.895842 0.539764 0.763012 0.246718
C29   C     C_3   0.276153 0.213188 0.423568 -0.449204
H16   H     H_    0.331087 0.200285 0.431185 0.253884
H17   H     H_    0.246677 0.207765 0.358293 0.276213
C30   C     C_3   0.206680 0.141130 0.425419 0.105383
H18   H     H_    0.228634 0.095528 0.435131 0.218824
H19   H     H_    0.399670 0.286720 0.582106 0.187034
C31   C     C_3   0.355488 0.312191 0.587649 0.139958
C32   C     C_3   0.231087 0.322675 0.478153 0.038112
C33   C     C_3   0.312125 0.309420 0.498627 -0.259470
H20   H     H_    0.203722 0.310440 0.409756 0.169345
C34   C     C_3   0.192269 0.188344 0.500650 -0.338077
C35   C     C_3   0.285222 0.245410 0.594385 0.335664
C36   C     C_3   0.158655 0.248465 0.473899 0.037328
H21   H     H_    0.107301 0.204747 0.402257 0.216898
O9    O     O_R   0.948700 0.540360 0.093520 -0.624136
O10   O     O_R   0.053270 0.644880 0.093500 -0.540757
C37   C     C_R   0.004406 0.622605 0.124315 0.899159
O11   O     O_R   0.041720 0.447740 0.093910 -0.561237
O12   O     O_R   0.146290 0.552270 0.093890 -0.608768
C38   C     C_R   0.122653 0.500691 0.122418 0.989957
Zn3   Zn    Zn3+2 0.931370 0.430220 0.001110 1.238314
Zn4   Zn    Zn3+2 0.071010 0.569800 0.001080 1.192842
O13   O     O_R   0.949110 0.355140 0.908700 -0.553206
O14   O     O_R   0.053680 0.459670 0.908680 -0.593849
O15   O     O_R   0.856090 0.447760 0.908300 -0.569640
O16   O     O_R   0.960660 0.552280 0.908280 -0.602254
C39   C     C_R   0.003391 0.377801 0.884018 0.956190
C40   C     C_R   0.878605 0.497761 0.878397 0.890814
O17   O     O_R   0.052690 0.907450 0.460090 -0.609123
O18   O     O_R   0.947900 0.907390 0.355230 -0.578896
C41   C     C_R   0.000099 0.878842 0.378461 0.889000
O19   O     O_R   0.959780 0.907430 0.552420 -0.528049
O20   O     O_R   0.854990 0.907370 0.447560 -0.590213
C42   C     C_R   0.878646 0.883694 0.504450 0.976375
Zn5   Zn    Zn3+2 0.069970 0.000040 0.570020 1.222291
Zn6   Zn    Zn3+2 0.930030 0.999960 0.429990 1.261461
O21   O     O_R   0.052100 0.092610 0.644770 -0.594965
O22   O     O_R   0.947310 0.092550 0.539920 -0.549231
O23   O     O_R   0.145010 0.092640 0.552440 -0.585163
O24   O     O_R   0.040220 0.092570 0.447580 -0.565862
C43   C     C_R   0.001355 0.123366 0.621514 0.969572
C44   C     C_R   0.122131 0.120646 0.499813 0.928586
C45   C     C_3   0.940662 0.719196 0.145156 0.087701
H22   H     H_    0.873557 0.658145 0.100932 0.183367
C46   C     C_3   0.940223 0.791814 0.214714 0.121591
H23   H     H_    0.969896 0.854774 0.215054 0.212980
H24   H     H_    0.900859 0.598168 0.194701 0.249708
H25   H     H_    0.906227 0.700322 0.305525 0.264860
C47   C     C_3   0.970391 0.655001 0.241494 -0.433507
C48   C     C_3   0.102419 0.778360 0.262945 0.692579
C49   C     C_3   0.006312 0.693730 0.191986 -0.165322
C50   C     C_3   0.000746 0.811866 0.309776 -0.173098
C51   C     C_3   0.972198 0.725984 0.313586 -0.321254
C52   C     C_3   0.096956 0.848139 0.330440 -0.470639
H26   H     H_    0.119729 0.911251 0.329975 0.220289
H27   H     H_    0.142515 0.866421 0.398569 0.250534
H28   H     H_    0.009388 0.628281 0.271045 0.267067
H29   H     H_    0.019244 0.739886 0.379113 0.255099
C53   C     C_3   0.957447 0.211857 0.808948 0.444407
C54   C     C_3   0.963346 0.147456 0.735610 -0.524715
H30   H     H_    0.009492 0.127299 0.765386 0.271944
H31   H     H_    0.899198 0.085174 0.686404 0.291083
H32   H     H_    0.877664 0.274762 0.712823 0.221831
C55   C     C_3   0.945396 0.298003 0.725854 -0.066008
C56   C     C_3   0.098295 0.336059 0.840749 0.131174
C57   C     C_3   0.001246 0.306938 0.817237 -0.396825
H33   H     H_    0.131764 0.403988 0.852859 0.258811
C58   C     C_3   0.000228 0.191437 0.690133 -0.337000
C59   C     C_3   0.939973 0.225945 0.649309 0.639050
C60   C     C_3   0.097160 0.270624 0.764775 0.154989
H34   H     H_    0.137901 0.243335 0.790046 0.223579
N1    N     N_R   0.137456 0.525470 0.302374 0.256171
O25   O     O_R   0.166687 0.594209 0.376651 -0.233389
O26   O     O_R   0.053557 0.465584 0.252587 -0.281009
Cl1   Cl    Cl    0.540594 0.694853 0.387887 -0.394122
N2    N     N_R   0.686203 0.823829 0.394992 0.276464
O27   O     O_R   0.644297 0.750581 0.319541 -0.260346
O28   O     O_R   0.689139 0.894138 0.393173 -0.195085
N3    N     N_R   0.794300 0.699410 0.632292 0.234859
O29   O     O_R   0.820809 0.727338 0.714805 -0.344174
O30   O     O_R   0.798196 0.631789 0.588007 -0.372571
Cl2   Cl    Cl    0.937053 0.797326 0.625144 -0.293301
N4    N     N_R   0.888625 0.911904 0.673867 0.216407
O31   O     O_R   0.857732 0.928581 0.724691 -0.279338
O32   O     O_R   0.966773 0.973284 0.701038 -0.330856
Cl3   Cl    Cl    0.752162 0.932505 0.563671 -0.447805
N5    N     N_R   0.602353 0.331088 0.600503 0.250729
O33   O     O_R   0.517100 0.277051 0.553213 -0.333750
O34   O     O_R   0.649752 0.312297 0.570515 -0.283458
Cl4   Cl    Cl    0.360407 0.686396 0.425063 -0.318182
N6    N     N_R   0.684980 0.418362 0.832570 0.199362
O35   O     O_R   0.685652 0.368326 0.866808 -0.241212
O36   O     O_R   0.655539 0.471020 0.854043 -0.345000
N7    N     N_R   0.706940 0.323155 0.732028 0.255649
O37   O     O_R   0.775596 0.317539 0.739099 -0.381560
O38   O     O_R   0.633929 0.250125 0.698464 -0.185242
Cl5   Cl    Cl    0.107361 0.065421 0.317263 -0.521733
N8    N     N_R   0.319929 0.189038 0.616050 0.208762
O39   O     O_R   0.341120 0.144272 0.567020 -0.363271
O40   O     O_R   0.350021 0.200093 0.694605 -0.202309
N9    N     N_R   0.251341 0.413241 0.532828 0.279265
O41   O     O_R   0.302986 0.458236 0.618165 -0.184541
O42   O     O_R   0.221402 0.451987 0.494560 -0.257524
Cl6   Cl    Cl    0.377850 0.473748 0.189109 -0.301793
N10   N     N_R   0.110601 0.276778 0.511769 0.248138
O43   O     O_R   0.026649 0.243888 0.459096 -0.245147
O44   O     O_R   0.151675 0.347460 0.588479 -0.170801
Cl7   Cl    Cl    0.441702 0.418274 0.687337 -0.397794
N11   N     N_R   0.272253 0.290204 0.665540 0.262189
O45   O     O_R   0.238860 0.245533 0.696780 -0.290313
O46   O     O_R   0.302132 0.375134 0.705804 -0.152956
Cl8   Cl    Cl    0.959698 0.752967 0.072396 -0.496412
N12   N     N_R   0.848673 0.765948 0.190667 0.233351
O47   O     O_R   0.796496 0.692445 0.181480 -0.328645
O48   O     O_R   0.816390 0.812800 0.170131 -0.254755
Cl9   Cl    Cl    0.175272 0.747762 0.319391 -0.468720
Cl10  Cl    Cl    0.155870 0.831662 0.218381 -0.370518
N13   N     N_R   0.864046 0.177914 0.785130 0.235632
O49   O     O_R   0.798766 0.135607 0.704066 -0.246100
O50   O     O_R   0.844078 0.178160 0.844025 -0.219658
N14   N     N_R   0.005689 0.214622 0.892235 0.257045
O51   O     O_R   0.025591 0.276371 0.966402 -0.338429
O52   O     O_R   0.002123 0.142360 0.889078 -0.235178
N15   N     N_R   0.176360 0.364021 0.275104 0.235008
O53   O     O_R   0.196815 0.302603 0.259911 -0.355282
O54   O     O_R   0.118463 0.357691 0.297831 -0.252760
Cl11  Cl    Cl    0.826278 0.137570 0.569735 -0.330205
Cl12  Cl    Cl    0.173207 0.353921 0.944435 -0.466885
Cl13  Cl    Cl    0.152540 0.334435 0.730411 -0.328486
N16   N     N_R   0.972462 0.382408 0.726090 0.244099
O55   O     O_R   0.912732 0.387521 0.670144 -0.303582
O56   O     O_R   0.054758 0.438643 0.758684 -0.263657
Cl14  Cl    Cl    0.967249 0.265711 0.582948 -0.261400
Cl15  Cl    Cl    0.615303 0.573229 0.317662 -0.336346
Cl16  Cl    Cl    0.863474 0.698733 0.430285 -0.488874

loop_
_geom_bond_atom_site_label_1
_geom_bond_atom_site_label_2
_geom_bond_distance
_ccdc_geom_bond_type
C13   C17   1.580874 S    
C5    C8    1.549828 S    
C53   N14   1.486896 S    
N13   O49   1.298275 A    
C6    C11   1.526692 S    
C29   H16   1.112860 S    
C4    C25   1.464446 S    
N7    O37   1.299531 A    
N16   O55   1.298928 A    
C32   N9    1.474772 S    
C56   H33   1.104162 S    
C60   H34   1.112567 S    
C26   C28   1.553359 S    
C14   C18   1.566035 S    
Zn1   O7    2.021018 S    
C50   C52   1.553286 S    
C15   H6    1.112729 S    
C46   C50   1.575972 S    
Zn3   O13   2.058652 S    
C16   C20   1.570982 S    
O18   C41   1.281411 A    
C22   C26   1.608128 S    
N7    O38   1.302848 A    
N5    O34   1.301462 A    
N11   O45   1.301670 A    
C60   Cl13  1.766363 S    
N16   O56   1.299909 A    
C16   C17   1.565491 S    
O7    C4    1.288450 A    
C37   C49   1.482956 S    
C59   Cl14  1.801130 S    
C53   N13   1.488420 S    
C59   Cl11  1.803602 S    
O9    Zn3   2.028454 S    
C5    C6    1.534331 S    
C2    C12   1.441142 S    
C19   Cl3   1.802694 S    
C7    C10   1.544003 S    
H32   C55   1.105044 S    
C31   C33   1.564525 S    
C8    C9    1.546599 S    
C32   H20   1.116328 S    
O5    C3    1.289495 A    
C56   C57   1.564727 S    
C54   H30   1.106929 S    
C13   Cl15  1.800870 S    
O11   Zn3   2.019329 S    
N14   O51   1.300606 A    
C32   C36   1.542355 S    
N10   O44   1.294709 A    
C5    C12   1.541450 S    
C3    C33   1.466251 S    
Zn5   O23   2.048856 S    
C19   N2    1.492089 S    
N3    O29   1.300929 A    
N15   O54   1.299773 A    
C21   N5    1.477976 S    
C45   C46   1.545905 S    
C35   N11   1.483881 S    
C48   Cl10  1.799177 S    
N8    O39   1.301078 A    
O10   Zn4   2.058778 S    
Zn6   O22   2.038936 S    
C48   C49   1.583923 S    
C6    N1    1.459940 S    
N9    O42   1.301328 A    
O12   C38   1.285603 A    
H8    C23   1.110721 S    
C36   H21   1.112056 S    
C39   C57   1.468024 S    
H19   C31   1.107615 S    
O24   C44   1.289745 A    
C11   C12   1.527784 S    
C30   Cl5   1.803326 S    
N12   O48   1.301389 A    
C52   H27   1.112980 S    
N12   O47   1.301419 A    
O10   C37   1.291387 A    
C23   C25   1.548793 S    
O12   Zn4   2.030667 S    
C53   C54   1.571922 S    
C15   C17   1.560735 S    
O21   C43   1.292834 A    
C29   H17   1.112897 S    
C51   H29   1.113630 S    
O19   C42   1.285073 A    
C27   H15   1.113016 S    
O18   Zn6   2.046930 S    
O2    Zn2   2.058719 S    
C8    H1    1.110250 S    
C9    Cl6   1.779849 S    
C10   H2    1.107104 S    
C9    C12   1.533413 S    
N5    O33   1.300263 A    
N4    O32   1.299533 A    
C20   Cl2   1.820510 S    
C7    C38   1.439526 S    
O20   C42   1.289539 A    
C6    C7    1.528411 S    
C26   C40   1.470963 S    
C29   C33   1.574994 S    
C28   H13   1.113919 S    
C13   H3    1.105845 S    
C15   C19   1.569555 S    
O20   Zn6   2.048601 S    
O23   C44   1.282417 A    
O1    C1    1.281891 A    
C34   C36   1.591387 S    
N10   O43   1.301843 A    
C35   N8    1.500286 S    
C1    C17   1.475382 S    
C55   C59   1.554445 S    
C21   H7    1.109685 S    
O4    Zn2   2.021020 S    
N13   O50   1.302834 A    
C26   C27   1.555478 S    
Zn2   O8    2.028919 S    
C45   H22   1.113712 S    
H24   C47   1.113855 S    
C31   Cl7   1.808087 S    
N9    O41   1.299079 A    
C23   C27   1.524452 S    
C22   N6    1.489354 S    
C47   C49   1.567108 S    
C14   Cl16  1.798342 S    
Zn4   O14   2.028244 S    
C58   C59   1.579060 S    
C46   N12   1.472162 S    
N15   O53   1.300381 A    
C5    Cl4   1.783873 S    
N6    O36   1.301553 A    
Zn5   O21   2.046842 S    
C31   C35   1.568189 S    
C28   H12   1.110670 S    
O17   C41   1.288194 A    
C45   C49   1.559846 S    
C24   C25   1.556359 S    
N1    O25   1.299952 A    
C47   H28   1.112484 S    
O3    C2    1.286898 A    
C41   C50   1.478812 S    
C52   H26   1.112533 S    
C36   N10   1.468681 S    
C30   C34   1.577079 S    
O11   C38   1.284482 A    
N2    O27   1.301210 A    
O19   Zn5   2.037334 S    
H25   C51   1.107264 S    
Zn1   O5    2.058719 S    
O3    Zn1   2.028919 S    
O1    Zn1   2.028560 S    
Zn2   O6    2.028561 S    
C24   C28   1.535597 S    
O13   C39   1.282357 A    
C34   C44   1.486041 S    
O8    C4    1.289227 A    
N6    O35   1.302705 A    
O6    C3    1.288181 A    
C20   N4    1.484833 S    
C53   C57   1.607929 S    
C55   N16   1.478840 S    
C13   C14   1.534121 S    
C50   C51   1.543300 S    
O16   C40   1.301073 A    
C7    C8    1.543346 S    
C34   C35   1.619568 S    
C9    C10   1.546514 S    
C55   C57   1.588584 S    
O2    C1    1.298695 A    
C18   C42   1.486174 S    
C24   H10   1.112011 S    
N11   O46   1.298229 A    
O22   C43   1.283724 A    
C16   H5    1.108349 S    
O14   C39   1.296822 A    
O15   C40   1.278643 A    
C30   H18   1.099670 S    
O4    C2    1.283153 A    
C21   C25   1.568772 S    
O17   Zn5   2.038933 S    
C11   N15   1.457194 S    
C18   C20   1.619681 S    
H9    C27   1.098477 S    
C18   C19   1.619701 S    
C47   C51   1.531143 S    
C56   C60   1.532301 S    
N8    O40   1.302633 A    
Zn6   O24   2.037426 S    
C32   C33   1.564034 S    
C24   H11   1.110755 S    
N14   O52   1.302905 A    
C58   C60   1.572375 S    
C16   N3    1.472253 S    
C43   C58   1.494874 S    
C21   C22   1.577751 S    
C54   C58   1.559613 S    
C10   C11   1.538958 S    
N3    O30   1.300861 A    
C46   H23   1.114656 S    
Zn3   O15   2.030794 S    
C15   Cl1   1.803265 S    
C22   N7    1.486414 S    
C14   H4    1.101194 S    
N1    O26   1.300224 A    
O9    C37   1.295314 A    
C45   Cl8   1.796147 S    
N4    O31   1.302641 A    
C48   Cl9   1.798741 S    
C48   C52   1.551983 S    
C56   Cl12  1.797804 S    
C54   H31   1.100171 S    
Zn4   O16   2.019329 S    
C23   H14   1.107050 S    
N2    O28   1.303052 A    
C29   C30   1.555716 S    
