data_mof_unit_29370.cif
_audit_creation_date              2012-12-10T20:56:28-0500
_audit_creation_method            fapswitch 2.2
_symmetry_space_group_name_H-M    P1
_symmetry_Int_Tables_number       1
_space_group_crystal_system       triclinic
_cell_length_a                    13.223019
_cell_length_b                    15.082055
_cell_length_c                    15.868802
_cell_angle_alpha                 89.652042
_cell_angle_beta                  89.784724
_cell_angle_gamma                 69.832364
_cell_volume                      2970.62492464

loop_
_atom_site_label
_atom_site_type_symbol
_atom_type_description
_atom_site_fract_x
_atom_site_fract_y
_atom_site_fract_z
_atom_type_partial_charge
C1    C     C_R   0.499862 0.499809 0.660975 0.896686
C2    C     C_R   0.972294 0.471374 0.477465 0.021543
C3    C     C_R   0.875867 0.476552 0.519021 0.077535
C4    C     C_R   0.021488 0.537648 0.501438 0.087336
C5    C     C_R   0.966213 0.615419 0.553708 0.158573
C6    C     C_R   0.870966 0.618966 0.592974 -0.231587
C7    C     C_R   0.830849 0.546705 0.580562 -0.177651
C8    C     C_R   0.129021 0.522041 0.483842 -0.257873
C9    C     C_R   0.117945 0.670408 0.548872 -0.010405
C10   C     C_R   0.821524 0.415608 0.494687 -0.131923
C11   C     C_R   0.468707 0.430440 0.045236 -0.055217
C12   C     C_R   0.704636 0.448014 0.502360 0.864022
C13   C     C_R   0.498286 0.499872 0.087221 0.030054
C14   C     C_R   0.525017 0.569796 0.043114 -0.055516
C15   C     C_R   0.522614 0.570580 0.955226 -0.053251
C16   C     C_R   0.493832 0.501254 0.912917 0.029501
C17   C     C_R   0.466479 0.431156 0.956787 -0.057498
C18   C     C_1   0.498847 0.500700 0.176427 -0.028321
C19   C     C_1   0.496026 0.500270 0.823666 -0.029787
C20   C     C_1   0.498021 0.499821 0.749038 -0.171875
C21   C     C_1   0.499428 0.500806 0.251035 -0.171041
C22   C     C_R   0.548809 0.031706 0.565340 -0.167711
C23   C     C_R   0.500022 0.500208 0.339055 0.915293
C24   C     C_R   0.499186 0.095233 0.500009 0.086758
C25   C     C_R   0.449442 0.062633 0.434689 -0.177427
C26   C     C_R   0.449496 0.968872 0.434665 -0.158304
C27   C     C_R   0.499367 0.905262 0.499927 0.085212
C28   C     C_R   0.548965 0.937952 0.565268 -0.163477
C29   C     C_1   0.499574 0.192978 0.499980 0.033673
C30   C     C_1   0.499730 0.807248 0.499921 0.060029
C31   C     C_R   0.295362 0.552184 0.501195 0.878278
C32   C     C_R   0.011948 0.684068 0.572465 -0.241493
C33   C     C_R   0.178444 0.585550 0.508375 -0.114946
C34   C     C_R   0.872200 0.338030 0.443368 -0.259946
C35   C     C_R   0.968183 0.330303 0.402054 0.019429
C36   C     C_R   0.012449 0.402388 0.412388 -0.052838
H1    H     H_    0.588016 0.890863 0.616426 0.133985
H2    H     H_    0.587687 0.054574 0.616585 0.133319
H3    H     H_    0.410549 0.109744 0.383506 0.120473
H4    H     H_    0.410574 0.946006 0.383459 0.130750
H5    H     H_    0.830838 0.674636 0.637165 0.147426
H6    H     H_    0.967487 0.745186 0.609872 0.140851
H7    H     H_    0.178957 0.454842 0.458935 0.176634
H8    H     H_    0.831520 0.288738 0.428653 0.165876
H9    H     H_    0.761806 0.547748 0.617997 0.157248
N1    N     N_1   0.500030 0.729450 0.499980 -0.079387
N2    N     N_1   0.499970 0.270550 0.500020 -0.085720
O1    O     O_R   0.500000 0.426350 0.621980 -0.604107
O2    O     O_R   0.499950 0.573700 0.621980 -0.609576
O3    O     O_R   0.653660 0.389750 0.499980 -0.614843
O4    O     O_R   0.653610 0.537090 0.499980 -0.604115
O5    O     O_R   0.500050 0.426300 0.378020 -0.606578
O6    O     O_R   0.500000 0.573650 0.378020 -0.601934
O7    O     O_R   0.346390 0.462910 0.500020 -0.612160
O8    O     O_R   0.346340 0.610250 0.500020 -0.603632
Zn1   Zn    Zn3+2 0.500030 0.401620 0.500000 0.974437
Zn2   Zn    Zn3+2 0.499970 0.598380 0.500000 0.991769
C37   C     C_1   0.164872 0.739301 0.574812 0.189817
N3    N     N_1   0.202403 0.794552 0.595639 -0.196683
C38   C     C_R   0.437943 0.358866 0.093926 0.131645
C39   C     C_R   0.331751 0.358870 0.091204 -0.127570
C40   C     C_R   0.302694 0.292413 0.137926 -0.102203
C41   C     C_R   0.379177 0.225923 0.187852 -0.104080
C42   C     C_R   0.484982 0.225409 0.190828 -0.130465
C43   C     C_R   0.514514 0.291416 0.143893 -0.152988
H10   H     H_    0.271586 0.410577 0.053303 0.130018
H11   H     H_    0.220765 0.292708 0.135763 0.145465
H12   H     H_    0.356524 0.174793 0.224202 0.119805
H13   H     H_    0.544104 0.173864 0.229535 0.132454
H14   H     H_    0.596808 0.290231 0.146562 0.124815
C44   C     C_1   0.554747 0.640741 0.088150 0.185509
N4    N     N_1   0.578412 0.697220 0.124068 -0.199300
C45   C     C_1   0.550393 0.642054 0.908329 0.184198
N5    N     N_1   0.572511 0.698937 0.870921 -0.208332
C46   C     C_1   0.082560 0.414026 0.345840 0.137713
N6    N     N_1   0.138187 0.423207 0.292529 -0.202783
C47   C     C_R   0.015906 0.250952 0.342530 0.132970
C48   C     C_R   0.952257 0.230258 0.280103 -0.160741
C49   C     C_R   0.997874 0.155613 0.224302 -0.133744
C50   C     C_R   0.107013 0.100866 0.230494 -0.103994
C51   C     C_R   0.170780 0.120631 0.292507 -0.149947
C52   C     C_R   0.125686 0.195411 0.348253 -0.136452
H15   H     H_    0.867743 0.272474 0.273990 0.125420
H16   H     H_    0.948585 0.140272 0.176174 0.129721
H17   H     H_    0.142148 0.043063 0.187294 0.130127
H18   H     H_    0.255152 0.077886 0.297421 0.119924
H19   H     H_    0.176102 0.209679 0.396170 0.128098
C53   C     C_R   0.438849 0.357390 0.910060 0.135436
C54   C     C_R   0.344978 0.382115 0.860873 -0.156011
C55   C     C_R   0.320032 0.312894 0.815967 -0.126177
C56   C     C_R   0.388344 0.218674 0.820044 -0.106580
C57   C     C_R   0.481667 0.193515 0.869110 -0.135800
C58   C     C_R   0.507042 0.262557 0.913959 -0.130575
H20   H     H_    0.291417 0.454893 0.857335 0.130245
H21   H     H_    0.247782 0.332304 0.777965 0.134846
H22   H     H_    0.368997 0.165178 0.785167 0.131197
H23   H     H_    0.534520 0.120541 0.872186 0.132881
H24   H     H_    0.579930 0.242353 0.951331 0.125570

loop_
_geom_bond_atom_site_label_1
_geom_bond_atom_site_label_2
_ccdc_geom_bond_type
C17   C53   S    
C14   C44   S    
C19   C20   T    
C8    H7    S    
C4    C8    A    
C51   C52   A    
C23   O5    A    
C55   H21   S    
C47   C48   A    
C26   C27   A    
C50   H17   S    
C40   H11   S    
C29   N2    T    
C7    H9    S    
C9    C37   S    
C3    C7    A    
C5    C6    A    
C52   H19   S    
C18   C21   T    
O2    Zn2   S    
C34   C35   A    
C45   N5    T    
C54   H20   S    
C24   C29   S    
C47   C52   A    
C9    C32   A    
C56   H22   S    
C41   H12   S    
C48   H15   S    
C35   C36   A    
C16   C17   A    
C6    H5    S    
C31   C33   S    
O4    Zn2   S    
C51   H18   S    
C5    C32   A    
C22   C28   A    
C13   C14   A    
C27   C30   S    
C9    C33   A    
C39   H10   S    
C57   H23   S    
C23   O6    A    
O7    Zn1   S    
C15   C16   A    
C34   H8    S    
C24   C25   A    
C56   C57   A    
O6    Zn2   S    
C48   C49   A    
C4    C5    A    
C25   C26   A    
C35   C47   S    
O3    Zn1   S    
C41   C42   A    
C38   C39   A    
C2    C4    A    
C46   N6    T    
C40   C41   A    
C36   C46   S    
C10   C34   A    
C42   H13   S    
C10   C12   S    
C13   C18   S    
C15   C45   S    
C38   C43   A    
O8    Zn2   S    
N1    Zn2   S    
C22   C24   A    
C11   C38   S    
C12   O4    A    
C2    C36   A    
O1    Zn1   S    
C53   C58   A    
C11   C17   A    
C1    C20   S    
C30   N1    T    
C50   C51   A    
C12   O3    A    
C1    O1    A    
C6    C7    A    
C42   C43   A    
C21   C23   S    
C2    C3    A    
C37   N3    T    
C44   N4    T    
C3    C10   A    
C25   H3    S    
C11   C13   A    
C26   H4    S    
C55   C56   A    
C49   H16   S    
C28   H1    S    
C16   C19   S    
C57   C58   A    
C8    C33   A    
C31   O7    A    
C39   C40   A    
C49   C50   A    
O5    Zn1   S    
C53   C54   A    
C27   C28   A    
C32   H6    S    
C14   C15   A    
C31   O8    A    
C54   C55   A    
C1    O2    A    
C58   H24   S    
C43   H14   S    
N2    Zn1   S    
C22   H2    S    
