data_mof_unit_64054.cif
_audit_creation_date              2013-03-05T17:00:47-0500
_audit_creation_method            fapswitch 2.2
_symmetry_space_group_name_H-M    P1
_symmetry_Int_Tables_number       1
_space_group_crystal_system       triclinic
_cell_length_a                    14.891026
_cell_length_b                    16.190173
_cell_length_c                    16.682891
_cell_angle_alpha                 87.505832
_cell_angle_beta                  90.366098
_cell_angle_gamma                 92.070412
_cell_volume                      4015.56943396

loop_
_atom_site_label
_atom_site_type_symbol
_atom_site_description
_atom_site_fract_x
_atom_site_fract_y
_atom_site_fract_z
_atom_type_partial_charge
O1    O     O_R   0.496050 0.422540 0.612660 -0.560788
O2    O     O_R   0.503950 0.577460 0.387340 -0.569912
O3    O     O_R   0.503140 0.561840 0.618900 -0.581036
O4    O     O_R   0.496860 0.438160 0.381100 -0.580468
C1    C     C_R   0.493023 0.488967 0.653578 1.008077
C2    C     C_R   0.505983 0.511015 0.346255 1.017472
O5    O     O_R   0.628610 0.430340 0.496900 -0.574929
O6    O     O_R   0.371390 0.569660 0.503100 -0.569015
O7    O     O_R   0.635690 0.569650 0.503140 -0.584648
O8    O     O_R   0.364310 0.430350 0.496860 -0.589033
C3    C     C_R   0.673233 0.499589 0.499566 0.983857
C4    C     C_R   0.326760 0.499957 0.500771 0.974852
Zn1   Zn    Zn3+2 0.495270 0.406980 0.495830 1.136465
Zn2   Zn    Zn3+2 0.504730 0.593020 0.504170 1.136925
C5    C     C_R   0.186755 0.500509 0.424642 0.252738
C6    C     C_R   0.812677 0.471356 0.570607 0.267003
C7    C     C_R   0.230394 0.497141 0.499154 -0.213664
C8    C     C_R   0.769328 0.496617 0.499703 -0.226960
C9    C     C_R   0.184853 0.475218 0.570472 0.267423
C10   C     C_R   0.814958 0.509027 0.427015 0.260997
C11   C     C_R   0.092431 0.456205 0.568065 -0.080616
C12   C     C_R   0.905551 0.489700 0.423043 -0.077517
C13   C     C_R   0.045885 0.469580 0.494749 -0.034559
C14   C     C_R   0.951824 0.470057 0.495210 -0.032124
C15   C     C_R   0.093123 0.484931 0.421506 -0.067920
C16   C     C_R   0.904601 0.454457 0.568337 -0.063705
C17   C     C_R   0.045058 0.421446 0.635429 0.244068
C18   C     C_R   0.950714 0.485756 0.349142 0.245027
C19   C     C_R   0.951012 0.420876 0.635681 0.238457
C20   C     C_R   0.044509 0.482830 0.348317 0.247120
C21   C     C_R   0.468807 0.483052 0.739820 -0.324954
C22   C     C_R   0.522868 0.516692 0.258585 -0.312161
C23   C     C_R   0.444126 0.555520 0.778753 0.215040
C24   C     C_R   0.537162 0.443215 0.217184 0.221094
C25   C     C_R   0.428227 0.551677 0.861100 0.209386
C26   C     C_R   0.541683 0.446724 0.133782 0.203454
C27   C     C_R   0.437664 0.477068 0.905259 0.086778
C28   C     C_R   0.528490 0.521586 0.091085 0.084754
C29   C     C_R   0.445722 0.403416 0.866075 0.210977
C30   C     C_R   0.530798 0.595779 0.130779 0.210353
C31   C     C_R   0.463766 0.405586 0.783715 0.226691
C32   C     C_R   0.528812 0.594280 0.214986 0.217290
N1    N     N_2   0.449303 0.476607 0.988989 -0.056306
N2    N     N_2   0.514121 0.523031 0.007692 -0.065920
N3    N     N_R   0.511030 0.716920 0.509720 -0.203210
N4    N     N_R   0.488970 0.283080 0.490280 -0.201842
C33   C     C_R   0.448310 0.761639 0.467711 0.302224
C34   C     C_R   0.553248 0.238485 0.530486 0.303138
C35   C     C_R   0.455107 0.848896 0.460768 0.136851
C36   C     C_R   0.546445 0.151286 0.538050 0.134957
C37   C     C_R   0.523848 0.891964 0.502138 0.075977
C38   C     C_R   0.476360 0.107971 0.498625 0.076504
C39   C     C_R   0.585658 0.845173 0.547296 0.128047
C40   C     C_R   0.413203 0.154550 0.454840 0.128125
C41   C     C_R   0.577227 0.757740 0.551667 0.290894
C42   C     C_R   0.421454 0.242018 0.450076 0.287294
N5    N     N_2   0.535612 0.980634 0.497238 -0.032949
N6    N     N_2   0.464824 0.019259 0.503713 -0.031770
Br1   Br    Br    0.257795 0.536757 0.331532 -0.263234
Br2   Br    Br    0.747080 0.478562 0.670230 -0.268721
Br3   Br    Br    0.627989 0.095640 0.610472 -0.116825
Br4   Br    Br    0.375371 0.905284 0.387211 -0.123840
N7    N     N_R   0.658246 0.886505 0.587786 0.266290
O9    O     O_R   0.663466 0.882026 0.665715 -0.219743
O10   O     O_R   0.718784 0.929669 0.546676 -0.248804
N8    N     N_R   0.339536 0.112928 0.416050 0.265984
O11   O     O_R   0.331571 0.117943 0.338304 -0.215951
O12   O     O_R   0.281580 0.067907 0.458374 -0.252349
Br5   Br    Br    0.659727 0.697506 0.618649 -0.216894
Br6   Br    Br    0.337011 0.301811 0.384616 -0.217556
N9    N     N_R   0.231562 0.481206 0.645480 0.214109
O13   O     O_R   0.294823 0.430565 0.664200 -0.365160
O14   O     O_R   0.205949 0.532795 0.697732 -0.272172
N10   N     N_R   0.772400 0.552324 0.361279 0.230145
O15   O     O_R   0.805849 0.623394 0.334141 -0.258348
O16   O     O_R   0.703341 0.518907 0.325688 -0.370397
Br7   Br    Br    0.104056 0.357161 0.719779 -0.145964
Br8   Br    Br    0.886464 0.465242 0.250122 -0.145863
N11   N     N_R   0.903688 0.377013 0.699952 0.254575
O17   O     O_R   0.914945 0.398758 0.773640 -0.227778
O18   O     O_R   0.852321 0.312663 0.685163 -0.220977
N12   N     N_R   0.087969 0.467766 0.274212 0.252031
O19   O     O_R   0.127458 0.398286 0.265782 -0.252431
O20   O     O_R   0.082340 0.520295 0.213227 -0.228653
N13   N     N_R   0.551603 0.365357 0.258951 0.260191
O21   O     O_R   0.624366 0.355135 0.301277 -0.280020
O22   O     O_R   0.497746 0.301969 0.246979 -0.264726
N14   N     N_R   0.433453 0.633172 0.735541 0.258797
O23   O     O_R   0.366266 0.642651 0.686177 -0.281848
O24   O     O_R   0.485790 0.696619 0.751090 -0.268171
Br9   Br    Br    0.578202 0.351638 0.078445 -0.162554
Br10  Br    Br    0.386141 0.646808 0.913102 -0.156869
Br11  Br    Br    0.428275 0.299455 0.925331 -0.131675
Br12  Br    Br    0.543458 0.698493 0.068488 -0.138422
N15   N     N_R   0.477388 0.328955 0.746342 0.264960
O25   O     O_R   0.414730 0.298090 0.700617 -0.279840
O26   O     O_R   0.540393 0.281294 0.773199 -0.228430
N16   N     N_R   0.538405 0.670872 0.255077 0.263134
O27   O     O_R   0.608553 0.684641 0.300109 -0.274834
O28   O     O_R   0.487522 0.732158 0.235049 -0.235481
N17   N     N_R   0.631329 0.279647 0.561773 0.258478
O29   O     O_R   0.629881 0.308785 0.632961 -0.259370
O30   O     O_R   0.708248 0.272613 0.526605 -0.294515
N18   N     N_R   0.372267 0.720360 0.433140 0.258177
O31   O     O_R   0.375137 0.699484 0.359016 -0.267816
O32   O     O_R   0.294573 0.723283 0.467945 -0.284942

loop_
_geom_bond_atom_site_label_1
_geom_bond_atom_site_label_2
_geom_bond_distance
_ccdc_geom_bond_type
C2    C22   1.483972 S    
N7    O10   1.300787 A    
C3    C8    1.433479 S    
C20   N12   1.433373 S    
N17   O29   1.297423 A    
C17   C19   1.400175 A    
N14   O24   1.301003 A    
N8    O12   1.300845 A    
N15   O25   1.300991 A    
O7    Zn2   2.000190 S    
N18   O32   1.301084 A    
C29   C31   1.400416 A    
N13   O21   1.301160 A    
O5    C3    1.284769 A    
N10   O16   1.297191 A    
O1    C1    1.300935 A    
C25   C27   1.398229 A    
C23   N14   1.435120 S    
C14   C16   1.420521 A    
C32   N16   1.436526 S    
Zn1   N4    2.010899 S    
C5    C15   1.408946 A    
C6    Br2   1.943158 S    
N3    C33   1.372579 A    
O4    Zn1   1.958194 S    
C29   Br11  1.924730 S    
N12   O20   1.301603 A    
C7    C9    1.399154 A    
C9    N9    1.433060 S    
C35   C37   1.411256 A    
C4    C7    1.434180 S    
C36   C38   1.411409 A    
C13   C14   1.401027 A    
C21   C23   1.426214 A    
C37   N5    1.438772 S    
C18   Br8   1.938856 S    
C8    C10   1.397152 A    
C25   Br10  1.926273 S    
N13   O22   1.300995 A    
N8    O11   1.300960 A    
C11   C17   1.415524 A    
N17   O30   1.301137 A    
C12   C18   1.413133 A    
O2    C2    1.301829 A    
N18   O31   1.297444 A    
C38   C40   1.407572 A    
Zn2   N3    2.010901 S    
C40   C42   1.415831 A    
C39   C41   1.415336 A    
C6    C16   1.406650 A    
C38   N6    1.439195 S    
N4    C34   1.373657 A    
N10   O15   1.301207 A    
C33   C35   1.412434 A    
N11   O18   1.301453 A    
O3    C1    1.295475 A    
N11   O17   1.301554 A    
C37   C39   1.407290 A    
C24   N13   1.435949 S    
C22   C24   1.424513 A    
C27   N1    1.406207 S    
N1    N2    1.248220 D    
C28   N2    1.405565 S    
C19   N11   1.434513 S    
O5    Zn1   2.007914 S    
O6    C4    1.290740 A    
C10   N10   1.432476 S    
C34   C36   1.411955 A    
O7    C3    1.286420 A    
C41   Br5   1.919134 S    
O3    Zn2   1.958194 S    
O8    C4    1.280364 A    
C33   N18   1.425497 S    
C26   Br9   1.925748 S    
O4    C2    1.295163 A    
C10   C12   1.398432 A    
N12   O19   1.301371 A    
C42   Br6   1.920762 S    
C11   C13   1.414314 A    
C12   C14   1.413278 A    
O1    Zn1   1.976025 S    
N9    O14   1.301390 A    
C15   C20   1.416550 A    
C5    C7    1.398864 A    
O6    Zn2   2.007915 S    
C35   Br4   1.926488 S    
C21   C31   1.424371 A    
C9    C11   1.400074 A    
C5    Br1   1.942457 S    
C30   Br12  1.926226 S    
C17   Br7   1.938578 S    
O8    Zn1   2.000192 S    
N15   O26   1.301243 A    
C40   N8    1.432370 S    
N16   O28   1.300958 A    
C26   C28   1.398314 A    
C18   C20   1.399391 A    
C27   C29   1.393850 A    
C28   C30   1.395893 A    
C39   N7    1.431845 S    
N5    N6    1.252537 D    
C31   N15   1.433972 S    
C34   N17   1.426522 S    
C30   C32   1.404453 A    
C23   C25   1.393865 A    
C24   C26   1.392022 A    
C13   C15   1.421823 A    
O2    Zn2   1.976023 S    
N7    O9    1.300930 A    
N9    O13   1.298801 A    
N14   O23   1.300900 A    
N3    C41   1.372061 A    
C16   C19   1.414042 A    
C6    C8    1.396566 A    
N16   O27   1.301129 A    
N4    C42   1.372771 A    
C36   Br3   1.926514 S    
C22   C32   1.424102 A    
C1    C21   1.483698 S    
