data_mof_unit_44533.cif
_audit_creation_date              2012-10-26T19:27:35-0400
_audit_creation_method            fapswitch 2.2
_symmetry_space_group_name_H-M    P1
_symmetry_Int_Tables_number       1
_space_group_crystal_system       triclinic
_cell_length_a                    20.747276
_cell_length_b                    21.467221
_cell_length_c                    14.84783
_cell_angle_alpha                 89.94572
_cell_angle_beta                  128.849966
_cell_angle_gamma                 90.090386
_cell_volume                      5150.15626884

loop_
_atom_site_label
_atom_site_type_symbol
_atom_type_description
_atom_site_fract_x
_atom_site_fract_y
_atom_site_fract_z
_atom_type_partial_charge
C1    C     C_R   0.602902 0.913943 0.631453 0.554460
C2    C     C_R   0.669466 0.226542 0.073274 -0.131315
C3    C     C_R   0.717254 0.770611 0.958681 0.011263
C4    C     C_R   0.217270 0.729368 0.958666 0.012425
C5    C     C_R   0.782730 0.270631 0.041334 0.012425
C6    C     C_R   0.782745 0.729388 0.041318 0.011263
C7    C     C_R   0.217250 0.270606 0.958675 0.011265
C8    C     C_R   0.343724 0.786941 0.028791 -0.024826
C9    C     C_R   0.656274 0.213060 0.971207 -0.024826
C10   C     C_R   0.656211 0.786675 0.971248 -0.017083
C11   C     C_R   0.343811 0.213347 0.028784 -0.017084
C12   C     C_R   0.843725 0.286939 0.028792 -0.024826
C13   C     C_R   0.669195 0.772745 0.073027 -0.121380
C14   C     C_R   0.156276 0.713059 0.971209 -0.024826
C15   C     C_R   0.156190 0.286653 0.971217 -0.017083
C16   C     C_R   0.843789 0.713325 0.028751 -0.017083
C17   C     C_1   0.425843 0.809247 0.122815 0.165144
C18   C     C_1   0.574155 0.190755 0.877182 0.165140
C19   C     C_1   0.574350 0.809617 0.877848 0.178722
C20   C     C_1   0.425675 0.190418 0.122201 0.178720
C21   C     C_1   0.925844 0.309245 0.122817 0.165140
C22   C     C_1   0.074157 0.690754 0.877184 0.165144
C23   C     C_1   0.074325 0.309582 0.877800 0.178720
C24   C     C_R   0.330837 0.227282 0.927015 -0.121379
C25   C     C_1   0.925650 0.690383 0.122151 0.178722
C26   C     C_1   0.424111 0.999730 0.168393 0.248809
C27   C     C_1   0.575889 0.000273 0.831607 0.248821
C28   C     C_1   0.924111 0.499727 0.168393 0.248820
C29   C     C_1   0.075889 0.500270 0.831607 0.248809
C30   C     C_1   0.236948 0.960670 0.598738 0.167765
C31   C     C_1   0.763052 0.039329 0.401262 0.167767
C32   C     C_1   0.736947 0.460674 0.598737 0.167767
C33   C     C_1   0.263052 0.539329 0.401262 0.167765
C34   C     C_R   0.830534 0.273458 0.926726 -0.131314
C35   C     C_R   0.169468 0.726541 0.073276 -0.131314
C36   C     C_R   0.169163 0.272718 0.072986 -0.121379
C37   C     C_R   0.830804 0.727255 0.926972 -0.121380
C38   C     C_R   0.323169 0.977018 0.663209 -0.038036
C39   C     C_R   0.676832 0.022981 0.336791 -0.038036
C40   C     C_R   0.823168 0.477020 0.663209 -0.038037
C41   C     C_R   0.397097 0.086057 0.368545 0.554463
C42   C     C_R   0.176831 0.522982 0.336791 -0.038036
C43   C     C_R   0.351752 0.989787 0.601522 0.034215
C44   C     C_R   0.648248 0.010212 0.398478 0.034216
C45   C     C_R   0.851751 0.489788 0.601521 0.034216
C46   C     C_R   0.148248 0.510213 0.398478 0.034215
C47   C     C_R   0.488914 0.003561 0.776627 0.139507
C48   C     C_R   0.511085 0.996439 0.223373 0.139495
C49   C     C_R   0.988914 0.503561 0.776627 0.139495
C50   C     C_R   0.011086 0.496439 0.223373 0.139507
C51   C     C_R   0.461619 0.999315 0.844393 -0.007414
C52   C     C_R   0.397041 0.913918 0.368526 0.553605
C53   C     C_R   0.538381 0.000686 0.155607 -0.007424
C54   C     C_R   0.961619 0.499315 0.844393 -0.007424
C55   C     C_R   0.038381 0.500685 0.155607 -0.007414
C56   C     C_R   0.378954 0.979098 0.785525 0.023309
C57   C     C_R   0.621046 0.020902 0.214475 0.023302
C58   C     C_R   0.878954 0.479099 0.785525 0.023302
C59   C     C_R   0.121046 0.520902 0.214475 0.023309
C60   C     C_R   0.513514 0.009765 0.968112 0.025286
C61   C     C_R   0.486485 0.990236 0.031888 0.025285
C62   C     C_R   0.013514 0.509764 0.968112 0.025285
C63   C     C_R   0.602959 0.086082 0.631474 0.553607
C64   C     C_R   0.986485 0.490236 0.031888 0.025286
C65   C     C_R   0.410159 0.958660 0.970310 -0.125323
C66   C     C_R   0.589840 0.041342 0.029690 -0.125327
C67   C     C_R   0.910159 0.458659 0.970310 -0.125327
C68   C     C_R   0.089841 0.541341 0.029690 -0.125322
C69   C     C_R   0.355482 0.957237 0.850221 -0.116466
C70   C     C_R   0.644518 0.042764 0.149779 -0.116469
C71   C     C_R   0.855482 0.457237 0.850221 -0.116469
C72   C     C_R   0.144518 0.542764 0.149779 -0.116465
C73   C     C_R   0.660211 0.136833 0.703642 0.001352
C74   C     C_R   0.102902 0.413943 0.631455 0.554463
C75   C     C_R   0.339789 0.863167 0.296359 0.001351
C76   C     C_R   0.339856 0.136698 0.296379 0.001025
C77   C     C_R   0.660139 0.863298 0.703614 0.001021
C78   C     C_R   0.160211 0.636833 0.703641 0.001351
C79   C     C_R   0.839789 0.363167 0.296359 0.001351
C80   C     C_R   0.839861 0.636701 0.296386 0.001022
C81   C     C_R   0.160144 0.363302 0.703621 0.001025
C82   C     C_R   0.759974 0.215469 0.748767 -0.118138
C83   C     C_R   0.240028 0.784530 0.251235 -0.118138
C84   C     C_R   0.239665 0.214733 0.250820 -0.120422
C85   C     C_R   0.897098 0.586057 0.368547 0.554460
C86   C     C_R   0.760300 0.785243 0.749141 -0.120421
C87   C     C_R   0.259972 0.715470 0.748765 -0.118139
C88   C     C_R   0.740027 0.284530 0.251233 -0.118138
C89   C     C_R   0.739699 0.714756 0.250858 -0.120421
C90   C     C_R   0.260335 0.285268 0.749181 -0.120422
C91   C     C_R   0.704998 0.168365 0.676203 -0.123962
C92   C     C_R   0.295003 0.831634 0.323799 -0.123965
C93   C     C_R   0.294828 0.167867 0.323577 -0.124884
C94   C     C_R   0.705147 0.832115 0.676395 -0.124884
C95   C     C_R   0.204997 0.668366 0.676201 -0.123964
C96   C     C_R   0.897041 0.413918 0.368526 0.553608
C97   C     C_R   0.795002 0.331634 0.323798 -0.123961
C98   C     C_R   0.794853 0.667884 0.323604 -0.124885
C99   C     C_R   0.205173 0.332132 0.676423 -0.124884
C100  C     C_R   0.668678 0.154541 0.800985 -0.103518
C101  C     C_R   0.331321 0.845459 0.199014 -0.103520
C102  C     C_R   0.331474 0.154568 0.199165 -0.103605
C103  C     C_R   0.668532 0.845436 0.800840 -0.103611
C104  C     C_R   0.168679 0.654540 0.800986 -0.103519
C105  C     C_R   0.831322 0.345459 0.199015 -0.103518
C106  C     C_R   0.831467 0.654564 0.199159 -0.103610
C107  C     C_R   0.102959 0.586082 0.631474 0.553604
C108  C     C_R   0.168526 0.345432 0.800835 -0.103605
C109  C     C_R   0.715454 0.206681 0.866812 0.028229
C110  C     C_R   0.284546 0.793319 0.133187 0.028229
C111  C     C_R   0.284510 0.206517 0.133113 0.026539
C112  C     C_R   0.715486 0.793481 0.866882 0.026538
C113  C     C_R   0.215454 0.706681 0.866812 0.028229
C114  C     C_R   0.784546 0.293319 0.133187 0.028229
C115  C     C_R   0.784513 0.706519 0.133117 0.026538
C116  C     C_R   0.215490 0.293483 0.866887 0.026539
C117  C     C_R   0.767131 0.233543 0.845608 0.037254
C118  C     C_R   0.330532 0.773459 0.926724 -0.131313
C119  C     C_R   0.232870 0.766456 0.154394 0.037255
C120  C     C_R   0.232609 0.232973 0.154092 0.036680
C121  C     C_R   0.767366 0.767009 0.845880 0.036680
C122  C     C_R   0.267130 0.733544 0.845606 0.037255
C123  C     C_R   0.732869 0.266457 0.154392 0.037255
C124  C     C_R   0.732633 0.732990 0.154119 0.036680
C125  C     C_R   0.267391 0.267027 0.845908 0.036680
C126  C     C_R   0.717270 0.229368 0.958666 0.012425
C127  C     C_R   0.282730 0.770632 0.041334 0.012425
C128  C     C_R   0.282750 0.229394 0.041325 0.011265
Cu1   Cu    Cu3+1 0.526640 0.000000 0.436960 0.988075
Cu2   Cu    Cu3+1 0.473360 0.000000 0.563040 0.988079
Cu3   Cu    Cu3+1 0.026640 0.500000 0.436960 0.988078
Cu4   Cu    Cu3+1 0.973360 0.500000 0.563040 0.988075
H1    H     H_    0.300387 0.844647 0.398734 0.141985
H2    H     H_    0.704352 0.064343 0.191608 0.139596
H3    H     H_    0.795647 0.435658 0.808392 0.139595
H4    H     H_    0.204352 0.564344 0.191608 0.139594
H5    H     H_    0.374901 0.789307 0.915595 0.123635
H6    H     H_    0.625096 0.210695 0.084402 0.123631
H7    H     H_    0.624737 0.788267 0.084103 0.125114
H8    H     H_    0.375310 0.211773 0.915958 0.125109
H9    H     H_    0.874904 0.289305 0.915598 0.123631
H10   H     H_    0.125098 0.710693 0.084405 0.123635
H11   H     H_    0.124691 0.288227 0.084043 0.125110
H12   H     H_    0.699615 0.155351 0.601268 0.141990
H13   H     H_    0.875263 0.711733 0.915896 0.125114
H14   H     H_    0.391461 0.933339 0.013145 0.128367
H15   H     H_    0.608538 0.066664 0.986855 0.128366
H16   H     H_    0.891461 0.433337 0.013145 0.128367
H17   H     H_    0.108539 0.566663 0.986854 0.128367
H18   H     H_    0.358069 0.875120 0.171771 0.153056
H19   H     H_    0.641929 0.124881 0.828227 0.153057
H20   H     H_    0.641662 0.874915 0.827860 0.162899
H21   H     H_    0.358363 0.125098 0.172161 0.162895
H22   H     H_    0.858071 0.375119 0.171773 0.153057
H23   H     H_    0.699838 0.845253 0.601541 0.143357
H24   H     H_    0.141931 0.624880 0.828229 0.153056
H25   H     H_    0.141637 0.374902 0.827839 0.162896
H26   H     H_    0.858339 0.625084 0.172140 0.162899
H27   H     H_    0.298098 0.736865 0.730632 0.127908
H28   H     H_    0.701899 0.263137 0.269365 0.127913
H29   H     H_    0.701384 0.735853 0.268794 0.126821
H30   H     H_    0.298666 0.264182 0.731263 0.126824
H31   H     H_    0.798101 0.236863 0.730635 0.127913
H32   H     H_    0.201901 0.763135 0.269368 0.127908
H33   H     H_    0.201334 0.235819 0.268738 0.126824
H34   H     H_    0.300126 0.154724 0.398420 0.143355
H35   H     H_    0.798615 0.764146 0.731205 0.126821
H36   H     H_    0.690134 0.012823 0.492011 0.131658
H37   H     H_    0.309866 0.987175 0.507988 0.131656
H38   H     H_    0.190134 0.512824 0.492011 0.131656
H39   H     H_    0.809866 0.487177 0.507988 0.131658
H40   H     H_    0.800385 0.344648 0.398732 0.141990
H41   H     H_    0.199613 0.655353 0.601266 0.141985
H42   H     H_    0.199875 0.345276 0.601580 0.143355
H43   H     H_    0.800161 0.654746 0.398458 0.143357
H44   H     H_    0.295648 0.935658 0.808392 0.139595
N1    N     N_R   0.433280 0.000000 0.657760 -0.250210
N2    N     N_1   0.008301 0.673071 0.802306 -0.306094
N3    N     N_1   0.008681 0.327785 0.803481 -0.300540
N4    N     N_1   0.991292 0.672171 0.196457 -0.300542
N5    N     N_1   0.354107 0.002487 0.123340 -0.333364
N6    N     N_1   0.645893 0.997517 0.876660 -0.333373
N7    N     N_1   0.854107 0.502483 0.123340 -0.333373
N8    N     N_1   0.145893 0.497513 0.876661 -0.333363
N9    N     N_1   0.167926 0.947563 0.547079 -0.274554
N10   N     N_1   0.832075 0.052434 0.452921 -0.274551
N11   N     N_1   0.667924 0.447570 0.547078 -0.274550
N12   N     N_R   0.566720 0.000000 0.342240 -0.250211
N13   N     N_1   0.332075 0.552435 0.452921 -0.274554
N14   N     N_R   0.933280 0.500000 0.657760 -0.250211
N15   N     N_R   0.066720 0.500000 0.342240 -0.250210
N16   N     N_1   0.491699 0.826930 0.197693 -0.306094
N17   N     N_1   0.508299 0.173073 0.802303 -0.306092
N18   N     N_1   0.508708 0.827831 0.803543 -0.300542
N19   N     N_1   0.491319 0.172216 0.196520 -0.300540
N20   N     N_1   0.991700 0.326928 0.197696 -0.306092
O1    O     O_R   0.600040 0.935040 0.546740 -0.506730
O2    O     O_R   0.444990 0.064930 0.346780 -0.487610
O3    O     O_R   0.444990 0.935070 0.346780 -0.490140
O4    O     O_R   0.555010 0.064930 0.653220 -0.490140
O5    O     O_R   0.055010 0.435070 0.653220 -0.487610
O6    O     O_R   0.944990 0.564930 0.346780 -0.487605
O7    O     O_R   0.944990 0.435070 0.346780 -0.490140
O8    O     O_R   0.055010 0.564930 0.653220 -0.490140
O9    O     O_R   0.399960 0.064960 0.453260 -0.506729
O10   O     O_R   0.399960 0.935040 0.453260 -0.512429
O11   O     O_R   0.600040 0.064960 0.546740 -0.512427
O12   O     O_R   0.100040 0.435040 0.546740 -0.506729
O13   O     O_R   0.899960 0.564960 0.453260 -0.506730
O14   O     O_R   0.899960 0.435040 0.453260 -0.512427
O15   O     O_R   0.100040 0.564960 0.546740 -0.512429
O16   O     O_R   0.555010 0.935070 0.653220 -0.487604

loop_
_geom_bond_atom_site_label_1
_geom_bond_atom_site_label_2
_ccdc_geom_bond_type
C73   C100  A    
C83   H32   S    
C34   H9    S    
C29   N8    T    
C55   C59   A    
C5    C114  A    
C1    C77   S    
C77   C94   A    
C35   C119  A    
C92   H1    S    
C46   N15   A    
C22   N2    T    
C3    C6    A    
C112  C121  A    
C60   C61   A    
C43   H37   S    
C25   N4    T    
C8    C118  A    
C74   O12   A    
C2    C123  A    
C24   H8    S    
C83   C92   A    
C79   C105  A    
Cu4   O5    S    
C97   H40   S    
C90   H30   S    
C52   O10   A    
C33   C42   S    
C13   H7    S    
C36   H11   S    
C48   N12   A    
C65   H14   S    
C71   H3    S    
Cu1   O11   S    
C65   C69   A    
C58   C71   A    
C72   H4    S    
C107  O15   A    
C82   H31   S    
C49   C54   A    
C39   C57   A    
C80   C106  A    
C11   C24   A    
C63   O4    A    
C30   C38   S    
C33   N13   T    
C51   C56   A    
C44   H36   S    
C83   C119  A    
Cu3   O6    S    
C62   C64   A    
C68   H17   S    
C86   C94   A    
C28   C50   S    
C113  C122  A    
C87   H27   S    
C94   H23   S    
C87   C95   A    
C5    C126  A    
C41   C76   S    
C84   H33   S    
C69   H44   S    
C57   C70   A    
C118  H5    S    
Cu3   O7    S    
C78   C95   A    
C20   N19   T    
C23   N3    T    
Cu1   O2    S    
C32   N11   T    
C26   C48   S    
C59   C72   A    
C52   C75   S    
C34   C117  A    
C15   C23   S    
C105  H22   S    
C81   C108  A    
C60   C66   A    
C100  C109  A    
C17   N16   T    
C63   O11   A    
C1    O16   A    
C4    C14   A    
Cu2   O9    S    
C102  C111  A    
C40   C45   A    
C53   C61   A    
C95   H41   S    
C88   C123  A    
Cu2   O4    S    
Cu3   O12   S    
C45   H39   S    
C89   H29   S    
C100  H19   S    
C76   C102  A    
C48   C53   A    
C28   N7    T    
C11   C20   S    
Cu4   O8    S    
C40   C58   A    
Cu4   O13   S    
C78   C104  A    
C2    H6    S    
C30   N9    T    
C4    C113  A    
Cu4   O14   S    
C73   C91   A    
C5    C12   A    
C14   C35   A    
C13   C124  A    
C53   C57   A    
C47   C51   A    
C49   N14   A    
C81   C99   A    
C101  C110  A    
C106  H26   S    
C54   C62   A    
C12   C21   S    
C101  H18   S    
C46   H38   S    
C111  C120  A    
C78   C107  S    
C7    C116  A    
C110  C119  A    
C64   C67   A    
C80   C85   S    
Cu2   O10   S    
Cu2   N1    S    
C76   C93   A    
C105  C114  A    
C8    C127  A    
C3    C112  A    
C84   C120  A    
C55   C64   A    
C86   C121  A    
C52   O3    A    
C104  H24   S    
C50   N15   A    
C102  H21   S    
C66   H15   S    
Cu1   O3    S    
C75   C92   A    
C44   N12   A    
C37   C121  A    
C114  C123  A    
C103  H20   S    
C107  O8    A    
C89   C124  A    
C93   H34   S    
C116  C125  A    
C42   C46   A    
C24   C125  A    
C7    C128  A    
C38   C43   A    
C77   C103  A    
C74   C81   S    
C12   C34   A    
Cu3   Cu4   S    
Cu4   N14   S    
C15   C36   A    
C67   H16   S    
C32   C40   S    
C96   O7    A    
C75   C101  A    
C91   H12   S    
C54   C58   A    
C10   C19   S    
C27   C47   S    
C16   C25   S    
C90   C99   A    
C18   N17   T    
C43   N1    A    
C115  C124  A    
C4    C127  A    
C80   C98   A    
C79   C97   A    
C1    O1    A    
C86   H35   S    
C50   C55   A    
C16   C37   A    
C41   O2    A    
C10   C13   A    
C85   O13   A    
C42   C59   A    
C87   C122  A    
C109  C117  A    
C109  C126  A    
C39   C44   A    
C108  H25   S    
C74   O5    A    
Cu3   N15   S    
C68   C72   A    
C63   C73   S    
C110  C127  A    
C9    C126  A    
C62   C68   A    
C89   C98   A    
C14   C22   S    
C11   C128  A    
Cu1   Cu2   S    
C88   C97   A    
C79   C96   S    
C47   N1    A    
C3    C10   A    
C8    C17   S    
Cu3   O15   S    
C98   H43   S    
C108  C116  A    
C66   C70   A    
C99   H42   S    
C9    C18   S    
C118  C122  A    
C31   N10   T    
C7    C15   A    
C90   C125  A    
C31   C39   S    
C67   C71   A    
C84   C93   A    
C88   H28   S    
C21   N20   T    
C41   O9    A    
C36   C120  A    
C6    C115  A    
C27   N6    T    
C82   C91   A    
C35   H10   S    
C6    C16   A    
C104  C113  A    
C26   N5    T    
C61   C65   A    
C45   N14   A    
C96   O14   A    
C38   C56   A    
C19   N18   T    
C56   C69   A    
Cu1   N12   S    
C111  C128  A    
C70   H2    S    
C103  C112  A    
C51   C60   A    
C29   C49   S    
C82   C117  A    
C37   H13   S    
Cu2   O16   S    
C2    C9    A    
Cu1   O1    S    
C85   O6    A    
C106  C115  A    
