data_mof_unit_23961.cif
_audit_creation_date              2013-03-05T15:46:20-0500
_audit_creation_method            fapswitch 2.2
_symmetry_space_group_name_H-M    P1
_symmetry_Int_Tables_number       1
_space_group_crystal_system       triclinic
_cell_length_a                    8.590741
_cell_length_b                    15.417327
_cell_length_c                    19.249252
_cell_angle_alpha                 97.85126
_cell_angle_beta                  95.77144
_cell_angle_gamma                 98.194386
_cell_volume                      2481.00543327

loop_
_atom_site_label
_atom_site_type_symbol
_atom_site_description
_atom_site_fract_x
_atom_site_fract_y
_atom_site_fract_z
_atom_type_partial_charge
P1    P     P_3+3 0.990700 0.707490 0.561920 0.543794
O1    O     O_2   0.165020 0.721890 0.541560 -0.313081
O2    O     O_3   0.893030 0.608480 0.539180 -0.371045
O3    O     O_3   0.389120 0.667500 0.413900 -0.297011
O4    O     O_2   0.296985 0.824894 0.462365 -0.410375
O5    O     O_3   0.028696 0.725088 0.654331 -0.531996
O6    O     O_3   0.459154 0.836170 0.356179 -0.547484
H1    H     H_    0.254575 0.771136 0.298273 -0.014589
C1    C     C_3   0.409255 0.842134 0.232401 -0.815331
P2    P     P_3+3 0.340130 0.430100 0.338870 0.578479
P3    P     P_3+3 0.916928 0.605139 0.281743 0.616491
O7    O     O_2   0.172060 0.457600 0.329040 -0.349996
O8    O     O_3   0.964390 0.622060 0.377370 -0.278412
O9    O     O_2   0.027421 0.541842 0.254191 -0.291365
O10   O     O_3   0.324854 0.316338 0.311965 -0.668771
O11   O     O_3   0.978402 0.696129 0.241064 -0.511252
C2    C     C_3   0.934632 0.772691 0.276524 0.027290
H2    H     H_    0.978123 0.780520 0.333852 0.124504
H3    H     H_    0.805342 0.770595 0.269505 0.129274
C3    C     C_3   0.010926 0.851444 0.244772 0.601734
H4    H     H_    0.120997 0.835515 0.227993 0.032933
C4    C     C_3   0.667354 0.253452 0.300473 0.546851
H5    H     H_    0.572855 0.220385 0.325758 0.188518
H6    H     H_    0.634316 0.315115 0.285399 0.037778
C5    C     C_3   0.677782 0.203480 0.227057 -0.932830
H7    H     H_    0.566078 0.202774 0.192246 0.225133
H8    H     H_    0.776908 0.238093 0.203328 0.224307
Ba1   Ba    Ba6+2 0.161760 0.544680 0.467770 1.781388
C6    C     C_3   0.059777 0.646860 0.678568 0.365186
H9    H     H_    0.950886 0.596362 0.669344 0.116345
C7    C     C_3   0.112139 0.668112 0.757744 -0.756943
H10   H     H_    0.222827 0.717075 0.768788 0.290764
H11   H     H_    0.132483 0.607054 0.779402 0.210408
H12   H     H_    0.019836 0.697665 0.784754 0.270958
C8    C     C_3   0.179342 0.267795 0.316727 0.899000
H13   H     H_    0.086815 0.308119 0.328950 0.049751
C9    C     C_3   0.124788 0.207206 0.246791 -0.846916
H14   H     H_    0.003351 0.172105 0.246920 0.284637
H15   H     H_    0.207947 0.159361 0.236202 0.291786
P4    P     P_3+3 0.819590 0.292500 0.438020 0.635540
O12   O     O_2   0.645270 0.278050 0.458420 -0.366899
O13   O     O_3   0.917270 0.391510 0.460760 -0.288332
O14   O     O_3   0.421180 0.332490 0.586040 -0.353285
O15   O     O_3   0.815829 0.269175 0.343591 -0.562473
P5    P     P_3+3 0.881514 0.382892 0.713641 0.467515
O16   O     O_3   0.383630 0.545490 0.584580 -0.361676
O17   O     O_3   0.845910 0.377930 0.622570 -0.380445
O18   O     O_2   0.795571 0.456807 0.746525 -0.348046
O19   O     O_3   0.779612 0.285805 0.735403 -0.506783
Ba2   Ba    Ba6+2 0.648420 0.455310 0.532170 1.732112
P6    P     P_3+3 0.437505 0.786124 0.432503 0.576455
C10   C     C_3   0.381124 0.787652 0.292746 1.036470
H16   H     H_    0.533850 0.848263 0.221601 0.251949
O20   O     O_3   0.426670 0.454500 0.415370 -0.291355
C11   C     C_3   0.601330 0.726119 0.715325 0.785358
H17   H     H_    0.695566 0.695805 0.690418 -0.004399
C12   C     C_3   0.670745 0.773985 0.789894 0.068015
H18   H     H_    0.792184 0.808267 0.787328 0.101925
H19   H     H_    0.598290 0.824524 0.808844 0.166287
P7    P     P_3+3 0.461747 0.558232 0.674809 0.511878
O21   O     O_2   0.638230 0.542350 0.670940 -0.363156
O22   O     O_3   0.462177 0.666741 0.717943 -0.598366
C13   C     C_3   0.876248 0.219557 0.729649 0.121203
H20   H     H_    0.895172 0.200607 0.673587 0.065014
H21   H     H_    0.992318 0.242552 0.762488 0.078687
C14   C     C_3   0.794224 0.138641 0.756863 0.201907
H22   H     H_    0.693772 0.103664 0.717491 0.111725
H23   H     H_    0.747098 0.160200 0.806964 0.109067
P8    P     P_3+3 0.362972 0.218006 0.585158 0.504289
C15   C     C_3   0.336002 0.219750 0.716214 0.346532
H24   H     H_    0.220539 0.174539 0.704874 0.096003
O23   O     O_2   0.464020 0.172450 0.533333 -0.361173
O24   O     O_3   0.438220 0.194760 0.667203 -0.503177
H25   H     H_    0.316234 0.289083 0.715054 0.067612
H26   H     H_    0.329468 0.234091 0.829224 0.234645
C16   C     C_3   0.409614 0.214072 0.790290 -0.810523
H27   H     H_    0.524323 0.259551 0.803313 0.247639
H28   H     H_    0.429222 0.145117 0.794030 0.269693
C17   C     C_R   0.145251 0.173182 0.557503 0.167600
C18   C     C_R   0.082650 0.081133 0.551382 0.027399
C19   C     C_R   0.954310 0.894409 0.540199 0.016284
C20   C     C_R   0.111549 0.927945 0.569179 0.002151
C21   C     C_R   0.173890 0.018653 0.574693 -0.142764
C22   C     C_R   0.888945 0.800672 0.531174 0.174651
H29   H     H_    0.188303 0.884490 0.588465 0.196932
H30   H     H_    0.295598 0.039170 0.597955 0.166147
C23   C     C_R   0.730140 0.774998 0.503263 -0.321122
C24   C     C_R   0.901765 0.203869 0.490875 0.286602
C25   C     C_R   0.834610 0.109523 0.487279 -0.186991
C26   C     C_R   0.923898 0.050346 0.521066 0.065921
C27   C     C_R   0.686279 0.068343 0.449290 0.551798
C28   C     C_R   0.607710 0.991731 0.470901 -0.215621
C29   C     C_R   0.696230 0.928128 0.493393 -0.075474
C30   C     C_R   0.858326 0.957468 0.518559 0.081096
C31   C     C_R   0.632113 0.835572 0.485437 0.340834
C32   C     C_R   0.045440 0.232781 0.535725 -0.333461
H31   H     H_    0.484607 0.971228 0.450865 0.194440
H32   H     H_    0.680020 0.705467 0.495621 0.181601
H33   H     H_    0.090815 0.303031 0.545732 0.160329
C33   C     C_R   0.623429 0.503339 0.289257 0.104944
C34   C     C_R   0.461955 0.472196 0.270498 0.245986
C35   C     C_R   0.402352 0.460902 0.197556 -0.211779
C36   C     C_R   0.498839 0.492049 0.147095 0.167700
C37   C     C_R   0.657037 0.533564 0.171776 -0.275027
C38   C     C_R   0.716471 0.542842 0.243714 0.156707
C39   C     C_R   0.310077 0.511345 0.036108 0.542241
C40   C     C_R   0.272930 0.495911 0.962503 -0.234137
C41   C     C_R   0.362348 0.450097 0.918115 0.094541
C42   C     C_R   0.495116 0.419417 0.948556 -0.124040
C43   C     C_R   0.533603 0.432612 0.022572 -0.202025
C44   C     C_R   0.442692 0.478107 0.068479 -0.068055
C45   C     C_R   0.152382 0.407585 0.814689 -0.308895
C46   C     C_R   0.094925 0.410938 0.744697 0.211850
C47   C     C_R   0.355387 0.479381 0.724622 0.296988
C48   C     C_R   0.414725 0.472657 0.794368 -0.161213
C49   C     C_R   0.312985 0.437981 0.840423 0.037055
C50   C     C_R   0.197197 0.445234 0.699602 -0.506892
H34   H     H_    0.535304 0.501340 0.814602 0.201353
H35   H     H_    0.174704 0.523169 0.938602 0.194690
H36   H     H_    0.282459 0.427310 0.180310 0.149295
H37   H     H_    0.636219 0.407235 0.044298 0.160430
H38   H     H_    0.070455 0.384394 0.849937 0.158514
H39   H     H_    0.150149 0.452772 0.646831 0.144090
H40   H     H_    0.693284 0.133680 0.226866 0.330942
H41   H     H_    0.155333 0.620057 0.651987 0.109385
S1    S     S_3+6 0.219884 0.210913 0.387384 -0.001882
O25   O     O_2   0.085701 0.143040 0.396714 -0.243154
O26   O     O_2   0.361412 0.166209 0.380855 -0.277429
O27   O     O_3   0.261672 0.293090 0.455435 -0.590076
H42   H     H_    0.375929 0.313992 0.456791 0.416064
H43   H     H_    0.336388 0.808676 0.182547 0.265823
H44   H     H_    0.121058 0.247752 0.203356 0.180787
S2    S     S_3+6 0.456258 0.689235 0.270934 -0.046801
O28   O     O_2   0.602806 0.688181 0.320127 -0.413136
O29   O     O_2   0.328360 0.617361 0.280797 -0.238055
O30   O     O_3   0.493603 0.677113 0.186445 -0.508140
H45   H     H_    0.602221 0.708572 0.187024 0.362464
S3    S     S_3+6 0.545845 0.806789 0.664098 -0.075916
O31   O     O_2   0.472852 0.759227 0.592753 -0.314232
O32   O     O_2   0.425773 0.854674 0.698255 -0.305575
O33   O     O_3   0.706279 0.879720 0.656987 -0.555486
H46   H     H_    0.664079 0.932927 0.644686 0.371441
S4    S     S_3+6 0.682971 0.702666 0.855267 -0.012410
O34   O     O_2   0.773894 0.755654 0.922052 -0.202880
O35   O     O_2   0.519225 0.667092 0.869751 -0.266946
O36   O     O_3   0.777718 0.618754 0.827831 -0.558615
H47   H     H_    0.804691 0.592272 0.870682 0.380692
H48   H     H_    0.381877 0.909953 0.243836 0.298970
S5    S     S_3+6 0.908258 0.867234 0.161966 0.020710
O37   O     O_2   0.029843 0.905330 0.118786 -0.213694
O38   O     O_2   0.826164 0.779011 0.122605 -0.277864
O39   O     O_3   0.775314 0.936661 0.171178 -0.542460
H49   H     H_    0.724369 0.936388 0.122633 0.395883
S6    S     S_3+6 0.928122 0.063738 0.774586 -0.039587
O40   O     O_2   0.984114 0.025742 0.707235 -0.293075
O41   O     O_2   0.067801 0.111670 0.825495 -0.313285
O42   O     O_3   0.833086 0.981688 0.810963 -0.490619
H50   H     H_    0.917780 0.958668 0.838367 0.388986
S7    S     S_3+6 0.676107 0.048362 0.356693 0.017764
O43   O     O_2   0.523640 0.063644 0.319433 -0.266738
O44   O     O_2   0.812410 0.102084 0.332583 -0.248319
O45   O     O_3   0.688957 0.941714 0.333521 -0.479057
H51   H     H_    0.730414 0.938959 0.287800 0.412207
S8    S     S_3+6 0.192633 0.581699 0.078882 0.016764
O46   O     O_2   0.188530 0.570150 0.154028 -0.203680
O47   O     O_2   0.258945 0.676126 0.074464 -0.210039
O48   O     O_3   0.005860 0.559022 0.037672 -0.567680
H52   H     H_    0.952455 0.607451 0.058527 0.401853
H53   H     H_    0.567838 0.384479 0.915288 0.136739
H54   H     H_    0.732145 0.560478 0.135423 0.190948
S9    S     S_3+6 0.720740 0.480703 0.365674 0.025856
O49   O     O_2   0.722503 0.557256 0.422693 -0.231261
O50   O     O_2   0.641376 0.399875 0.386427 -0.308834
O51   O     O_3   0.898280 0.456964 0.351344 -0.430816
H55   H     H_    0.879352 0.415798 0.306013 0.297718
S10   S     S_3+6 0.065939 0.949156 0.309121 -0.000831
O52   O     O_2   0.035927 0.027094 0.274502 -0.178333
O53   O     O_2   0.975906 0.943910 0.371598 -0.311204
O54   O     O_3   0.257366 0.962611 0.340863 -0.513666
H56   H     H_    0.265257 0.999615 0.387702 0.409765

loop_
_geom_bond_atom_site_label_1
_geom_bond_atom_site_label_2
_geom_bond_distance
_ccdc_geom_bond_type
S4    O36   1.677809 S    
C14   H23   1.110753 S    
C11   H17   1.108316 S    
C13   H21   1.109400 S    
S1    O25   1.484974 D    
O19   C13   1.404968 S    
C6    H41   1.108985 S    
C8    S1    1.748685 S    
P7    C47   1.846665 S    
C8    H13   1.100995 S    
C22   C23   1.395369 A    
C45   C49   1.408318 A    
S9    O49   1.495180 D    
C24   C32   1.411095 A    
C47   C48   1.410130 A    
C3    S5    1.806198 S    
P1    C22   1.914291 S    
S9    O50   1.458055 D    
Ba1   O16   2.795079 S    
C33   C38   1.387932 A    
O42   H50   0.990541 S    
C11   S3    1.776498 S    
O7    Ba1   2.836099 S    
C36   C44   1.517793 S    
S8    O46   1.484628 D    
C8    C9    1.519628 S    
C16   H28   1.110526 S    
O6    C10   1.393814 S    
O27   H42   0.985070 S    
P2    O10   1.741891 S    
S5    O38   1.502999 D    
C43   H37   1.083501 S    
P3    O9    1.535745 D    
C12   H19   1.110806 S    
C39   C40   1.400431 A    
S4    O34   1.503129 D    
C32   H33   1.081497 S    
C2    C3    1.527664 S    
C41   C42   1.401108 A    
P7    O22   1.762448 S    
P1    O1    1.578778 D    
C1    H43   1.109405 S    
O10   C8    1.380670 S    
C43   C44   1.417192 A    
C37   C38   1.407676 A    
O51   H55   0.990662 S    
Ba1   Ba2   4.688330 S    
S10   O54   1.669371 S    
C4    O15   1.420754 S    
S7    O43   1.493552 D    
O11   C2    1.399501 S    
C4    C5    1.531799 S    
C23   C31   1.397382 A    
C15   H25   1.108812 S    
S2    O30   1.679830 S    
C40   C41   1.393140 A    
S7    O44   1.486725 D    
O8    Ba1   2.806525 S    
P8    O24   1.748111 S    
C15   H24   1.111392 S    
C39   S8    1.762787 S    
C25   C27   1.420111 A    
C6    H9    1.110832 S    
H1    C10   1.099911 S    
C27   S7    1.758000 S    
C23   H32   1.081096 S    
S10   O53   1.498985 D    
C14   H22   1.110868 S    
C13   C14   1.526243 S    
C29   C31   1.436087 A    
C33   S9    1.720610 S    
C10   S2    1.747811 S    
C1    C10   1.542203 S    
C18   C21   1.416403 A    
C40   H35   1.084509 S    
C45   C46   1.397887 A    
O3    Ba1   2.892280 S    
O2    Ba2   2.907213 S    
C42   H53   1.082910 S    
C28   H31   1.075379 S    
C26   C30   1.454573 A    
O17   Ba2   2.807145 S    
C39   C44   1.435163 A    
P5    O17   1.738231 S    
C9    H15   1.111056 S    
S9    O51   1.659043 S    
C7    H12   1.108089 S    
C12   S4    1.785460 S    
O3    P6    1.794494 S    
P1    O5    1.752309 S    
C34   C35   1.423779 A    
C16   H27   1.109448 S    
S6    O42   1.679171 S    
S5    O39   1.678952 S    
C27   C28   1.409681 A    
C14   S6    1.783398 S    
Ba1   O20   3.018290 S    
C28   C29   1.410549 A    
S1    O27   1.665024 S    
C5    H7    1.111625 S    
C19   C20   1.404896 A    
O54   H56   0.989500 S    
P7    O21   1.577234 D    
P1    O2    1.613756 S    
P8    O23   1.548727 D    
H26   C16   1.110024 S    
C45   H38   1.083568 S    
C9    H14   1.105054 S    
P1    Ba1   3.476909 S    
P3    O11   1.741277 S    
P4    O13   1.613787 S    
C7    H10   1.109097 S    
P5    O19   1.747529 S    
C48   H34   1.077722 S    
C21   H30   1.080108 S    
C15   O24   1.404758 S    
C7    H11   1.109045 S    
C2    H2    1.113455 S    
S7    O45   1.666103 S    
C29   C30   1.415382 A    
Ba2   O20   2.794318 S    
P3    C38   1.872638 S    
C3    H4    1.079222 S    
S6    O40   1.501194 D    
P2    O7    1.562601 D    
O13   Ba2   3.017960 S    
C46   C50   1.396909 A    
C11   O22   1.407973 S    
P4    O12   1.579089 D    
C11   C12   1.540635 S    
C15   C16   1.519648 S    
S2    O28   1.500734 D    
C4    H6    1.097401 S    
C17   C18   1.428674 A    
P8    C17   1.894747 S    
C1    H16   1.104131 S    
O12   Ba2   2.897574 S    
O48   H52   0.990911 S    
C19   C22   1.454125 A    
C35   H36   1.082342 S    
C37   H54   1.082600 S    
O36   H47   0.990600 S    
P5    O18   1.543093 D    
P2    Ba1   3.458894 S    
S4    O35   1.502684 D    
O2    Ba1   3.017075 S    
S1    O26   1.488286 D    
O16   P7    1.772105 S    
S6    O41   1.503049 D    
P2    C34   1.888223 S    
O30   H45   0.986654 S    
S3    O33   1.679522 S    
O14   Ba2   2.891643 S    
S3    O32   1.504067 D    
O45   H51   0.979968 S    
C20   H29   1.079863 S    
O16   Ba2   3.017477 S    
C1    H48   1.102122 S    
C9    H44   1.110838 S    
C41   C49   1.491581 S    
S8    O47   1.502770 D    
C50   H39   1.082490 S    
O6    P6    1.764129 S    
C17   C32   1.418731 A    
C6    C7    1.521908 S    
S5    O37   1.503315 D    
C19   C30   1.438308 A    
P3    O8    1.819391 S    
P4    C24   1.977629 S    
C12   H18   1.109272 S    
C3    S10   1.787890 S    
P4    Ba2   3.477456 S    
Ba1   O13   2.906592 S    
C33   C34   1.395425 A    
C2    H3    1.100605 S    
S8    O48   1.683538 S    
C18   C26   1.416162 A    
C35   C36   1.427248 A    
P2    O20   1.552880 S    
C5    H40   1.102573 S    
C47   C50   1.396801 A    
S3    O31   1.495839 D    
S10   O52   1.492279 D    
C13   H20   1.113115 S    
P5    C46   1.840792 S    
P4    O15   1.800176 S    
O5    C6    1.401440 S    
C24   C25   1.476019 A    
O14   P8    1.761880 S    
C20   C21   1.410080 A    
C42   C43   1.409795 A    
C36   C37   1.421785 A    
S2    O29   1.491154 D    
Ba2   O21   2.836376 S    
C4    H5    1.088631 S    
O4    P6    1.548018 D    
O1    Ba1   2.897012 S    
O39   H49   0.990403 S    
C25   C26   1.450870 A    
O33   H46   0.990446 S    
C48   C49   1.409900 A    
P6    C31   1.869834 S    
C5    H8    1.110787 S    
