data_mof_unit_8460.cif
_audit_creation_date              2012-12-10T17:47:50-0500
_audit_creation_method            fapswitch 2.2
_symmetry_space_group_name_H-M    P1
_symmetry_Int_Tables_number       1
_space_group_crystal_system       triclinic
_cell_length_a                    14.849826
_cell_length_b                    14.644339
_cell_length_c                    14.28639
_cell_angle_alpha                 76.619766
_cell_angle_beta                  100.584405
_cell_angle_gamma                 115.299294
_cell_volume                      2719.85176392

loop_
_atom_site_label
_atom_site_type_symbol
_atom_type_description
_atom_site_fract_x
_atom_site_fract_y
_atom_site_fract_z
_atom_type_partial_charge
C1    C     C_R   0.880123 0.311889 0.515939 0.792336
C2    C     C_R   0.506710 0.101045 0.392022 -0.095469
C3    C     C_R   0.596129 0.917880 0.637620 -0.065869
C4    C     C_R   0.404160 0.083044 0.367644 -0.106830
C5    C     C_R   0.706453 0.651277 0.326106 -0.031045
C6    C     C_R   0.290541 0.344431 0.670895 0.050735
C7    C     C_R   0.789172 0.623499 0.354732 0.131554
C8    C     C_R   0.205025 0.366137 0.638736 0.162589
C9    C     C_R   0.718615 0.522277 0.501146 0.246221
C10   C     C_R   0.284873 0.484313 0.502422 0.260418
C11   C     C_R   0.630177 0.539251 0.467504 -0.064209
C12   C     C_R   0.119855 0.688142 0.484311 0.797652
C13   C     C_R   0.373036 0.465750 0.535760 -0.061343
C14   C     C_R   0.636625 0.622770 0.393296 0.043459
C15   C     C_R   0.365352 0.379696 0.607997 0.016583
C16   C     C_R   0.999311 0.499968 0.668298 0.803249
C17   C     C_R   0.000698 0.500043 0.331702 0.820751
C18   C     C_R   0.538259 0.482033 0.509560 0.037823
C19   C     C_R   0.466010 0.523922 0.495107 0.048122
C20   C     C_R   0.492793 0.626085 0.447778 -0.234472
C21   C     C_R   0.513592 0.380913 0.558439 -0.244734
C22   C     C_R   0.575665 0.675637 0.393478 0.149190
C23   C     C_R   0.638466 0.073894 0.518042 0.069121
C24   C     C_R   0.429293 0.329347 0.610096 0.157165
C25   C     C_1   0.998349 0.500216 0.770481 -0.198779
C26   C     C_1   0.001636 0.499745 0.229527 -0.149238
C27   C     C_1   0.998568 0.500201 0.856108 -0.005269
C28   C     C_1   0.001393 0.499754 0.143898 0.014365
C29   C     C_1   0.999495 0.500058 0.957098 0.018971
C30   C     C_1   0.000453 0.499902 0.042906 0.021007
C31   C     C_R   0.810460 0.202706 0.530251 -0.107134
C32   C     C_R   0.189521 0.797395 0.471433 -0.101206
C33   C     C_R   0.774120 0.023673 0.599424 0.199294
C34   C     C_R   0.361731 0.925514 0.485020 0.026553
C35   C     C_R   0.226395 0.977597 0.407397 0.208933
C36   C     C_R   0.843156 0.125380 0.574924 -0.180674
C37   C     C_R   0.156949 0.875570 0.429675 -0.192166
C38   C     C_R   0.708641 0.175849 0.500073 -0.163766
C39   C     C_R   0.291367 0.823564 0.501083 -0.251182
C40   C     C_2   0.626323 0.866294 0.732800 0.373585
C41   C     C_2   0.374705 0.139121 0.274793 0.320422
C42   C     C_3   0.814679 0.940975 0.635927 -0.358653
C43   C     C_3   0.881818 0.941530 0.566199 -0.875363
C44   C     C_3   0.186556 0.061133 0.376225 -0.378047
C45   C     C_R   0.669497 0.002081 0.584004 0.034556
C46   C     C_3   0.124289 0.059745 0.451169 -0.873787
C47   C     C_2   0.418202 0.830693 0.681138 0.341931
C48   C     C_2   0.578518 0.165815 0.318416 0.368196
C49   C     C_3   0.603581 0.787679 0.347573 -0.430632
C50   C     C_3   0.611676 0.853783 0.419662 -0.779142
C51   C     C_3   0.404797 0.217942 0.657287 -0.419108
C52   C     C_3   0.401600 0.152316 0.586728 -0.823008
C53   C     C_3   0.266758 0.519000 0.394212 -0.349444
C54   C     C_3   0.210420 0.425487 0.343621 -0.768428
C55   C     C_3   0.739361 0.495178 0.610077 -0.345342
C56   C     C_R   0.330832 0.998545 0.421112 0.095352
C57   C     C_3   0.802579 0.592848 0.653249 -0.762383
C58   C     C_2   0.112083 0.295808 0.684749 0.378884
C59   C     C_2   0.875962 0.677185 0.297120 0.434424
C60   C     C_3   0.681833 0.689299 0.219754 -0.385687
C61   C     C_3   0.639541 0.601298 0.162196 -0.724993
C62   C     C_3   0.309429 0.301223 0.777236 -0.417212
C63   C     C_3   0.310071 0.369466 0.844082 -0.778881
C64   C     C_R   0.536839 0.044662 0.478430 0.039015
C65   C     C_R   0.463455 0.953925 0.524381 -0.056607
C66   C     C_R   0.493132 0.897223 0.610802 -0.080889
Cu1   Cu    Cu3+1 0.081740 0.475690 0.523180 0.923473
Cu2   Cu    Cu3+1 0.918260 0.524310 0.476820 0.926469
H1    H     H_    0.447096 0.666267 0.450817 0.152296
H2    H     H_    0.953096 0.010743 0.565469 0.272660
H3    H     H_    0.900111 0.873115 0.589925 0.246977
H4    H     H_    0.857955 0.952525 0.707556 0.250044
H5    H     H_    0.753786 0.863198 0.643717 0.184454
H6    H     H_    0.053676 0.989732 0.455219 0.252827
H7    H     H_    0.167278 0.062775 0.523581 0.271008
H8    H     H_    0.104674 0.127425 0.430172 0.255260
H9    H     H_    0.247766 0.138660 0.367543 0.198421
H10   H     H_    0.139821 0.050905 0.306046 0.238156
H11   H     H_    0.360948 0.854234 0.691010 0.092971
H12   H     H_    0.561971 0.342790 0.558211 0.146588
H13   H     H_    0.575105 0.236310 0.276488 0.051600
H14   H     H_    0.536432 0.839882 0.436490 0.250207
H15   H     H_    0.656257 0.836691 0.487281 0.248943
H16   H     H_    0.649087 0.936132 0.388227 0.278332
H17   H     H_    0.677828 0.821403 0.319131 0.209920
H18   H     H_    0.546555 0.793859 0.286980 0.214012
H19   H     H_    0.356129 0.166217 0.518575 0.257913
H20   H     H_    0.478068 0.169644 0.570522 0.243203
H21   H     H_    0.367366 0.069870 0.619183 0.243858
H22   H     H_    0.461637 0.214525 0.719009 0.205402
H23   H     H_    0.316832 0.763157 0.532957 0.185798
H24   H     H_    0.330046 0.181195 0.684644 0.220016
H25   H     H_    0.261546 0.388601 0.341484 0.226655
H26   H     H_    0.145695 0.366728 0.381924 0.268873
H27   H     H_    0.183808 0.450048 0.268197 0.235069
H28   H     H_    0.232121 0.574788 0.379571 0.222137
H29   H     H_    0.334367 0.561909 0.355983 0.174706
H30   H     H_    0.867081 0.645430 0.611575 0.264416
H31   H     H_    0.755840 0.635480 0.652456 0.225644
H32   H     H_    0.830347 0.572242 0.729321 0.239467
H33   H     H_    0.672244 0.460130 0.649675 0.177951
H34   H     H_    0.683207 0.235755 0.465638 0.143802
H35   H     H_    0.768927 0.435024 0.628904 0.214663
H36   H     H_    0.063664 0.322138 0.707573 0.108527
H37   H     H_    0.943892 0.734202 0.325603 0.055599
H38   H     H_    0.691217 0.562920 0.169570 0.282990
H39   H     H_    0.567135 0.543293 0.188099 0.228475
H40   H     H_    0.626286 0.631308 0.084451 0.242737
H41   H     H_    0.623282 0.719367 0.208468 0.201347
H42   H     H_    0.748777 0.752616 0.188388 0.224471
H43   H     H_    0.365609 0.449162 0.823765 0.262461
H44   H     H_    0.235156 0.370246 0.840647 0.243587
H45   H     H_    0.077686 0.857211 0.413046 0.143074
H46   H     H_    0.331089 0.339715 0.919880 0.248731
H47   H     H_    0.252738 0.222204 0.796983 0.249208
H48   H     H_    0.384018 0.297876 0.792799 0.205581
H49   H     H_    0.922316 0.144439 0.592287 0.202126
H50   H     H_    0.594196 0.783412 0.751792 0.126054
H51   H     H_    0.414208 0.221538 0.255784 0.050893
H52   H     H_    0.843267 0.939339 0.491847 0.260246
N1    N     N_R   0.795420 0.560790 0.441960 -0.225791
N2    N     N_R   0.204580 0.439210 0.558040 -0.226087
O1    O     O_R   0.977910 0.338120 0.530560 -0.588572
O2    O     O_2   0.307768 0.093066 0.217716 -0.524496
O3    O     O_2   0.416372 0.747767 0.724555 -0.566400
O4    O     O_2   0.640760 0.138998 0.302296 -0.528450
O5    O     O_2   0.088830 0.203346 0.699583 -0.594991
O6    O     O_2   0.871877 0.659876 0.216542 -0.557115
O7    O     O_R   0.022090 0.661880 0.469440 -0.603775
O8    O     O_R   0.839850 0.379180 0.491410 -0.580664
O9    O     O_R   0.160150 0.620820 0.508590 -0.572789
O10   O     O_R   0.069040 0.479460 0.643530 -0.583014
O11   O     O_R   0.930960 0.520540 0.356470 -0.533923
O12   O     O_R   0.930990 0.520530 0.604380 -0.557634
O13   O     O_R   0.069010 0.479470 0.395620 -0.569622
O14   O     O_2   0.687097 0.916657 0.791095 -0.538436

loop_
_geom_bond_atom_site_label_1
_geom_bond_atom_site_label_2
_ccdc_geom_bond_type
C40   H50   S    
C11   C18   A    
C34   C56   A    
C23   C45   A    
C12   O9    A    
C27   C29   S    
C18   C21   A    
C33   C45   A    
C2    C4    A    
Cu1   O10   S    
C47   H11   S    
C16   O12   A    
C46   H8    S    
C50   H16   S    
C8    N2    A    
C53   C54   S    
C40   O14   D    
C59   H37   S    
C17   C26   S    
C41   O2    D    
C44   H9    S    
C35   C37   A    
C51   H22   S    
C11   C14   A    
C37   H45   S    
C4    C41   S    
C57   H31   S    
C55   H35   S    
C1    C31   S    
C33   C36   A    
C48   H13   S    
C18   C19   A    
C32   C39   A    
C39   H23   S    
C63   H44   S    
C61   H40   S    
C10   C53   S    
C54   H25   S    
C60   H41   S    
C8    C58   S    
C6    C15   A    
C63   H46   S    
C19   C20   A    
C44   C46   S    
C17   O13   A    
C9    N1    A    
C9    C55   S    
C47   C66   S    
C43   H52   S    
C24   C51   S    
Cu2   O11   S    
C58   O5    D    
C35   C44   S    
C12   C32   S    
C53   H28   S    
C52   H21   S    
C7    N1    A    
C16   O10   A    
C34   C65   A    
C7    C59   S    
C46   H7    S    
C2    C64   A    
C50   H15   S    
C47   O3    D    
C12   O7    A    
C13   C19   A    
Cu1   Cu2   S    
C49   H17   S    
C52   H20   S    
C1    O8    A    
C5    C7    A    
C6    C8    A    
C53   H29   S    
C59   O6    D    
C57   H32   S    
C3    C45   A    
C34   C39   A    
C60   C61   S    
Cu1   O13   S    
C44   H10   S    
C1    O1    A    
C62   H48   S    
C29   C30   T    
C36   H49   S    
C51   H24   S    
C13   C15   A    
C62   C63   S    
C42   H4    S    
C5    C14   A    
C32   C37   A    
C41   H51   S    
Cu2   O8    S    
C61   H38   S    
C9    C11   A    
C54   H27   S    
C22   C49   S    
C15   C24   A    
C20   C22   A    
C3    C40   S    
C49   C50   S    
C43   H2    S    
C55   C57   S    
C17   O11   A    
C20   H1    S    
C3    C66   A    
C58   H36   S    
C42   C43   S    
C33   C42   S    
Cu1   N2    S    
C46   H6    S    
C50   H14   S    
C16   C25   S    
C23   C64   A    
C42   H5    S    
C43   H3    S    
C5    C60   S    
C35   C56   A    
C49   H18   S    
C52   H19   S    
Cu1   O9    S    
C10   N2    A    
C10   C13   A    
Cu1   O1    S    
Cu2   N1    S    
C25   C27   T    
C23   C38   A    
C55   H33   S    
C26   C28   T    
C31   C38   A    
C2    C48   S    
C64   C65   A    
C14   C22   A    
C28   C30   S    
C51   C52   S    
C38   H34   S    
C6    C62   S    
C57   H30   S    
C21   H12   S    
Cu2   O12   S    
C63   H43   S    
Cu2   O7    S    
C61   H39   S    
C54   H26   S    
C60   H42   S    
C48   O4    D    
C62   H47   S    
C65   C66   A    
C21   C24   A    
C31   C36   A    
C4    C56   A    
