data_mof_unit_27416.cif
_audit_creation_date              2012-12-11T14:42:07-0500
_audit_creation_method            fapswitch 2.2
_symmetry_space_group_name_H-M    P1
_symmetry_Int_Tables_number       1
_space_group_crystal_system       triclinic
_cell_length_a                    19.151512
_cell_length_b                    11.209789
_cell_length_c                    18.798155
_cell_angle_alpha                 90.45373
_cell_angle_beta                  90.044963
_cell_angle_gamma                 91.333679
_cell_volume                      4034.44912517

loop_
_atom_site_label
_atom_site_type_symbol
_atom_type_description
_atom_site_fract_x
_atom_site_fract_y
_atom_site_fract_z
_atom_type_partial_charge
C1    C     C_R   0.725616 0.959084 0.855223 0.598549
C2    C     C_R   0.274762 0.960479 0.144416 0.568608
C3    C     C_R   0.225617 0.459085 0.855223 0.598578
C4    C     C_R   0.774767 0.460486 0.144412 0.568600
C5    C     C_R   0.713051 0.500787 0.029900 0.216828
C6    C     C_R   0.307530 0.440599 0.957607 0.236199
C7    C     C_R   0.213041 0.000775 0.029905 0.216811
C8    C     C_R   0.807516 0.940606 0.957616 0.236199
C9    C     C_R   0.761835 0.433785 0.068755 -0.021812
C10   C     C_R   0.239690 0.430228 0.930138 -0.008578
C11   C     C_R   0.261818 0.933761 0.068765 -0.021816
C12   C     C_R   0.739682 0.930224 0.930139 -0.008594
C13   C     C_R   0.811771 0.366363 0.032096 0.226110
C14   C     C_R   0.182241 0.409639 0.975745 0.215360
C15   C     C_R   0.311741 0.866305 0.032112 0.226115
C16   C     C_R   0.682230 0.909609 0.975740 0.215374
C17   C     C_R   0.816018 0.375117 0.958363 -0.027908
C18   C     C_R   0.190558 0.425587 0.049250 -0.037276
C19   C     C_R   0.315993 0.875050 0.958379 -0.027933
C20   C     C_R   0.690539 0.925544 0.049247 -0.037309
C21   C     C_R   0.758028 0.418768 0.920639 -0.045686
C22   C     C_R   0.257329 0.417256 0.076925 -0.030829
C23   C     C_R   0.258017 0.918738 0.920648 -0.045668
C24   C     C_R   0.757313 0.917260 0.076928 -0.030871
C25   C     C_R   0.461069 0.264682 0.551111 0.025628
C26   C     C_R   0.468535 0.282699 0.477884 0.010614
C27   C     C_R   0.961071 0.764685 0.551110 0.025632
C28   C     C_R   0.968538 0.782701 0.477883 0.010617
C29   C     C_R   0.486257 0.183027 0.433287 0.024954
C30   C     C_R   0.489573 0.163290 0.580588 0.025593
C31   C     C_R   0.986258 0.683027 0.433287 0.024952
C32   C     C_R   0.989572 0.663291 0.580588 0.025592
C33   C     C_R   0.508042 0.078440 0.464444 -0.162023
C34   C     C_R   0.505951 0.067584 0.537483 -0.146233
C35   C     C_R   0.008041 0.578438 0.464445 -0.162020
C36   C     C_R   0.005947 0.567582 0.537484 -0.146229
C37   C     C_R   0.824805 0.417236 0.554535 -0.178546
C38   C     C_R   0.177419 0.393184 0.448013 -0.170346
C39   C     C_R   0.324805 0.917236 0.554535 -0.178545
C40   C     C_R   0.677419 0.893183 0.448013 -0.170347
C41   C     C_R   0.832025 0.426433 0.481340 -0.028321
C42   C     C_R   0.168604 0.407616 0.520218 -0.023360
C43   C     C_R   0.332025 0.926434 0.481340 -0.028322
C44   C     C_R   0.668604 0.907614 0.520218 -0.023363
C45   C     C_R   0.519784 0.178318 0.838739 0.528510
C46   C     C_R   0.431466 0.181579 0.146314 0.597885
C47   C     C_R   0.019781 0.678318 0.838734 0.528487
C48   C     C_R   0.931468 0.681579 0.146313 0.597865
C49   C     C_R   0.776366 0.473286 0.439606 -0.006224
C50   C     C_R   0.220210 0.475805 0.560156 0.000045
C51   C     C_R   0.276366 0.973287 0.439606 -0.006226
C52   C     C_R   0.720210 0.975803 0.560156 0.000045
C53   C     C_R   0.714697 0.511225 0.476192 -0.011308
C54   C     C_R   0.276809 0.531683 0.520743 -0.031700
C55   C     C_R   0.214698 0.011226 0.476192 -0.011308
C56   C     C_R   0.776810 0.031683 0.520743 -0.031700
C57   C     C_R   0.711116 0.503142 0.551199 0.282574
C58   C     C_R   0.281000 0.516266 0.446369 0.257552
C59   C     C_R   0.211116 0.003143 0.551199 0.282574
C60   C     C_R   0.781000 0.016265 0.446369 0.257554
C61   C     C_R   0.761176 0.437365 0.586783 -0.008258
C62   C     C_R   0.237868 0.431306 0.414244 0.006099
C63   C     C_R   0.261176 0.937365 0.586783 -0.008258
C64   C     C_R   0.737868 0.931305 0.414244 0.006102
C65   C     C_R   0.740065 0.364697 0.851530 0.549320
C66   C     C_R   0.263514 0.362730 0.146907 0.565044
C67   C     C_R   0.240062 0.864691 0.851533 0.549320
C68   C     C_R   0.763510 0.862737 0.146910 0.565036
C69   C     C_R   0.710828 0.996523 0.638578 0.567921
C70   C     C_R   0.287088 0.992424 0.361186 0.557327
C71   C     C_R   0.210827 0.496524 0.638578 0.567917
C72   C     C_R   0.787088 0.492424 0.361186 0.557329
C73   C     C_R   0.527099 0.174971 0.647424 0.528243
C74   C     C_R   0.466401 0.179874 0.357844 0.543649
C75   C     C_R   0.027099 0.674971 0.647424 0.528237
C76   C     C_R   0.966402 0.679874 0.357844 0.543650
C77   C     C_R   0.741842 0.367475 0.649909 0.525850
C78   C     C_R   0.258549 0.366831 0.350509 0.543350
C79   C     C_R   0.241842 0.867475 0.649909 0.525845
C80   C     C_R   0.758549 0.866831 0.350509 0.543348
C81   C     C_2   0.463606 0.180688 0.892232 -0.123115
C82   C     C_2   0.420821 0.166825 0.069587 -0.019328
C83   C     C_2   0.963604 0.680688 0.892229 -0.123119
C84   C     C_2   0.920822 0.666830 0.069586 -0.019373
C85   C     C_2   0.465964 0.205052 0.020168 0.036862
C86   C     C_2   0.471384 0.131590 0.955658 -0.080140
C87   C     C_2   0.965952 0.705091 0.020165 0.036966
C88   C     C_2   0.971392 0.631618 0.955662 -0.080156
C89   C     C_R   0.710592 0.491670 0.955338 0.240291
C90   C     C_R   0.316967 0.431154 0.032029 0.249396
C91   C     C_R   0.210585 0.991652 0.955343 0.240285
C92   C     C_R   0.816949 0.931174 0.032035 0.249437
Cr1   Cr    Cr6+3 0.769270 0.163730 0.750710 0.998756
Cr2   Cr    Cr6+3 0.230730 0.163730 0.249290 1.002693
Cr3   Cr    Cr6+3 0.269270 0.663730 0.750710 0.998813
Cr4   Cr    Cr6+3 0.730730 0.663730 0.249290 1.002685
Cr5   Cr    Cr6+3 0.612620 0.009790 0.748780 0.990295
Cr6   Cr    Cr6+3 0.387380 0.009790 0.251220 0.962260
Cr7   Cr    Cr6+3 0.112620 0.509790 0.748780 0.990290
Cr8   Cr    Cr6+3 0.887380 0.509790 0.251220 0.962251
Cr9   Cr    Cr6+3 0.614160 0.322500 0.747710 1.044990
Cr10  Cr    Cr6+3 0.385840 0.322500 0.252290 0.989724
Cr11  Cr    Cr6+3 0.114160 0.822500 0.747710 1.045000
Cr12  Cr    Cr6+3 0.885840 0.822500 0.252290 0.989741
H1    H     H_    0.381651 0.099920 0.054111 0.053652
H2    H     H_    0.430505 0.257451 0.889644 0.176501
H3    H     H_    0.881669 0.599897 0.054111 0.053645
H4    H     H_    0.930493 0.757437 0.889631 0.176542
H5    H     H_    0.525487 0.004526 0.432181 0.112757
H6    H     H_    0.519012 0.986552 0.562254 0.132253
H7    H     H_    0.025484 0.504523 0.432182 0.112757
H8    H     H_    0.019003 0.486548 0.562255 0.132244
H9    H     H_    0.866072 0.377663 0.585343 0.137378
H10   H     H_    0.138909 0.339941 0.418744 0.137893
H11   H     H_    0.366072 0.877662 0.585343 0.137379
H12   H     H_    0.638909 0.839941 0.418743 0.137893
O1    O     O_R   0.784320 0.290430 0.830510 -0.538650
O2    O     O_R   0.215680 0.290430 0.169490 -0.490496
O3    O     O_R   0.284320 0.790430 0.830510 -0.538619
O4    O     O_R   0.715680 0.790430 0.169490 -0.490528
O5    O     O_R   0.554640 0.080370 0.673500 -0.538563
O6    O     O_R   0.445360 0.080370 0.326500 -0.521316
O7    O     O_R   0.054640 0.580370 0.673500 -0.538564
O8    O     O_R   0.945360 0.580370 0.326500 -0.521315
O9    O     O_R   0.543920 0.282180 0.666790 -0.497836
O10   O     O_R   0.456080 0.282180 0.333210 -0.531809
O11   O     O_R   0.043920 0.782180 0.666790 -0.497840
O12   O     O_R   0.956080 0.782180 0.333210 -0.531806
O13   O     O_R   0.679040 0.374160 0.674430 -0.451977
O14   O     O_R   0.320960 0.374160 0.325570 -0.481476
O15   O     O_R   0.179040 0.874160 0.674430 -0.451978
O16   O     O_R   0.820960 0.874160 0.325570 -0.481473
O17   O     O_3   0.665350 0.165340 0.749070 -0.273955
O18   O     O_3   0.334650 0.165340 0.250930 -0.297246
O19   O     O_3   0.165350 0.665340 0.749070 -0.273967
O20   O     O_3   0.834650 0.665340 0.250930 -0.297240
O21   O     O_R   0.762640 0.040960 0.825200 -0.467189
O22   O     O_R   0.237360 0.040960 0.174800 -0.455507
O23   O     O_R   0.262640 0.540960 0.825200 -0.467132
O24   O     O_R   0.737360 0.540960 0.174800 -0.455495
O25   O     O_R   0.667400 0.923970 0.829950 -0.482924
O26   O     O_R   0.332600 0.923970 0.170050 -0.512861
O27   O     O_R   0.167400 0.423970 0.829950 -0.482944
O28   O     O_R   0.832600 0.423970 0.170050 -0.512880
O29   O     O_R   0.553960 0.081340 0.821780 -0.493235
O30   O     O_R   0.446040 0.081340 0.178220 -0.533084
O31   O     O_R   0.053960 0.581340 0.821780 -0.493241
O32   O     O_R   0.946040 0.581340 0.178220 -0.533089
O33   O     O_R   0.543180 0.283240 0.826740 -0.505639
O34   O     O_R   0.456820 0.283240 0.173260 -0.517938
O35   O     O_R   0.043180 0.783240 0.826740 -0.505607
O36   O     O_R   0.956820 0.783240 0.173260 -0.517933
O37   O     O_R   0.678360 0.375140 0.822710 -0.458957
O38   O     O_R   0.321640 0.375140 0.177290 -0.508353
O39   O     O_R   0.178360 0.875140 0.822710 -0.458952
O40   O     O_R   0.821640 0.875140 0.177290 -0.508322
O41   O     O_R   0.785050 0.289380 0.670560 -0.563943
O42   O     O_R   0.214950 0.289380 0.329440 -0.559103
O43   O     O_R   0.285050 0.789380 0.670560 -0.563944
O44   O     O_R   0.714950 0.789380 0.329440 -0.559106
O45   O     O_R   0.763320 0.039990 0.676930 -0.509853
O46   O     O_R   0.236680 0.039990 0.323070 -0.510623
O47   O     O_R   0.263320 0.539990 0.676930 -0.509850
O48   O     O_R   0.736680 0.539990 0.323070 -0.510620
O49   O     O_R   0.668130 0.922920 0.670000 -0.550793
O50   O     O_R   0.331870 0.922920 0.330000 -0.548904
O51   O     O_R   0.168130 0.422920 0.670000 -0.550793
O52   O     O_R   0.831870 0.422920 0.330000 -0.548907
C93   C     C_3   0.528004 0.284334 0.038225 -0.367804
H13   H     H_    0.558079 0.308467 0.989699 0.140927
H14   H     H_    0.509868 0.366983 0.063091 0.169757
H15   H     H_    0.563254 0.238710 0.075581 0.120317
C94   C     C_3   0.518287 0.032021 0.963480 -0.331703
H16   H     H_    0.507996 0.985390 0.013859 0.106762
H17   H     H_    0.510055 0.968222 0.918952 0.198792
H18   H     H_    0.572178 0.070753 0.963018 0.199600
C95   C     C_3   0.027975 0.784415 0.038215 -0.367706
H19   H     H_    0.058040 0.808567 0.989688 0.140960
H20   H     H_    0.009826 0.867053 0.063084 0.169790
H21   H     H_    0.063240 0.738816 0.075567 0.120264
C96   C     C_3   0.018314 0.532081 0.963497 -0.331717
H22   H     H_    0.008053 0.485474 0.013890 0.106822
H23   H     H_    0.010076 0.468261 0.918983 0.198812
H24   H     H_    0.072199 0.570833 0.963008 0.199572
C97   C     C_3   0.896349 0.369334 0.451135 -0.377397
H25   H     H_    0.922004 0.426139 0.411736 0.184849
H26   H     H_    0.935698 0.349347 0.492447 0.090239
H27   H     H_    0.882391 0.283892 0.425525 0.183925
C98   C     C_3   0.107531 0.331139 0.546755 -0.390363
H28   H     H_    0.086753 0.346815 0.600313 0.169970
H29   H     H_    0.062409 0.337557 0.510080 0.081226
H30   H     H_    0.120976 0.237285 0.540677 0.175712
C99   C     C_3   0.396350 0.869336 0.451135 -0.377396
H31   H     H_    0.422005 0.926142 0.411736 0.184849
H32   H     H_    0.435699 0.849349 0.492447 0.090241
H33   H     H_    0.382392 0.783894 0.425525 0.183924
C100  C     C_3   0.607532 0.831135 0.546754 -0.390366
H34   H     H_    0.586755 0.846808 0.600313 0.169968
H35   H     H_    0.562410 0.837553 0.510081 0.081225
H36   H     H_    0.620978 0.737282 0.540675 0.175715
C101  C     C_3   0.650197 0.549444 0.436933 -0.362499
H37   H     H_    0.604332 0.559645 0.472195 0.153649
H38   H     H_    0.660131 0.636022 0.410935 0.162647
H39   H     H_    0.634729 0.480361 0.396949 0.136141
C102  C     C_3   0.332235 0.610342 0.554365 -0.363231
H40   H     H_    0.376552 0.631637 0.518512 0.152508
H41   H     H_    0.307086 0.693597 0.566612 0.176516
H42   H     H_    0.356397 0.570487 0.601566 0.143841
C103  C     C_3   0.150198 0.049446 0.436933 -0.362499
H43   H     H_    0.104332 0.059648 0.472195 0.153649
H44   H     H_    0.160132 0.136024 0.410935 0.162648
H45   H     H_    0.134729 0.980363 0.396949 0.136141
C104  C     C_3   0.832235 0.110342 0.554365 -0.363232
H46   H     H_    0.876552 0.131636 0.518512 0.152508
H47   H     H_    0.807086 0.193597 0.566611 0.176516
H48   H     H_    0.856396 0.070489 0.601566 0.143840
O53   O     O_3   0.655071 0.549062 0.588433 -0.573649
C105  C     C_3   0.680237 0.630567 0.641374 -0.107589
H49   H     H_    0.715373 0.700596 0.618178 0.127552
H50   H     H_    0.708206 0.586778 0.685279 0.112425
H51   H     H_    0.634970 0.674765 0.666051 0.141307
O54   O     O_3   0.330209 0.578680 0.406242 -0.610864
C106  C     C_3   0.295886 0.647755 0.354661 -0.107443
H52   H     H_    0.263221 0.593454 0.317238 0.110974
H53   H     H_    0.336048 0.693258 0.321492 0.159642
H54   H     H_    0.263369 0.716484 0.380703 0.138075
O55   O     O_3   0.155071 0.049063 0.588432 -0.573651
C107  C     C_3   0.180238 0.130569 0.641374 -0.107586
H55   H     H_    0.215373 0.200597 0.618177 0.127552
H56   H     H_    0.208206 0.086779 0.685279 0.112429
H57   H     H_    0.134971 0.174766 0.666051 0.141310
O56   O     O_3   0.830209 0.078679 0.406241 -0.610862
C108  C     C_3   0.795885 0.147755 0.354661 -0.107451
H58   H     H_    0.763223 0.093454 0.317237 0.110971
H59   H     H_    0.836046 0.193262 0.321494 0.159640
H60   H     H_    0.763367 0.216481 0.380704 0.138073
O57   O     O_3   0.660663 0.551527 0.917117 -0.577271
C109  C     C_3   0.694263 0.634506 0.871217 -0.105182
H61   H     H_    0.654082 0.690486 0.846627 0.166301
H62   H     H_    0.721892 0.590821 0.826645 0.102054
H63   H     H_    0.731743 0.693607 0.900808 0.121042
O58   O     O_3   0.383591 0.416561 0.058577 -0.563635
C110  C     C_3   0.406141 0.518057 0.098389 -0.096833
H64   H     H_    0.431551 0.489864 0.148110 0.157675
H65   H     H_    0.363558 0.578097 0.114640 0.166040
H66   H     H_    0.447783 0.565490 0.068871 0.065731
O59   O     O_3   0.160663 0.051514 0.917116 -0.577267
C111  C     C_3   0.194270 0.134499 0.871226 -0.105224
H67   H     H_    0.154093 0.190493 0.846641 0.166314
H68   H     H_    0.221898 0.090819 0.826651 0.102078
H69   H     H_    0.231753 0.193588 0.900822 0.121011
O60   O     O_3   0.883574 0.916590 0.058579 -0.563562
C112  C     C_3   0.906125 0.018096 0.098379 -0.096842
H70   H     H_    0.931552 0.989903 0.148096 0.157630
H71   H     H_    0.863538 0.078131 0.114638 0.166021
H72   H     H_    0.947754 0.065540 0.068841 0.065811
O61   O     O_3   0.674908 0.586899 0.064020 -0.546217
C113  C     C_3   0.608882 0.538866 0.081738 -0.118798
H73   H     H_    0.581448 0.604803 0.115263 0.113996
H74   H     H_    0.613066 0.455730 0.113326 0.120557
H75   H     H_    0.577181 0.524480 0.032817 0.117864
O62   O     O_3   0.362178 0.436698 0.908884 -0.579020
C114  C     C_3   0.417806 0.516485 0.925577 -0.077644
H76   H     H_    0.402159 0.591751 0.960117 0.128025
H77   H     H_    0.438434 0.554698 0.875350 0.118906
H78   H     H_    0.460910 0.467398 0.950533 0.160547
O63   O     O_3   0.174909 0.086909 0.064019 -0.546211
C115  C     C_3   0.108876 0.038904 0.081738 -0.118791
H79   H     H_    0.081451 0.104856 0.115257 0.114016
H80   H     H_    0.113048 0.955773 0.113331 0.120547
H81   H     H_    0.077176 0.024520 0.032819 0.117858
O64   O     O_3   0.862178 0.936682 0.908914 -0.579010
C116  C     C_3   0.917736 0.016629 0.925550 -0.077620
H82   H     H_    0.902045 0.091874 0.960088 0.128086
H83   H     H_    0.938296 0.054850 0.875295 0.118896
H84   H     H_    0.960901 0.967685 0.950492 0.160459
O65   O     O_3   0.845378 0.274926 0.066680 -0.574358
C117  C     C_3   0.915314 0.306115 0.084042 -0.102837
H85   H     H_    0.927880 0.402956 0.080958 0.138153
H86   H     H_    0.950310 0.255414 0.049768 0.066989
H87   H     H_    0.926207 0.277452 0.139233 0.134576
O66   O     O_3   0.118080 0.382856 0.945522 -0.579301
C118  C     C_3   0.088084 0.276592 0.971248 -0.128027
H88   H     H_    0.053759 0.294495 0.016246 0.084212
H89   H     H_    0.127635 0.214793 0.987343 0.240377
H90   H     H_    0.055709 0.234150 0.928683 0.132039
O67   O     O_3   0.345346 0.774880 0.066708 -0.574330
C119  C     C_3   0.415288 0.806054 0.084043 -0.102866
H91   H     H_    0.427856 0.902894 0.080971 0.138169
H92   H     H_    0.450263 0.755365 0.049748 0.067031
H93   H     H_    0.426201 0.777370 0.139221 0.134528
O68   O     O_3   0.618073 0.882825 0.945505 -0.579282
C120  C     C_3   0.588064 0.776565 0.971225 -0.128037
H94   H     H_    0.553682 0.794496 0.016177 0.084149
H95   H     H_    0.627606 0.714792 0.987381 0.240370
H96   H     H_    0.555736 0.734082 0.928633 0.132105
C121  C     C_3   0.882348 0.341499 0.920183 -0.341285
H97   H     H_    0.892374 0.403311 0.875216 0.128341
H98   H     H_    0.928135 0.348766 0.954285 0.100129
H99   H     H_    0.879527 0.249062 0.900050 0.164586
C122  C     C_3   0.130890 0.457364 0.098407 -0.343620
H100  H     H_    0.102769 0.534010 0.077355 0.121162
H101  H     H_    0.150460 0.489309 0.150994 0.125399
H102  H     H_    0.095393 0.380388 0.108811 0.139795
C123  C     C_3   0.382318 0.841396 0.920214 -0.341261
H103  H     H_    0.392340 0.903098 0.875198 0.128392
H104  H     H_    0.428083 0.848799 0.954306 0.100100
H105  H     H_    0.379518 0.748926 0.900167 0.164604
C124  C     C_3   0.630846 0.957183 0.098413 -0.343612
H106  H     H_    0.602651 0.033762 0.077371 0.121178
H107  H     H_    0.650400 0.989180 0.150995 0.125412
H108  H     H_    0.595419 0.880099 0.108822 0.139846
C125  C     C_3   0.421193 0.349493 0.597893 -0.374543
H109  H     H_    0.451772 0.433481 0.607089 0.149826
H110  H     H_    0.370431 0.367421 0.572331 0.128744
H111  H     H_    0.408913 0.309595 0.650470 0.133442
C126  C     C_3   0.461338 0.408275 0.450068 -0.343607
H112  H     H_    0.505063 0.430716 0.413506 0.139832
H113  H     H_    0.410772 0.415339 0.422806 0.221811
H114  H     H_    0.464219 0.477702 0.492168 0.114694
C127  C     C_3   0.921196 0.849499 0.597892 -0.374545
H115  H     H_    0.951775 0.933487 0.607086 0.149824
H116  H     H_    0.870434 0.867426 0.572329 0.128745
H117  H     H_    0.908915 0.809602 0.650469 0.133437
C128  C     C_3   0.961344 0.908277 0.450067 -0.343611
H118  H     H_    0.005069 0.930714 0.413503 0.139831
H119  H     H_    0.910778 0.915346 0.422807 0.221809
H120  H     H_    0.964230 0.977704 0.492167 0.114692

loop_
_geom_bond_atom_site_label_1
_geom_bond_atom_site_label_2
_ccdc_geom_bond_type
C27   C127  S    
C55   C59   A    
C121  H98   S    
C106  H52   S    
C32   C75   S    
C72   O52   A    
C106  H54   S    
C122  H100  S    
O66   C118  S    
C71   O47   A    
C80   O16   A    
Cr7   O27   S    
C38   H10   S    
C96   H24   S    
C29   C33   A    
C116  H84   S    
C82   H1    S    
C100  H35   S    
C9    C13   A    
C11   C15   A    
C12   C16   A    
O64   C116  S    
C15   O67   S    
C8    C92   A    
C47   C83   S    
C81   C86   D    
C99   H31   S    
C92   O60   S    
C83   C88   D    
C70   O46   A    
C41   C49   A    
C107  H55   S    
C111  H68   S    
Cr7   O51   S    
C96   H23   S    
C109  H62   S    
C2    O22   A    
C119  H93   S    
C3    O27   A    
C45   O33   A    
Cr8   O28   S    
Cr3   O3    S    
C104  H46   S    
C17   C21   A    
Cr8   O8    S    
C126  H114  S    
C19   C23   A    
Cr3   O47   S    
C87   C95   S    
O55   C107  S    
Cr12  O12   S    
Cr1   O45   S    
C16   C20   A    
C54   C102  S    
C77   O13   A    
Cr2   O18   S    
C115  H80   S    
C73   O5    A    
C59   C63   A    
C122  H102  S    
C114  H77   S    
Cr7   O31   S    
Cr5   O29   S    
C45   C81   S    
Cr10  O14   S    
C125  H111  S    
C4    O28   A    
C57   C61   A    
Cr9   O17   S    
C82   C85   D    
Cr3   O23   S    
C60   C64   A    
Cr12  O36   S    
C25   C26   A    
C31   C76   S    
C46   O30   A    
C49   C53   A    
C51   C55   A    
C80   O44   A    
C127  H115  S    
C107  H57   S    
C5    C89   A    
O60   C112  S    
C38   C62   A    
C98   H30   S    
Cr5   O17   S    
C88   C96   S    
C85   C86   S    
C25   C125  S    
C45   O29   A    
C32   C36   A    
Cr1   O17   S    
C112  H70   S    
C125  H110  S    
C84   H3    S    
O61   C113  S    
C23   C67   S    
C128  H119  S    
Cr5   O5    S    
C46   C82   S    
C78   O42   A    
C61   C77   S    
C20   C124  S    
C123  H104  S    
Cr9   O9    S    
Cr11  O11   S    
C108  H58   S    
C123  H105  S    
C71   O51   A    
O65   C117  S    
Cr6   O26   S    
C118  H90   S    
C93   H14   S    
C98   H28   S    
C1    C12   S    
Cr1   O1    S    
C2    C11   S    
C24   C92   A    
C116  H82   S    
C94   H17   S    
C47   O31   A    
C30   C34   A    
C76   O8    A    
C10   C14   A    
C29   C74   S    
O53   C105  S    
C6    C90   A    
Cr4   O48   S    
C119  H92   S    
C5    C9    A    
C120  H94   S    
C105  H50   S    
C28   C128  S    
C8    C12   A    
C127  H117  S    
C79   O15   A    
C5    O61   S    
C103  H43   S    
C6    O62   S    
C7    O63   S    
Cr6   O50   S    
C42   C50   A    
C95   H19   S    
C90   O58   S    
C2    O26   A    
C3    O23   A    
C1    O21   A    
C105  H51   S    
Cr6   O6    S    
C110  H66   S    
Cr12  O20   S    
C46   O34   A    
C18   C22   A    
C62   C78   S    
Cr10  O10   S    
Cr4   O24   S    
C112  H72   S    
O63   C115  S    
C106  H53   S    
O62   C114  S    
C101  H37   S    
C13   C17   A    
C43   C99   S    
C113  H73   S    
C78   O14   A    
C8    O64   S    
C68   O4    A    
Cr2   O2    S    
C73   O9    A    
C93   H15   S    
C23   C91   A    
C37   C41   A    
C100  H34   S    
C108  H60   S    
C69   O49   A    
C94   H16   S    
C40   C44   A    
C118  H88   S    
C17   C121  S    
C65   O1    A    
C117  H85   S    
C102  H42   S    
C4    C9    S    
C67   O3    A    
Cr8   O20   S    
C53   C101  S    
C58   C62   A    
C87   C88   S    
C19   C123  S    
C35   C36   A    
C97   H26   S    
C107  H56   S    
C114  H76   S    
Cr4   O20   S    
C21   C89   A    
C96   H22   S    
C15   C19   A    
C109  H63   S    
C50   C54   A    
C120  H96   S    
C79   O43   A    
C94   H18   S    
C37   H9    S    
C110  H64   S    
C18   C122  S    
C103  H45   S    
C83   H4    S    
C67   O39   A    
C93   H13   S    
C126  H113  S    
C52   C69   S    
C117  H87   S    
C36   H8    S    
C59   O55   S    
Cr10  O38   S    
Cr11  O35   S    
C104  H47   S    
Cr2   O42   S    
C64   C80   S    
C101  H38   S    
C122  H101  S    
C91   O59   S    
C89   O57   S    
C110  H65   S    
C66   O38   A    
C53   C57   A    
C124  H106  S    
C56   C60   A    
C100  H36   S    
C50   C71   S    
O67   C119  S    
C7    C91   A    
O58   C110  S    
C22   C90   A    
Cr7   O19   S    
Cr5   O25   S    
Cr10  O34   S    
Cr11  O39   S    
C74   O6    A    
C47   O35   A    
C48   O36   A    
Cr2   O22   S    
Cr3   O43   S    
C111  H67   S    
C104  H48   S    
C25   C30   A    
C109  H61   S    
C21   C65   S    
C27   C32   A    
C60   O56   S    
C28   C31   A    
C6    C10   A    
C97   H25   S    
C86   C94   S    
C99   H33   S    
C42   C98   S    
C43   C51   A    
C125  H109  S    
C57   O53   S    
Cr5   O49   S    
O56   C108  S    
C128  H118  S    
C85   C93   S    
C1    O25   A    
C24   C68   S    
C115  H79   S    
C123  H103  S    
Cr12  O16   S    
C34   H6    S    
C114  H78   S    
C118  H89   S    
C121  H97   S    
C14   C18   A    
C84   C87   D    
C58   O54   S    
C13   O65   S    
C63   C79   S    
C102  H40   S    
C14   O66   S    
C7    C11   A    
C75   O7    A    
O68   C120  S    
C69   O45   A    
C38   C42   A    
C70   O50   A    
C55   C103  S    
C98   H29   S    
Cr11  O19   S    
C22   C66   S    
C116  H83   S    
C20   C24   A    
C99   H32   S    
C49   C72   S    
C65   O37   A    
C51   C70   S    
Cr2   O46   S    
C75   O11   A    
C111  H69   S    
C44   C100  S    
C16   O68   S    
C126  H112  S    
C72   O48   A    
C112  H71   S    
C30   C73   S    
C97   H27   S    
C39   C43   A    
C121  H99   S    
Cr6   O30   S    
C127  H116  S    
C48   C84   S    
C128  H120  S    
C113  H74   S    
Cr10  O18   S    
C4    O24   A    
C115  H81   S    
Cr9   O37   S    
C95   H21   S    
Cr3   O19   S    
C33   C34   A    
C41   C97   S    
Cr12  O40   S    
Cr1   O41   S    
C108  H59   S    
C56   C104  S    
Cr4   O44   S    
C26   C126  S    
C74   O10   A    
C101  H39   S    
C117  H86   S    
C113  H75   S    
C33   H5    S    
C35   H7    S    
Cr7   O7    S    
C54   C58   A    
C124  H108  S    
C81   H2    S    
Cr4   O4    S    
C68   O40   A    
C37   C61   A    
O59   C111  S    
C39   C63   A    
Cr6   O18   S    
C39   H11   S    
C40   C64   A    
Cr8   O52   S    
C119  H91   S    
C120  H95   S    
C3    C10   S    
C44   C52   A    
C105  H49   S    
C40   H12   S    
C124  H107  S    
Cr11  O15   S    
Cr8   O32   S    
C76   O12   A    
C48   O32   A    
Cr9   O33   S    
C103  H44   S    
C95   H20   S    
C31   C35   A    
O54   C106  S    
Cr1   O21   S    
C26   C29   A    
C66   O2    A    
C77   O41   A    
C27   C28   A    
O57   C109  S    
C102  H41   S    
C52   C56   A    
Cr9   O13   S    
