data_mof_unit_33276.cif
_audit_creation_date              2012-12-11T15:10:43-0500
_audit_creation_method            fapswitch 2.2
_symmetry_space_group_name_H-M    P1
_symmetry_Int_Tables_number       1
_space_group_crystal_system       triclinic
_cell_length_a                    21.137901
_cell_length_b                    7.236574
_cell_length_c                    18.238514
_cell_angle_alpha                 89.994417
_cell_angle_beta                  93.433295
_cell_angle_gamma                 89.997289
_cell_volume                      2784.86496411

loop_
_atom_site_label
_atom_site_type_symbol
_atom_type_description
_atom_site_fract_x
_atom_site_fract_y
_atom_site_fract_z
_atom_type_partial_charge
O1    O     O_R   0.448880 0.506250 0.415280 -0.530183
O2    O     O_R   0.551120 0.006250 0.584720 -0.530189
O3    O     O_R   0.434830 0.174000 0.557310 -0.522975
O4    O     O_R   0.565170 0.674000 0.442690 -0.522945
C1    C     C_R   0.417018 0.344576 0.579686 0.699450
C2    C     C_R   0.582982 0.844580 0.420314 0.699433
O5    O     O_R   0.441680 0.176440 0.414130 -0.524043
O6    O     O_R   0.558320 0.676440 0.585870 -0.524021
O7    O     O_R   0.558020 0.007570 0.440520 -0.510714
O8    O     O_R   0.441980 0.507570 0.559480 -0.510683
C3    C     C_R   0.428244 0.344796 0.388086 0.776173
C4    C     C_R   0.571758 0.844776 0.611913 0.776152
O9    O     O_3   0.538160 0.339670 0.508820 -0.369489
O10   O     O_3   0.461840 0.839670 0.491180 -0.369500
V1    V     V_3+5 0.492920 0.064260 0.498360 1.507449
V2    V     V_3+5 0.507080 0.564260 0.501640 1.507548
C5    C     C_R   0.876523 0.978693 0.687167 0.443890
C6    C     C_R   0.123393 0.477339 0.312882 0.444277
H1    H     H_    0.963682 0.012887 0.752421 0.129508
H2    H     H_    0.036221 0.511420 0.247641 0.129604
H3    H     H_    0.793584 0.986347 0.570142 0.150065
H4    H     H_    0.206331 0.485035 0.429918 0.150031
C7    C     C_R   0.887105 0.942243 0.819592 -0.111904
C8    C     C_R   0.112889 0.442094 0.180406 -0.111905
C9    C     C_R   0.581717 0.812184 0.747517 0.308740
C10   C     C_R   0.418307 0.312526 0.252473 0.308669
C11   C     C_R   0.617014 0.810147 0.814815 0.426929
C12   C     C_R   0.383013 0.310530 0.185173 0.426870
C13   C     C_R   0.682709 0.837704 0.817205 -0.333148
C14   C     C_R   0.317313 0.337998 0.182782 -0.333075
C15   C     C_R   0.714572 0.877213 0.753078 0.060157
C16   C     C_R   0.285434 0.377285 0.246917 0.060129
C17   C     C_R   0.677681 0.884813 0.684684 0.015390
C18   C     C_R   0.322311 0.384709 0.315322 0.015402
C19   C     C_R   0.781867 0.908512 0.754667 0.071451
C20   C     C_R   0.218127 0.408388 0.245333 0.071477
C21   C     C_R   0.810435 0.947199 0.687573 0.018693
C22   C     C_R   0.189516 0.446406 0.312459 0.018565
C23   C     C_R   0.772860 0.955403 0.621618 -0.181018
C24   C     C_R   0.227082 0.454490 0.378423 -0.181296
C25   C     C_R   0.707995 0.924170 0.620101 -0.157800
C26   C     C_R   0.291970 0.423646 0.379923 -0.157710
C27   C     C_R   0.821899 0.904937 0.820453 -0.221119
C28   C     C_R   0.178123 0.405220 0.179526 -0.221091
C29   C     C_R   0.913618 0.981141 0.753155 -0.227172
C30   C     C_R   0.086318 0.480132 0.246882 -0.227332
C31   C     C_R   0.611199 0.850508 0.682085 -0.237963
C32   C     C_R   0.388807 0.350601 0.317914 -0.237928
H5    H     H_    0.803974 0.877636 0.873428 0.110824
H6    H     H_    0.196089 0.378574 0.126523 0.110756
H7    H     H_    0.707336 0.825455 0.870341 0.142331
H8    H     H_    0.292689 0.325726 0.129646 0.142388
H9    H     H_    0.681677 0.931462 0.567396 0.094147
H10   H     H_    0.318280 0.430818 0.432636 0.094055
C33   C     C_1   0.864588 0.938966 0.132166 -0.204849
C34   C     C_1   0.135413 0.438978 0.867834 -0.204848
C35   C     C_1   0.821740 0.924941 0.175948 0.003136
C36   C     C_1   0.178260 0.424951 0.824052 0.003117
C37   C     C_1   0.771179 0.905839 0.228069 0.007068
C38   C     C_1   0.228821 0.405842 0.771932 0.007044
C39   C     C_1   0.728600 0.889199 0.272062 0.014288
C40   C     C_1   0.271400 0.389194 0.727938 0.014267
C41   C     C_1   0.678049 0.870050 0.324188 0.031243
C42   C     C_1   0.321951 0.370038 0.675812 0.031224
C43   C     C_1   0.635212 0.855960 0.367973 -0.150707
C44   C     C_1   0.364788 0.355948 0.632027 -0.150719
O11   O     O_R   0.058070 0.289240 0.940580 -0.520095
O12   O     O_R   0.941930 0.789240 0.059420 -0.520097
O13   O     O_R   0.058330 0.616740 0.085880 -0.531355
O14   O     O_R   0.941670 0.116740 0.914120 -0.531359
C45   C     C_R   0.072049 0.448721 0.111780 0.711486
C46   C     C_R   0.927950 0.948746 0.888219 0.711479
O15   O     O_R   0.065180 0.619040 0.942700 -0.522565
O16   O     O_R   0.934820 0.119040 0.057300 -0.522561
O17   O     O_R   0.948870 0.787780 0.915270 -0.529813
O18   O     O_R   0.051130 0.287780 0.084730 -0.529829
C47   C     C_R   0.083171 0.450331 0.920180 0.704693
C48   C     C_R   0.916829 0.950327 0.079820 0.704677
O19   O     O_3   0.961870 0.453310 0.991210 -0.365817
O20   O     O_3   0.038130 0.953310 0.008790 -0.365823
V3    V     V_3+5 0.007070 0.728770 0.001630 1.418992
V4    V     V_3+5 0.992930 0.228770 0.998370 1.419000
O21   O     O_3   0.904880 0.020932 0.622765 -0.561886
C49   C     C_3   0.921576 0.855879 0.586892 0.073964
H11   H     H_    0.915324 0.879957 0.526756 0.145422
H12   H     H_    0.891072 0.734818 0.598902 0.112432
C50   C     C_3   0.990989 0.808365 0.605303 -0.719318
H13   H     H_    0.998391 0.770403 0.664145 0.208790
H14   H     H_    0.004918 0.689157 0.571467 0.193485
H15   H     H_    0.021496 0.928425 0.593503 0.229145
O22   O     O_3   0.094956 0.518657 0.377324 -0.561982
C51   C     C_3   0.078593 0.353074 0.413058 0.073791
H16   H     H_    0.084372 0.377273 0.473216 0.145617
H17   H     H_    0.109635 0.233005 0.401338 0.112465
C52   C     C_3   0.009443 0.303424 0.394072 -0.719607
H18   H     H_    0.002567 0.265014 0.335229 0.208781
H19   H     H_    0.995708 0.183924 0.427876 0.193422
H20   H     H_    0.978414 0.422600 0.405482 0.229349
Cl1   Cl    Cl    0.499457 0.767523 0.746587 -0.624187
Cl2   Cl    Cl    0.500578 0.268019 0.253403 -0.624241
O23   O     O_3   0.587400 0.765534 0.878095 -0.527073
C53   C     C_3   0.583077 0.925668 0.921787 0.122915
H21   H     H_    0.560951 0.042490 0.889606 0.139490
H22   H     H_    0.630768 0.968169 0.944974 0.108233
C54   C     C_3   0.541838 0.884132 0.985339 -0.641089
H23   H     H_    0.561864 0.766132 0.018050 0.224190
H24   H     H_    0.539803 0.007014 0.021552 0.193276
H25   H     H_    0.493001 0.849078 0.964003 0.228959
O24   O     O_3   0.412624 0.265895 0.121897 -0.527081
C55   C     C_3   0.416999 0.426050 0.078219 0.122838
H26   H     H_    0.439256 0.542669 0.110388 0.139648
H27   H     H_    0.369313 0.468902 0.055125 0.108181
C56   C     C_3   0.458118 0.384316 0.014579 -0.641012
H28   H     H_    0.437954 0.266507 0.981876 0.224193
H29   H     H_    0.460204 0.507228 0.978382 0.193319
H30   H     H_    0.506950 0.348881 0.035822 0.228943

loop_
_geom_bond_atom_site_label_1
_geom_bond_atom_site_label_2
_ccdc_geom_bond_type
C14   C16   A    
C50   H13   S    
C41   C43   T    
O23   C53   S    
C7    C29   A    
C11   C13   A    
C52   H18   S    
O11   C47   A    
C49   C50   S    
O2    C4    A    
C2    O7    A    
C52   H20   S    
C23   C25   A    
O5    C3    A    
C54   H24   S    
O12   V3    S    
C16   C20   A    
C19   C21   A    
C49   H12   S    
C46   O17   A    
C45   O18   A    
C35   C37   S    
C36   C38   S    
H2    C30   S    
C7    C27   A    
C53   C54   S    
C38   C40   T    
C39   C41   S    
C55   H26   S    
C40   C42   S    
C16   C18   A    
C9    Cl1   S    
C2    C43   S    
C18   C26   A    
O1    C3    A    
C15   C17   A    
C19   C27   A    
C9    C31   A    
C10   C32   A    
C56   H30   S    
C24   C26   A    
O6    V2    S    
C3    C32   S    
O16   V4    S    
C4    C31   S    
C6    C30   A    
O15   V3    S    
O12   C48   A    
C54   H25   S    
C37   C39   T    
O13   C45   A    
C49   H11   S    
O4    C2    A    
O18   V4    S    
O22   C51   S    
C33   C48   S    
C27   H5    S    
C11   O23   S    
C51   C52   S    
C34   C47   S    
C5    O21   S    
C42   C44   T    
O4    V2    S    
O21   C49   S    
H3    C23   S    
O6    C4    A    
H4    C24   S    
H1    C29   S    
O1    V2    S    
C5    C21   A    
C53   H22   S    
O2    V1    S    
C55   C56   S    
C25   H9    S    
C33   C35   T    
C17   C31   A    
C15   C19   A    
C20   C28   A    
C18   C32   A    
C6    O22   S    
C20   C22   A    
O3    V1    S    
C56   H28   S    
C13   H7    S    
C28   H6    S    
C14   H8    S    
C7    C46   S    
O17   V3    S    
C5    C29   A    
O20   V3    S    
O3    C1    A    
O19   V4    S    
C52   H19   S    
O9    V2    S    
C12   O24   S    
C9    C11   A    
C54   H23   S    
C10   C12   A    
C8    C30   A    
C12   C14   A    
C6    C22   A    
C17   C25   A    
C1    O8    A    
C13   C15   A    
O8    V2    S    
O24   C55   S    
C1    C44   S    
C22   C24   A    
C51   H17   S    
C8    C28   A    
O5    V1    S    
C51   H16   S    
C34   C36   T    
O7    V1    S    
C53   H21   S    
O14   V4    S    
C55   H27   S    
O13   V3    S    
O11   V4    S    
C21   C23   A    
O16   C48   A    
C50   H15   S    
C50   H14   S    
O15   C47   A    
O10   V1    S    
O14   C46   A    
C26   H10   S    
C8    C45   S    
C10   Cl2   S    
C56   H29   S    
