data_mof_unit_40275.cif
_audit_creation_date              2012-12-10T19:09:34-0500
_audit_creation_method            fapswitch 2.2
_symmetry_space_group_name_H-M    P1
_symmetry_Int_Tables_number       1
_space_group_crystal_system       triclinic
_cell_length_a                    9.544397
_cell_length_b                    10.888723
_cell_length_c                    17.103897
_cell_angle_alpha                 88.797184
_cell_angle_beta                  93.995589
_cell_angle_gamma                 91.1294
_cell_volume                      1772.53669795

loop_
_atom_site_label
_atom_site_type_symbol
_atom_type_description
_atom_site_fract_x
_atom_site_fract_y
_atom_site_fract_z
_atom_type_partial_charge
C1    C     C_R   0.498784 0.262901 0.500494 0.809175
C2    C     C_R   0.657067 0.527231 0.780375 0.437299
C3    C     C_R   0.581603 0.467572 0.142002 -0.155983
C4    C     C_R   0.590083 0.468971 0.223387 -0.248320
C5    C     C_R   0.453448 0.493068 0.099120 0.383334
C6    C     C_R   0.471652 0.496280 0.263407 -0.026800
C7    C     C_R   0.343249 0.518616 0.220858 -0.218217
C8    C     C_R   0.334518 0.516612 0.139260 -0.198017
C9    C     C_R   0.615524 0.066522 0.488405 0.124992
C10   C     C_R   0.496414 0.130704 0.502120 -0.110040
C11   C     C_R   0.374591 0.061854 0.517917 -0.215406
C12   C     C_R   0.517817 0.499907 0.650981 0.815183
C13   C     C_R   0.376608 0.932716 0.518338 -0.213919
C14   C     C_R   0.500338 0.870573 0.502806 -0.090996
C15   C     C_R   0.618055 0.942709 0.489089 0.075264
C16   C     C_3   0.765383 0.941587 0.465331 -0.504701
C17   C     C_3   0.762487 0.082793 0.465438 -0.029242
C18   C     C_R   0.067305 0.541414 0.435818 0.215886
C19   C     C_R   0.080554 0.447257 0.559949 -0.082053
C20   C     C_R   0.931804 0.447486 0.560037 -0.076695
C21   C     C_R   0.919337 0.540874 0.435329 0.252149
C22   C     C_3   0.916860 0.668701 0.401606 -0.101527
C23   C     C_R   0.500891 0.737580 0.500410 0.795460
C24   C     C_3   0.075525 0.666933 0.400808 -0.485144
C25   C     C_R   0.482316 0.499973 0.349178 0.792389
C26   C     C_R   0.528243 0.501870 0.737182 -0.122563
C27   C     C_R   0.406459 0.479160 0.777112 -0.314389
C28   C     C_R   0.412189 0.478261 0.858435 -0.162225
C29   C     C_R   0.540968 0.499041 0.901839 0.329477
C30   C     C_R   0.662437 0.521157 0.862468 -0.295295
Cu1   Cu    Cu3+1 0.640670 0.499980 0.500000 0.937988
Cu2   Cu    Cu3+1 0.359330 0.500020 0.500000 0.936591
H1    H     H_    0.689197 0.447755 0.254951 0.159280
H2    H     H_    0.281388 0.882273 0.530467 0.158276
H3    H     H_    0.839137 0.902947 0.512220 0.176876
H4    H     H_    0.770586 0.903548 0.405870 0.215211
H5    H     H_    0.833582 0.124849 0.512194 0.165792
H6    H     H_    0.141157 0.406019 0.609063 0.139339
H7    H     H_    0.881502 0.406539 0.609207 0.174072
H8    H     H_    0.880984 0.732862 0.444431 0.181324
H9    H     H_    0.116184 0.666379 0.341469 0.195398
H10   H     H_    0.675106 0.446142 0.112975 0.150373
H11   H     H_    0.128648 0.734412 0.441272 0.194970
H12   H     H_    0.761977 0.534913 0.895895 0.146037
H13   H     H_    0.249941 0.538606 0.250468 0.150970
H14   H     H_    0.316114 0.459548 0.887008 0.163980
H15   H     H_    0.235159 0.535058 0.107046 0.137568
H16   H     H_    0.306192 0.460704 0.745504 0.178367
H17   H     H_    0.278434 0.107023 0.529764 0.163185
N1    N     N_2   0.553770 0.497165 0.984882 -0.254119
N2    N     N_2   0.439520 0.495100 0.016075 -0.264290
N3    N     N_R   0.147870 0.500930 0.499500 -0.184522
N4    N     N_R   0.851960 0.500890 0.499500 -0.210375
O1    O     O_R   0.618810 0.319640 0.500000 -0.587257
O2    O     O_R   0.381230 0.319680 0.499990 -0.582939
O3    O     O_R   0.631790 0.498830 0.613930 -0.546220
O4    O     O_R   0.394210 0.498870 0.613920 -0.596545
O5    O     O_R   0.618770 0.680320 0.500010 -0.591106
O6    O     O_R   0.381190 0.680360 0.500000 -0.586316
O7    O     O_R   0.605790 0.501130 0.386080 -0.587082
O8    O     O_R   0.368210 0.501170 0.386070 -0.580188
C31   C     C_3   0.772869 0.142450 0.384064 -0.819324
H18   H     H_    0.692823 0.103082 0.340822 0.236226
H19   H     H_    0.757452 0.242937 0.386733 0.250249
H20   H     H_    0.878945 0.127062 0.363724 0.231177
C32   C     C_3   0.842593 0.680787 0.319729 -0.827468
H21   H     H_    0.727307 0.681332 0.323846 0.252892
H22   H     H_    0.874061 0.769402 0.292160 0.232247
H23   H     H_    0.870759 0.604757 0.281796 0.228885
O9    O     O_3   0.779473 0.548273 0.742601 -0.608486
C33   C     C_3   0.827192 0.671473 0.752344 0.039744
H24   H     H_    0.942983 0.673145 0.748693 0.164363
H25   H     H_    0.807864 0.709118 0.810683 0.129308
C34   C     C_3   0.762192 0.754583 0.686599 -0.317714
H26   H     H_    0.790950 0.720909 0.629081 0.244548
H27   H     H_    0.645895 0.751787 0.687603 0.201900
C35   C     C_3   0.813945 0.887348 0.695658 -0.948294
H28   H     H_    0.788225 0.922628 0.753314 0.263175
H29   H     H_    0.761744 0.945900 0.648847 0.259896
H30   H     H_    0.929335 0.893674 0.690850 0.252961

loop_
_geom_bond_atom_site_label_1
_geom_bond_atom_site_label_2
_ccdc_geom_bond_type
C27   H16   S    
Cu1   O7    S    
C23   O5    A    
C32   H22   S    
C3    H10   S    
C18   C21   A    
C19   C20   A    
C18   N3    A    
C7    C8    A    
C35   H28   S    
C23   O6    A    
C28   H14   S    
C26   C27   A    
C29   C30   A    
C34   H27   S    
C18   C24   S    
C7    H13   S    
Cu1   O5    S    
C21   C22   S    
C28   C29   A    
Cu2   O8    S    
C16   H3    S    
C6    C25   S    
C15   C16   S    
Cu2   N3    S    
C31   H19   S    
C19   N3    A    
C22   C32   S    
C16   C17   S    
C34   C35   S    
O9    C33   S    
C25   O7    A    
Cu1   O3    S    
C9    C10   A    
Cu2   O2    S    
C32   H21   S    
C13   C14   A    
C24   H9    S    
C30   H12   S    
Cu2   O4    S    
C29   N1    S    
C35   H29   S    
C34   H26   S    
C4    C6    A    
C33   H25   S    
C20   H7    S    
C17   H5    S    
C12   C26   S    
C14   C23   S    
C1    O1    A    
C31   H18   S    
C11   H17   S    
C19   H6    S    
C17   C31   S    
C5    C8    A    
Cu1   Cu2   S    
C22   H8    S    
N1    N2    D    
C2    C26   A    
C25   O8    A    
Cu1   N4    S    
C12   O3    A    
C12   O4    A    
C9    C17   S    
C22   C24   S    
C3    C4    A    
C35   H30   S    
C4    H1    S    
C31   H20   S    
C1    C10   S    
C20   N4    A    
C3    C5    A    
C33   C34   S    
C6    C7    A    
C2    C30   A    
C9    C15   A    
C8    H15   S    
C13   H2    S    
C16   H4    S    
C21   N4    A    
C11   C13   A    
Cu1   O1    S    
C1    O2    A    
C10   C11   A    
C32   H23   S    
C33   H24   S    
C27   C28   A    
C24   H11   S    
C14   C15   A    
C5    N2    S    
Cu2   O6    S    
C2    O9    S    
