data_mof_unit_15885.cif
_audit_creation_date              2012-10-26T18:09:26-0400
_audit_creation_method            fapswitch 2.2
_symmetry_space_group_name_H-M    P1
_symmetry_Int_Tables_number       1
_space_group_crystal_system       triclinic
_cell_length_a                    21.885641
_cell_length_b                    21.885641
_cell_length_c                    21.885641
_cell_angle_alpha                 90.000027
_cell_angle_beta                  90.000027
_cell_angle_gamma                 90.0
_cell_volume                      10482.8123832

loop_
_atom_site_label
_atom_site_type_symbol
_atom_type_description
_atom_site_fract_x
_atom_site_fract_y
_atom_site_fract_z
_atom_type_partial_charge
C1    C     C_R   0.500000 0.118669 0.000000 0.721422
C2    C     C_R   0.500000 0.000000 0.881331 0.721423
C3    C     C_R   0.280125 0.374258 0.113554 -0.146567
C4    C     C_R   0.886445 0.625742 0.719875 -0.146567
C5    C     C_R   0.719875 0.625742 0.113555 -0.146567
C6    C     C_R   0.113554 0.625742 0.280125 -0.146567
C7    C     C_R   0.280125 0.625741 0.886445 -0.146567
C8    C     C_R   0.625742 0.719875 0.886445 -0.146567
C9    C     C_R   0.625742 0.113555 0.719875 -0.146567
C10   C     C_R   0.625742 0.280125 0.113555 -0.146567
C11   C     C_R   0.625742 0.886445 0.280125 -0.146567
C12   C     C_R   0.374258 0.280125 0.886445 -0.146567
C13   C     C_R   1.000000 0.500000 0.118669 0.721422
C14   C     C_R   0.374258 0.886445 0.719875 -0.146567
C15   C     C_R   0.374258 0.719875 0.113555 -0.146567
C16   C     C_R   0.374258 0.113555 0.280125 -0.146567
C17   C     C_R   0.280125 0.113555 0.625742 -0.146567
C18   C     C_R   0.886445 0.280125 0.625742 -0.146567
C19   C     C_R   0.719875 0.886445 0.625741 -0.146567
C20   C     C_R   0.113555 0.719875 0.625742 -0.146567
C21   C     C_R   0.719875 0.113555 0.374258 -0.146567
C22   C     C_R   0.113555 0.280125 0.374258 -0.146567
C23   C     C_R   0.280125 0.886445 0.374258 -0.146567
C24   C     C_R   0.500000 0.000000 0.118669 0.721422
C25   C     C_R   0.886445 0.719875 0.374258 -0.146567
C26   C     C_R   0.456859 0.962681 0.717820 -0.024150
C27   C     C_R   0.282180 0.962681 0.456859 -0.024150
C28   C     C_R   0.543141 0.962681 0.282180 -0.024150
C29   C     C_R   0.717820 0.962681 0.543141 -0.024150
C30   C     C_R   0.456859 0.037318 0.282180 -0.024150
C31   C     C_R   0.282180 0.037319 0.543141 -0.024150
C32   C     C_R   0.543141 0.037319 0.717820 -0.024150
C33   C     C_R   0.717820 0.037318 0.456859 -0.024150
C34   C     C_R   0.037318 0.282180 0.456859 -0.024150
C35   C     C_R   0.000000 0.618669 0.500000 0.721422
C36   C     C_R   0.037319 0.543141 0.282180 -0.024150
C37   C     C_R   0.037319 0.717820 0.543141 -0.024150
C38   C     C_R   0.037319 0.456859 0.717820 -0.024150
C39   C     C_R   0.962681 0.717820 0.456859 -0.024150
C40   C     C_R   0.962681 0.456859 0.282180 -0.024150
C41   C     C_R   0.962681 0.282180 0.543141 -0.024150
C42   C     C_R   0.962681 0.543141 0.717820 -0.024150
C43   C     C_R   0.717820 0.543141 0.037318 -0.024150
C44   C     C_R   0.456859 0.717820 0.037318 -0.024150
C45   C     C_R   0.282180 0.456859 0.037318 -0.024150
C46   C     C_R   0.500000 0.618669 0.000000 0.721422
C47   C     C_R   0.543141 0.282180 0.037318 -0.024150
C48   C     C_R   0.282180 0.543141 0.962681 -0.024150
C49   C     C_R   0.543141 0.717820 0.962681 -0.024150
C50   C     C_R   0.717820 0.456859 0.962681 -0.024150
C51   C     C_R   0.456859 0.282180 0.962681 -0.024150
C52   C     C_R   0.956859 0.462681 0.217820 -0.024150
C53   C     C_R   0.782180 0.462681 0.956859 -0.024150
C54   C     C_R   0.043141 0.462681 0.782180 -0.024150
C55   C     C_R   0.217820 0.462681 0.043140 -0.024150
C56   C     C_R   0.956859 0.537319 0.782180 -0.024150
C57   C     C_R   0.000000 0.381331 0.500000 0.721423
C58   C     C_R   0.782180 0.537319 0.043141 -0.024150
C59   C     C_R   0.043141 0.537319 0.217820 -0.024150
C60   C     C_R   0.217820 0.537318 0.956859 -0.024150
C61   C     C_R   0.537319 0.782180 0.956859 -0.024150
C62   C     C_R   0.537319 0.043141 0.782180 -0.024150
C63   C     C_R   0.537319 0.217820 0.043141 -0.024150
C64   C     C_R   0.537319 0.956859 0.217820 -0.024150
C65   C     C_R   0.462681 0.217820 0.956859 -0.024150
C66   C     C_R   0.462681 0.956859 0.782180 -0.024150
C67   C     C_R   0.462681 0.782180 0.043141 -0.024150
C68   C     C_R   0.500000 0.381331 1.000000 0.721422
C69   C     C_R   0.462681 0.043141 0.217820 -0.024150
C70   C     C_R   0.217820 0.043141 0.537319 -0.024150
C71   C     C_R   0.956859 0.217820 0.537319 -0.024150
C72   C     C_R   0.782180 0.956859 0.537318 -0.024150
C73   C     C_R   0.043141 0.782180 0.537319 -0.024150
C74   C     C_R   0.782180 0.043141 0.462681 -0.024150
C75   C     C_R   0.043141 0.217820 0.462682 -0.024150
C76   C     C_R   0.217820 0.956859 0.462681 -0.024150
C77   C     C_R   0.956859 0.782180 0.462681 -0.024150
C78   C     C_R   0.500000 0.000000 0.685709 -0.006389
C79   C     C_R   0.381331 0.500000 1.000000 0.721422
C80   C     C_R   0.314290 0.000000 0.500000 -0.006389
C81   C     C_R   0.500000 1.000000 0.314290 -0.006389
C82   C     C_R   0.685709 0.000000 0.500000 -0.006389
C83   C     C_R   1.000000 0.314290 0.500000 -0.006389
C84   C     C_R   1.000000 0.500000 0.314290 -0.006389
C85   C     C_R   0.000000 0.685709 0.500000 -0.006389
C86   C     C_R   0.000000 0.500000 0.685709 -0.006389
C87   C     C_R   0.685709 0.500000 0.000000 -0.006389
C88   C     C_R   0.500000 0.685709 0.000000 -0.006389
C89   C     C_R   0.314290 0.500000 1.000000 -0.006389
C90   C     C_R   0.381331 0.000000 0.500000 0.721423
C91   C     C_R   0.500000 0.314290 1.000000 -0.006389
C92   C     C_R   1.000000 0.500000 0.185709 -0.006389
C93   C     C_R   0.814290 0.500000 0.000000 -0.006389
C94   C     C_R   1.000000 0.500000 0.814290 -0.006389
C95   C     C_R   0.185709 0.500000 1.000000 -0.006389
C96   C     C_R   0.500000 0.814290 0.000000 -0.006389
C97   C     C_R   0.500000 0.000000 0.814290 -0.006389
C98   C     C_R   0.500000 0.185709 0.000000 -0.006389
C99   C     C_R   0.500000 0.000000 0.185709 -0.006389
C100  C     C_R   0.185710 1.000000 0.500000 -0.006389
C101  C     C_R   0.618669 0.500000 0.000000 0.721422
C102  C     C_R   1.000000 0.185710 0.500000 -0.006389
C103  C     C_R   0.814290 1.000000 0.500000 -0.006389
C104  C     C_R   1.000000 0.814290 0.500000 -0.006389
C105  C     C_R   1.000000 0.118669 0.500000 0.721422
C106  C     C_R   0.618669 0.000000 0.500000 0.721422
C107  C     C_R   0.500000 1.000000 0.381331 0.721422
C108  C     C_R   1.000000 0.500000 0.381331 0.721423
C109  C     C_R   0.500000 1.000000 0.618669 0.721422
C110  C     C_R   1.000000 0.500000 0.618669 0.721422
C111  C     C_R   0.430058 0.908232 0.812097 0.261225
C112  C     C_R   0.187903 0.908232 0.430058 0.261225
C113  C     C_R   0.569942 0.908232 0.187903 0.261225
C114  C     C_R   0.812097 0.908232 0.569941 0.261225
C115  C     C_R   0.430058 0.091768 0.187903 0.261225
C116  C     C_R   0.500000 0.881331 0.000000 0.721423
C117  C     C_R   0.187903 0.091768 0.569942 0.261225
C118  C     C_R   0.569941 0.091768 0.812097 0.261225
C119  C     C_R   0.812097 0.091768 0.430058 0.261225
C120  C     C_R   0.091768 0.187903 0.430059 0.261225
C121  C     C_R   0.091768 0.569942 0.187903 0.261225
C122  C     C_R   0.091768 0.812097 0.569941 0.261225
C123  C     C_R   0.091768 0.430058 0.812097 0.261224
C124  C     C_R   0.908232 0.812097 0.430058 0.261225
C125  C     C_R   0.908232 0.430058 0.187903 0.261225
C126  C     C_R   0.908232 0.187903 0.569942 0.261225
C127  C     C_R   0.000000 0.881331 0.500000 0.721422
C128  C     C_R   0.908232 0.569941 0.812097 0.261225
C129  C     C_R   0.812097 0.569942 0.091768 0.261225
C130  C     C_R   0.430058 0.812097 0.091768 0.261225
C131  C     C_R   0.187903 0.430058 0.091768 0.261225
C132  C     C_R   0.569942 0.187903 0.091768 0.261225
C133  C     C_R   0.187903 0.569941 0.908232 0.261225
C134  C     C_R   0.569942 0.812097 0.908232 0.261225
C135  C     C_R   0.812097 0.430058 0.908232 0.261225
C136  C     C_R   0.430058 0.187903 0.908232 0.261225
C137  C     C_R   0.930058 0.408232 0.312097 0.261225
C138  C     C_R   0.881331 0.000000 0.500000 0.721422
C139  C     C_R   0.687903 0.408232 0.930058 0.261225
C140  C     C_R   0.069942 0.408232 0.687903 0.261225
C141  C     C_R   0.312097 0.408232 0.069941 0.261225
C142  C     C_R   0.930058 0.591768 0.687903 0.261225
C143  C     C_R   0.687903 0.591768 0.069942 0.261225
C144  C     C_R   0.069942 0.591768 0.312097 0.261225
C145  C     C_R   0.312097 0.591768 0.930058 0.261225
C146  C     C_R   0.591768 0.687903 0.930058 0.261225
C147  C     C_R   0.591768 0.069942 0.687903 0.261225
C148  C     C_R   0.591768 0.312097 0.069942 0.261225
C149  C     C_R   0.881331 0.500000 0.000000 0.721423
C150  C     C_R   0.591768 0.930058 0.312097 0.261224
C151  C     C_R   0.408232 0.312097 0.930058 0.261225
C152  C     C_R   0.408232 0.930058 0.687903 0.261225
C153  C     C_R   0.408232 0.687903 0.069942 0.261225
C154  C     C_R   0.408232 0.069941 0.312097 0.261225
C155  C     C_R   0.312097 0.069942 0.591768 0.261225
C156  C     C_R   0.930058 0.312097 0.591768 0.261225
C157  C     C_R   0.687903 0.930058 0.591768 0.261225
C158  C     C_R   0.069942 0.687903 0.591768 0.261225
C159  C     C_R   0.687903 0.069942 0.408232 0.261225
C160  C     C_R   0.118669 0.000000 0.500000 0.721422
C161  C     C_R   0.069942 0.312097 0.408232 0.261225
C162  C     C_R   0.312097 0.930058 0.408232 0.261225
C163  C     C_R   0.930058 0.687903 0.408232 0.261225
C164  C     C_R   0.386445 0.874258 0.780125 -0.146567
C165  C     C_R   0.219875 0.874258 0.386445 -0.146568
C166  C     C_R   0.613555 0.874258 0.219875 -0.146567
C167  C     C_R   0.780125 0.874258 0.613554 -0.146567
C168  C     C_R   0.386445 0.125742 0.219875 -0.146567
C169  C     C_R   0.219875 0.125742 0.613555 -0.146567
C170  C     C_R   0.613555 0.125742 0.780125 -0.146567
C171  C     C_R   0.118669 0.500000 1.000000 0.721422
C172  C     C_R   0.780125 0.125742 0.386445 -0.146567
C173  C     C_R   0.125742 0.219875 0.386445 -0.146567
C174  C     C_R   0.125742 0.613555 0.219875 -0.146567
C175  C     C_R   0.125742 0.780125 0.613555 -0.146567
C176  C     C_R   0.125742 0.386445 0.780125 -0.146567
C177  C     C_R   0.874258 0.780125 0.386445 -0.146567
C178  C     C_R   0.874258 0.386445 0.219875 -0.146567
C179  C     C_R   0.874258 0.219875 0.613555 -0.146567
C180  C     C_R   0.874258 0.613555 0.780125 -0.146567
C181  C     C_R   0.780125 0.613555 0.125742 -0.146567
C182  C     C_R   1.000000 0.500000 0.881331 0.721422
C183  C     C_R   0.386445 0.780125 0.125742 -0.146567
C184  C     C_R   0.219875 0.386445 0.125741 -0.146567
C185  C     C_R   0.613555 0.219875 0.125742 -0.146567
C186  C     C_R   0.219875 0.613555 0.874258 -0.146567
C187  C     C_R   0.613555 0.780125 0.874259 -0.146567
C188  C     C_R   0.780125 0.386445 0.874258 -0.146567
C189  C     C_R   0.386445 0.219875 0.874258 -0.146567
C190  C     C_R   0.886445 0.374258 0.280125 -0.146567
C191  C     C_R   0.719875 0.374258 0.886445 -0.146568
C192  C     C_R   0.113555 0.374258 0.719875 -0.146567
Cu1   Cu    Cu3+1 0.561820 0.000000 0.000000 1.055542
Cu2   Cu    Cu3+1 0.500000 0.500000 0.938180 1.055543
Cu3   Cu    Cu3+1 0.500000 0.938180 0.500000 1.055542
Cu4   Cu    Cu3+1 0.500000 0.061820 0.500000 1.055542
Cu5   Cu    Cu3+1 1.000000 0.000000 0.561820 1.055543
Cu6   Cu    Cu3+1 0.438180 0.000000 0.000000 1.055542
Cu7   Cu    Cu3+1 0.000000 0.000000 0.438180 1.055542
Cu8   Cu    Cu3+1 0.000000 0.438180 0.000000 1.055542
Cu9   Cu    Cu3+1 0.000000 0.561820 0.000000 1.055542
Cu10  Cu    Cu3+1 0.061820 0.500000 0.500000 1.055542
Cu11  Cu    Cu3+1 0.500000 0.500000 0.061820 1.055543
Cu12  Cu    Cu3+1 0.938180 0.500000 0.500000 1.055542
H1    H     H_    0.639216 0.161697 0.802472 0.096963
H2    H     H_    0.838303 0.360784 0.197528 0.096963
H3    H     H_    0.838303 0.802472 0.360784 0.096963
H4    H     H_    0.838303 0.639216 0.802472 0.096963
H5    H     H_    0.161696 0.802472 0.639216 0.096963
H6    H     H_    0.161696 0.639216 0.197528 0.096963
H7    H     H_    0.161697 0.197528 0.360785 0.096963
H8    H     H_    0.161696 0.360784 0.802472 0.096963
H9    H     H_    0.802472 0.360784 0.838303 0.096963
H10   H     H_    0.639216 0.802472 0.838304 0.096963
H11   H     H_    0.197528 0.639215 0.838303 0.096963
H12   H     H_    0.197528 0.161697 0.639216 0.096963
H13   H     H_    0.360784 0.197528 0.838303 0.096963
H14   H     H_    0.197528 0.360784 0.161696 0.096963
H15   H     H_    0.360785 0.802472 0.161697 0.096963
H16   H     H_    0.802472 0.639216 0.161696 0.096963
H17   H     H_    0.639216 0.197528 0.161696 0.096963
H18   H     H_    0.139215 0.661697 0.302472 0.096963
H19   H     H_    0.697528 0.661697 0.139216 0.096963
H20   H     H_    0.860784 0.661697 0.697528 0.096963
H21   H     H_    0.302472 0.661696 0.860784 0.096963
H22   H     H_    0.139216 0.338303 0.697528 0.096963
H23   H     H_    0.360784 0.161696 0.197528 0.096963
H24   H     H_    0.697528 0.338303 0.860784 0.096963
H25   H     H_    0.860784 0.338304 0.302472 0.096963
H26   H     H_    0.302472 0.338303 0.139215 0.096963
H27   H     H_    0.338304 0.697528 0.139216 0.096963
H28   H     H_    0.338303 0.860784 0.697528 0.096963
H29   H     H_    0.338303 0.302472 0.860784 0.096963
H30   H     H_    0.338303 0.139215 0.302472 0.096963
H31   H     H_    0.661697 0.302472 0.139216 0.096963
H32   H     H_    0.661696 0.139216 0.697528 0.096963
H33   H     H_    0.661697 0.697528 0.860785 0.096963
H34   H     H_    0.802472 0.161696 0.360784 0.096963
H35   H     H_    0.661697 0.860784 0.302472 0.096963
H36   H     H_    0.302472 0.860784 0.338303 0.096963
H37   H     H_    0.139216 0.302472 0.338304 0.096963
H38   H     H_    0.697528 0.139215 0.338303 0.096963
H39   H     H_    0.860784 0.697528 0.338303 0.096963
H40   H     H_    0.697528 0.860784 0.661696 0.096963
H41   H     H_    0.860784 0.302472 0.661697 0.096963
H42   H     H_    0.302472 0.139216 0.661696 0.096963
H43   H     H_    0.139216 0.697528 0.661697 0.096963
H44   H     H_    0.416835 0.856936 0.884338 0.313120
H45   H     H_    0.639216 0.838303 0.197528 0.096963
H46   H     H_    0.115662 0.856936 0.416835 0.313121
H47   H     H_    0.583165 0.856936 0.115662 0.313120
H48   H     H_    0.884338 0.856936 0.583165 0.313121
H49   H     H_    0.416835 0.143064 0.115662 0.313120
H50   H     H_    0.115662 0.143064 0.583165 0.313120
H51   H     H_    0.583165 0.143064 0.884338 0.313120
H52   H     H_    0.884338 0.143064 0.416835 0.313120
H53   H     H_    0.143064 0.115662 0.416835 0.313121
H54   H     H_    0.143064 0.583165 0.115662 0.313120
H55   H     H_    0.143064 0.884338 0.583165 0.313121
H56   H     H_    0.197528 0.838303 0.360784 0.096963
H57   H     H_    0.143064 0.416834 0.884338 0.313120
H58   H     H_    0.856936 0.884338 0.416835 0.313120
H59   H     H_    0.856936 0.416835 0.115662 0.313120
H60   H     H_    0.856936 0.115662 0.583165 0.313120
H61   H     H_    0.856936 0.583165 0.884338 0.313120
H62   H     H_    0.884338 0.583165 0.143064 0.313120
H63   H     H_    0.416835 0.884338 0.143064 0.313120
H64   H     H_    0.115662 0.416835 0.143064 0.313120
H65   H     H_    0.583165 0.115662 0.143064 0.313120
H66   H     H_    0.115662 0.583165 0.856936 0.313120
H67   H     H_    0.360784 0.838304 0.802472 0.096963
H68   H     H_    0.583165 0.884338 0.856936 0.313120
H69   H     H_    0.884338 0.416835 0.856936 0.313120
H70   H     H_    0.416835 0.115662 0.856936 0.313120
H71   H     H_    0.916835 0.356936 0.384338 0.313120
H72   H     H_    0.615662 0.356936 0.916835 0.313121
H73   H     H_    0.083165 0.356936 0.615662 0.313120
H74   H     H_    0.384338 0.356936 0.083165 0.313121
H75   H     H_    0.916835 0.643064 0.615662 0.313120
H76   H     H_    0.615662 0.643064 0.083165 0.313120
H77   H     H_    0.083165 0.643064 0.384338 0.313120
H78   H     H_    0.802472 0.838303 0.639215 0.096963
H79   H     H_    0.384338 0.643064 0.916835 0.313120
H80   H     H_    0.643064 0.615662 0.916835 0.313121
H81   H     H_    0.643064 0.083165 0.615662 0.313120
H82   H     H_    0.643064 0.384338 0.083165 0.313121
H83   H     H_    0.643064 0.916835 0.384338 0.313120
H84   H     H_    0.356936 0.384338 0.916835 0.313120
H85   H     H_    0.356936 0.916835 0.615662 0.313120
H86   H     H_    0.356936 0.615662 0.083165 0.313120
H87   H     H_    0.356936 0.083165 0.384338 0.313120
H88   H     H_    0.384338 0.083165 0.643064 0.313120
H89   H     H_    0.838304 0.197528 0.639216 0.096963
H90   H     H_    0.916835 0.384338 0.643064 0.313120
H91   H     H_    0.615662 0.916835 0.643064 0.313120
H92   H     H_    0.083165 0.615662 0.643064 0.313120
H93   H     H_    0.615662 0.083165 0.356936 0.313120
H94   H     H_    0.083165 0.384338 0.356936 0.313120
H95   H     H_    0.384338 0.916835 0.356936 0.313120
H96   H     H_    0.916835 0.615662 0.356936 0.313120
O1    O     O_R   0.552210 0.090180 0.999970 -0.469415
O2    O     O_R   0.909820 0.447790 0.000030 -0.469415
O3    O     O_R   0.909820 0.999970 0.447790 -0.469415
O4    O     O_R   0.909820 0.552210 0.999970 -0.469415
O5    O     O_R   0.090180 0.999970 0.552210 -0.469415
O6    O     O_R   0.090180 0.552210 0.000030 -0.469415
O7    O     O_R   0.090180 0.000030 0.447790 -0.469415
O8    O     O_R   0.090180 0.447790 0.999970 -0.469415
O9    O     O_R   0.999970 0.447790 0.909820 -0.469415
O10   O     O_R   0.552210 0.999970 0.909820 -0.469415
O11   O     O_R   0.000030 0.552210 0.909820 -0.469415
O12   O     O_R   0.000030 0.090180 0.552210 -0.469415
O13   O     O_R   0.447790 0.000030 0.909820 -0.469415
O14   O     O_R   0.000030 0.447790 0.090180 -0.469415
O15   O     O_R   0.447790 0.999970 0.090180 -0.469415
O16   O     O_R   0.999970 0.552210 0.090180 -0.469415
O17   O     O_R   0.552210 0.000030 0.090180 -0.469415
O18   O     O_R   0.052210 0.590180 0.499970 -0.469415
O19   O     O_R   0.500030 0.590180 0.052210 -0.469415
O20   O     O_R   0.947790 0.590180 0.500030 -0.469415
O21   O     O_R   0.499970 0.590180 0.947790 -0.469415
O22   O     O_R   0.052210 0.409820 0.500030 -0.469415
O23   O     O_R   0.447790 0.090180 0.000030 -0.469415
O24   O     O_R   0.500030 0.409820 0.947790 -0.469415
O25   O     O_R   0.947790 0.409820 0.499970 -0.469415
O26   O     O_R   0.499970 0.409820 0.052210 -0.469415
O27   O     O_R   0.409820 0.500030 0.052210 -0.469415
O28   O     O_R   0.409820 0.947790 0.500030 -0.469415
O29   O     O_R   0.409820 0.499970 0.947790 -0.469415
O30   O     O_R   0.409820 0.052210 0.499970 -0.469415
O31   O     O_R   0.590180 0.499970 0.052210 -0.469415
O32   O     O_R   0.590180 0.052210 0.500030 -0.469415
O33   O     O_R   0.590180 0.500030 0.947790 -0.469415
O34   O     O_R   0.999970 0.090180 0.447790 -0.469415
O35   O     O_R   0.590180 0.947790 0.499970 -0.469415
O36   O     O_R   0.499970 0.947790 0.409820 -0.469415
O37   O     O_R   0.052210 0.499970 0.409820 -0.469415
O38   O     O_R   0.500030 0.052210 0.409820 -0.469415
O39   O     O_R   0.947790 0.500030 0.409820 -0.469415
O40   O     O_R   0.500030 0.947790 0.590180 -0.469415
O41   O     O_R   0.947790 0.499970 0.590180 -0.469415
O42   O     O_R   0.499970 0.052210 0.590180 -0.469415
O43   O     O_R   0.052210 0.500030 0.590180 -0.469415
O44   O     O_3   0.442557 0.892044 0.871635 -0.652578
O45   O     O_R   0.552210 0.909820 0.000030 -0.469415
O46   O     O_3   0.128365 0.892044 0.442557 -0.652579
O47   O     O_3   0.557443 0.892044 0.128365 -0.652578
O48   O     O_3   0.871635 0.892044 0.557442 -0.652578
O49   O     O_3   0.442557 0.107956 0.128365 -0.652578
O50   O     O_3   0.128365 0.107956 0.557443 -0.652578
O51   O     O_3   0.557442 0.107956 0.871635 -0.652578
O52   O     O_3   0.871635 0.107956 0.442557 -0.652578
O53   O     O_3   0.107956 0.128365 0.442557 -0.652578
O54   O     O_3   0.107956 0.557443 0.128365 -0.652578
O55   O     O_3   0.107956 0.871635 0.557442 -0.652579
O56   O     O_R   0.000030 0.909820 0.447790 -0.469415
O57   O     O_3   0.107956 0.442557 0.871635 -0.652578
O58   O     O_3   0.892044 0.871635 0.442557 -0.652578
O59   O     O_3   0.892044 0.442557 0.128365 -0.652578
O60   O     O_3   0.892044 0.128365 0.557442 -0.652578
O61   O     O_3   0.892044 0.557442 0.871635 -0.652578
O62   O     O_3   0.871635 0.557442 0.107956 -0.652578
O63   O     O_3   0.442557 0.871635 0.107956 -0.652577
O64   O     O_3   0.128365 0.442557 0.107956 -0.652578
O65   O     O_3   0.557443 0.128365 0.107956 -0.652578
O66   O     O_3   0.128365 0.557443 0.892044 -0.652577
O67   O     O_R   0.447790 0.909820 0.999970 -0.469415
O68   O     O_3   0.557442 0.871635 0.892044 -0.652578
O69   O     O_3   0.871635 0.442557 0.892044 -0.652578
O70   O     O_3   0.442557 0.128365 0.892044 -0.652578
O71   O     O_3   0.942557 0.392044 0.371635 -0.652578
O72   O     O_3   0.628365 0.392044 0.942557 -0.652579
O73   O     O_3   0.057442 0.392044 0.628365 -0.652578
O74   O     O_3   0.371635 0.392044 0.057442 -0.652578
O75   O     O_3   0.942558 0.607956 0.628365 -0.652578
O76   O     O_3   0.628365 0.607956 0.057443 -0.652578
O77   O     O_3   0.057443 0.607956 0.371635 -0.652578
O78   O     O_R   0.999970 0.909820 0.552210 -0.469415
O79   O     O_3   0.371635 0.607956 0.942557 -0.652578
O80   O     O_3   0.607956 0.628365 0.942558 -0.652578
O81   O     O_3   0.607956 0.057443 0.628365 -0.652578
O82   O     O_3   0.607956 0.371635 0.057443 -0.652579
O83   O     O_3   0.607956 0.942557 0.371635 -0.652578
O84   O     O_3   0.392044 0.371635 0.942557 -0.652578
O85   O     O_3   0.392044 0.942557 0.628365 -0.652578
O86   O     O_3   0.392044 0.628365 0.057443 -0.652578
O87   O     O_3   0.392044 0.057442 0.371635 -0.652578
O88   O     O_3   0.371635 0.057443 0.607956 -0.652578
O89   O     O_R   0.909820 0.000030 0.552210 -0.469415
O90   O     O_3   0.942557 0.371635 0.607956 -0.652577
O91   O     O_3   0.628365 0.942558 0.607956 -0.652578
O92   O     O_3   0.057443 0.628365 0.607956 -0.652578
O93   O     O_3   0.628365 0.057443 0.392044 -0.652577
O94   O     O_3   0.057442 0.371635 0.392044 -0.652578
O95   O     O_3   0.371635 0.942557 0.392044 -0.652578
O96   O     O_3   0.942557 0.628365 0.392044 -0.652578

loop_
_geom_bond_atom_site_label_1
_geom_bond_atom_site_label_2
_ccdc_geom_bond_type
H82   O82   S    
H94   O94   S    
C7    C186  A    
C34   C161  A    
C135  O69   S    
C168  H23   S    
C123  C176  A    
C18   C156  A    
C10   H31   S    
C188  C191  A    
C66   C97   A    
C86   C110  S    
Cu1   O17   S    
C63   C98   A    
C105  O12   A    
C4    C142  A    
C5    C143  A    
C20   C175  A    
C70   C117  A    
C140  O73   S    
Cu9   O16   S    
C138  O3    A    
Cu5   Cu7   S    
C112  O46   S    
C43   C58   A    
C93   C149  S    
C31   C70   A    
C146  O80   S    
C132  O65   S    
C57   C83   S    
C44   C153  A    
C128  C180  A    
C163  O96   S    
C3    C184  A    
C14   H28   S    
C46   O19   A    
C41   C156  A    
C184  H14   S    
C141  O74   S    
C105  O34   A    
H96   O96   S    
C20   C158  A    
Cu1   O45   S    
C21   C159  A    
C107  O36   A    
C127  O56   A    
C19   C167  A    
C3    H26   S    
C189  H13   S    
C8    C187  A    
C50   C53   A    
C133  O66   S    
C143  O76   S    
C170  H1    S    
C113  C166  A    
H72   O72   S    
C22   C161  A    
C6    C174  A    
C115  O49   S    
C176  H8    S    
C131  C184  A    
C11   C150  A    
C136  O70   S    
C181  H16   S    
C63   C132  A    
Cu12  O39   S    
C71   C102  A    
C27   C80   A    
H49   O49   S    
Cu9   O11   S    
C39   C85   A    
C17   C155  A    
H87   O87   S    
C30   C69   A    
Cu3   O35   S    
H68   O68   S    
H85   O85   S    
C183  H15   S    
Cu5   O5    S    
C116  O45   A    
C120  O53   S    
C65   C98   A    
C126  O60   S    
H50   O50   S    
C35   O20   A    
C72   C103  A    
C76   C100  A    
C21   C172  A    
C108  O37   A    
C36   C144  A    
C32   C62   A    
C29   C82   A    
C27   C162  A    
C77   C124  A    
C4    H20   S    
C47   C63   A    
C23   H36   S    
C112  C165  A    
C178  H2    S    
C9    C147  A    
C49   C146  A    
Cu1   O10   S    
C56   C128  A    
C90   O28   A    
Cu10  O37   S    
Cu3   Cu4   S    
C60   C95   A    
C162  O95   S    
C30   C154  A    
C68   O24   A    
Cu2   O33   S    
C182  O11   A    
C96   C116  S    
C118  O51   S    
C22   H37   S    
C10   C148  A    
C6    H18   S    
C172  H34   S    
C54   C123  A    
C131  O64   S    
C3    C141  A    
C10   C185  A    
Cu10  O22   S    
C110  O43   A    
C61   C96   A    
C114  C167  A    
C32   C147  A    
C150  O83   S    
C26   C78   A    
Cu5   O78   S    
C38   C86   A    
Cu9   O6    S    
C130  C183  A    
C58   C129  A    
C109  O40   A    
C142  O75   S    
H47   O47   S    
H73   O73   S    
C87   C101  S    
Cu12  O41   S    
C64   C99   A    
C151  O84   S    
C71   C126  A    
H95   O95   S    
C57   O22   A    
C123  O57   S    
C41   C71   A    
C42   C56   A    
C149  O4    A    
C186  H11   S    
C157  O91   S    
C174  H6    S    
C35   O18   A    
C158  O92   S    
C12   H29   S    
H57   O57   S    
C171  O8    A    
Cu4   O30   S    
C26   C66   A    
C108  O39   A    
C68   O26   A    
Cu3   O28   S    
H53   O53   S    
H64   O64   S    
H79   O79   S    
Cu5   O89   S    
C7    H21   S    
C24   O17   A    
Cu10  O43   S    
C62   C97   A    
H71   O71   S    
C48   C145  A    
C182  O9    A    
C124  C177  A    
C50   C87   A    
C42   C86   A    
C164  H67   S    
C149  O2    A    
C16   C154  A    
C79   O27   A    
Cu8   O8    S    
C6    C144  A    
C110  O41   A    
Cu11  O26   S    
C106  O35   A    
H74   O74   S    
C69   C115  A    
C15   H27   S    
C124  O58   S    
C111  C164  A    
C132  C185  A    
C148  O82   S    
C34   C75   A    
H51   O51   S    
C136  C189  A    
C26   C152  A    
H63   O63   S    
C139  O72   S    
C35   C85   S    
C18   H41   S    
C101  O33   A    
C25   C163  A    
C78   C109  S    
H58   O58   S    
C14   C164  A    
C15   C153  A    
C137  C190  A    
C117  C169  A    
H54   O54   S    
C14   C152  A    
C125  C178  A    
C44   C67   A    
C185  H17   S    
C13   O14   A    
C115  C168  A    
C152  O85   S    
C7    C145  A    
C81   C107  S    
C171  O6    A    
C191  H24   S    
H81   O81   S    
Cu4   O32   S    
Cu7   O56   S    
C40   C84   A    
C43   C143  A    
H83   O83   S    
C36   C59   A    
Cu4   O38   S    
C22   C173  A    
C31   C80   A    
C56   C94   A    
C12   C189  A    
Cu10  Cu12  S    
Cu6   O15   S    
C58   C93   A    
Cu8   O9    S    
C139  C191  A    
Cu12  O25   S    
H75   O75   S    
C178  C190  A    
C25   C177  A    
C160  O5    A    
Cu6   O67   S    
C106  O32   A    
Cu1   Cu6   S    
C72   C114  A    
Cu2   O21   S    
C102  C105  S    
C74   C119  A    
C51   C65   A    
H65   O65   S    
C51   C91   A    
C20   H43   S    
C2    C97   S    
C15   C183  A    
H86   O86   S    
Cu8   O2    S    
C66   C111  A    
H44   O44   S    
C45   C89   A    
C33   C82   A    
C23   C162  A    
Cu9   O4    S    
C187  H10   S    
C51   C151  A    
H59   O59   S    
C45   C141  A    
C49   C88   A    
H70   O70   S    
C9    C170  A    
C173  H7    S    
C4    C180  A    
C5    C181  A    
C61   C134  A    
C25   H39   S    
C8    C146  A    
H76   O76   S    
C49   C61   A    
C121  O54   S    
Cu5   O12   S    
C130  O63   S    
C103  C138  S    
C128  O61   S    
Cu11  O31   S    
C50   C139  A    
C29   C157  A    
C57   O25   A    
C1    C98   S    
Cu11  O19   S    
Cu12  O20   S    
C121  C174  A    
C38   C54   A    
C16   H30   S    
C188  H9    S    
C40   C137  A    
H52   O52   S    
C2    O13   A    
C126  C179  A    
C13   O16   A    
H60   O60   S    
Cu8   O14   S    
C19   H40   S    
C28   C64   A    
H90   O90   S    
C55   C131  A    
C13   C92   S    
C53   C135  A    
C179  H89   S    
C67   C130  A    
C153  O86   S    
C39   C163  A    
C27   C76   A    
C137  O71   S    
H66   O66   S    
Cu6   O13   S    
C47   C91   A    
C134  C187  A    
Cu6   O23   S    
C90   O30   A    
C31   C155  A    
C144  O77   S    
C165  H56   S    
C160  O7    A    
Cu11  O27   S    
C190  H25   S    
H84   O84   S    
C30   C81   A    
C107  O38   A    
C104  C127  S    
C84   C108  S    
Cu7   O3    S    
C59   C92   A    
C75   C120  A    
C62   C118  A    
C65   C136  A    
C33   C74   A    
C46   O21   A    
C73   C122  A    
C77   C104  A    
C94   C182  S    
C95   C171  S    
H77   O77   S    
C60   C133  A    
Cu3   O36   S    
C33   C159  A    
C21   H38   S    
C59   C121  A    
C28   C150  A    
C159  O93   S    
C24   C99   S    
H69   O69   S    
H91   O91   S    
C8    H33   S    
C155  O88   S    
H92   O92   S    
C134  O68   S    
C122  O55   S    
C39   C77   A    
C37   C85   A    
C16   C168  A    
H88   O88   S    
C17   C169  A    
C176  C192  A    
C118  C170  A    
C11   H35   S    
C122  C175  A    
C41   C83   A    
C68   C91   S    
C111  O44   S    
Cu7   O7    S    
Cu1   O1    S    
H61   O61   S    
C113  O47   S    
Cu7   O34   S    
C82   C106  S    
Cu8   Cu9   S    
C42   C142  A    
C75   C102  A    
Cu2   O24   S    
Cu4   O42   S    
H93   O93   S    
C119  C172  A    
C29   C72   A    
C175  H5    S    
C23   C165  A    
C9    H32   S    
C12   C151  A    
C1    O1    A    
C24   O15   A    
C1    O23   A    
C70   C100  A    
C48   C60   A    
C46   C88   S    
C73   C104  A    
C166  H45   S    
C79   C89   S    
C53   C93   A    
C19   C157  A    
C161  O94   S    
C55   C95   A    
C40   C52   A    
C145  O79   S    
C177  H3    S    
C79   O29   A    
C37   C158  A    
H48   O48   S    
C11   C166  A    
C100  C160  S    
C129  O62   S    
C76   C112  A    
C127  O78   A    
Cu3   O40   S    
C45   C55   A    
C117  O50   S    
C133  C186  A    
C119  O52   S    
C5    H19   S    
C18   C179  A    
C48   C89   A    
C67   C96   A    
C140  C192  A    
H62   O62   S    
C34   C83   A    
C69   C99   A    
C135  C188  A    
C109  O42   A    
C101  O31   A    
C169  H12   S    
C37   C73   A    
C47   C148  A    
C64   C113  A    
H46   O46   S    
C28   C81   A    
Cu10  O18   S    
Cu2   O29   S    
C147  O81   S    
C154  O87   S    
C52   C125  A    
H80   O80   S    
C138  O89   A    
C43   C87   A    
C180  H4    S    
C116  O67   A    
C17   H42   S    
C36   C84   A    
C156  O90   S    
Cu2   Cu11  S    
C192  H22   S    
C80   C90   S    
C54   C94   A    
C52   C92   A    
C167  H78   S    
C32   C78   A    
H55   O55   S    
C120  C173  A    
C2    O10   A    
C38   C140  A    
C44   C88   A    
C129  C181  A    
C114  O48   S    
C74   C103  A    
C125  O59   S    
