data_mof_unit_39662.cif
_audit_creation_date              2012-12-10T17:10:28-0500
_audit_creation_method            fapswitch 2.2
_symmetry_space_group_name_H-M    P1
_symmetry_Int_Tables_number       1
_space_group_crystal_system       triclinic
_cell_length_a                    10.832131
_cell_length_b                    13.027176
_cell_length_c                    11.748252
_cell_angle_alpha                 98.927267
_cell_angle_beta                  93.581927
_cell_angle_gamma                 90.112291
_cell_volume                      1634.42406913

loop_
_atom_site_label
_atom_site_type_symbol
_atom_type_description
_atom_site_fract_x
_atom_site_fract_y
_atom_site_fract_z
_atom_type_partial_charge
C1    C     C_R   0.496920 0.299600 0.479700 0.882324
C2    C     C_R   0.500373 0.700090 0.520359 0.831663
C3    C     C_R   0.503426 0.812507 0.531182 -0.099643
C4    C     C_R   0.492430 0.186673 0.469746 -0.055501
C5    C     C_R   0.409622 0.023766 0.367472 -0.098186
C6    C     C_R   0.594165 0.973528 0.630213 -0.144891
C7    C     C_R   0.427359 0.129756 0.373954 -0.244726
C8    C     C_R   0.578580 0.867301 0.621365 -0.186360
C9    C     C_R   0.546520 0.136448 0.558015 0.397706
C10   C     C_R   0.440447 0.865033 0.448828 0.379829
C11   C     C_R   0.534088 0.027763 0.548823 0.002156
C12   C     C_R   0.461073 0.971878 0.454673 0.074237
C13   C     C_R   0.348972 0.442740 0.031328 0.437069
C14   C     C_R   0.649814 0.558081 0.969468 0.432047
C15   C     C_R   0.371716 0.439799 0.151127 -0.151280
C16   C     C_R   0.629162 0.558356 0.848996 -0.148785
C17   C     C_R   0.563400 0.528116 0.154029 0.687417
C18   C     C_R   0.433547 0.475839 0.846676 0.676733
C19   C     C_R   0.553842 0.521828 0.031036 -0.258411
C20   C     C_R   0.444248 0.480062 0.969449 -0.255122
C21   C     C_R   0.263228 0.506105 0.501308 0.834565
C22   C     C_R   0.737114 0.496560 0.499109 0.831427
C23   C     C_R   0.121849 0.699029 0.556686 0.294140
C24   C     C_R   0.880078 0.302282 0.467328 0.330976
C25   C     C_R   0.054852 0.790413 0.553506 0.363152
C26   C     C_R   0.945327 0.211963 0.430289 0.362250
C27   C     C_R   0.924772 0.784962 0.535615 0.265570
C28   C     C_R   0.074437 0.217939 0.422793 0.263564
C29   C     C_R   0.865952 0.688223 0.517441 -0.226292
C30   C     C_R   0.133427 0.314491 0.446739 -0.243587
C31   C     C_R   0.932966 0.594692 0.513877 -0.041229
C32   C     C_R   0.067414 0.407567 0.476733 -0.038004
C33   C     C_R   0.063156 0.599271 0.526598 -0.100964
C34   C     C_R   0.938082 0.402488 0.482366 -0.111481
C35   C     C_R   0.871368 0.497169 0.498626 -0.058151
C36   C     C_R   0.129417 0.504875 0.503538 -0.046365
Cu1   Cu    Cu3+1 0.509250 0.507730 0.615930 0.986882
Cu2   Cu    Cu3+1 0.490750 0.492270 0.384070 0.997320
H1    H     H_    0.766134 0.687763 0.506003 0.164109
H2    H     H_    0.232741 0.314823 0.442322 0.161795
H3    H     H_    0.629131 0.827185 0.683504 0.162384
H4    H     H_    0.385197 0.168120 0.306019 0.183477
H5    H     H_    0.355363 0.982803 0.293683 0.203542
H6    H     H_    0.657116 0.010982 0.699260 0.155836
H7    H     H_    0.700261 0.585584 0.800475 0.165477
H8    H     H_    0.302287 0.410422 0.199873 0.167110
N1    N     N_R   0.523180 0.519350 0.790130 -0.247128
N2    N     N_R   0.476820 0.480650 0.209870 -0.247851
O1    O     O_R   0.506570 0.354460 0.582000 -0.551977
O2    O     O_R   0.493430 0.645540 0.418000 -0.583327
O3    O     O_R   0.490940 0.341410 0.386200 -0.587566
O4    O     O_R   0.509060 0.658590 0.613800 -0.576929
O5    O     O_R   0.327470 0.506520 0.597900 -0.536440
O6    O     O_R   0.672530 0.493480 0.402100 -0.508173
O7    O     O_R   0.311840 0.493460 0.402100 -0.608133
O8    O     O_R   0.688160 0.506540 0.597900 -0.616623
O9    O     O_3   0.147291 0.131730 0.397589 -0.744620
H9    H     H_    0.105184 0.070430 0.418246 0.333313
O10   O     O_3   0.851273 0.871655 0.539686 -0.724198
H10   H     H_    0.893740 0.930490 0.590639 0.339510
O11   O     O_3   0.231856 0.422476 0.975450 -0.534219
C37   C     C_3   0.164062 0.346081 0.019103 -0.303389
H11   H     H_    0.117980 0.381089 0.097544 0.181347
H12   H     H_    0.222444 0.279136 0.036117 0.133588
H13   H     H_    0.089981 0.315178 0.953154 0.203204
O12   O     O_3   0.765870 0.580048 0.026940 -0.530081
C38   C     C_3   0.832599 0.657406 0.983881 -0.294794
H14   H     H_    0.772782 0.722686 0.964198 0.127212
H15   H     H_    0.881629 0.622726 0.907106 0.174025
H16   H     H_    0.904179 0.690610 0.051249 0.207095
O13   O     O_3   0.244120 0.710670 0.593988 -0.719172
H17   H     H_    0.252411 0.679297 0.665704 0.340864
O14   O     O_3   0.760243 0.288881 0.492335 -0.677768
H18   H     H_    0.755931 0.321188 0.574075 0.350077
O15   O     O_3   0.120255 0.883168 0.570151 -0.692600
H19   H     H_    0.073753 0.933535 0.529717 0.320030
O16   O     O_3   0.879618 0.119401 0.405401 -0.678428
H20   H     H_    0.921192 0.072526 0.345368 0.320377
O17   O     O_3   0.358008 0.815115 0.363231 -0.751467
H21   H     H_    0.319390 0.755728 0.391441 0.363630
O18   O     O_3   0.613215 0.194855 0.649737 -0.727039
H22   H     H_    0.597295 0.167073 0.721211 0.296565
O19   O     O_3   0.333773 0.425409 0.782313 -0.522315
C39   C     C_3   0.352292 0.316680 0.765975 -0.190063
H23   H     H_    0.315828 0.283316 0.677593 0.171608
H24   H     H_    0.299267 0.279874 0.826632 0.171477
H25   H     H_    0.450759 0.293862 0.776167 0.137166
O20   O     O_3   0.656545 0.586666 0.219727 -0.520469
C40   C     C_3   0.628348 0.693502 0.226529 -0.201232
H26   H     H_    0.527722 0.709834 0.231269 0.167153
H27   H     H_    0.661849 0.725610 0.152021 0.162431
H28   H     H_    0.676913 0.736590 0.305610 0.189556

loop_
_geom_bond_atom_site_label_1
_geom_bond_atom_site_label_2
_ccdc_geom_bond_type
C21   O5    A    
C27   C29   A    
C17   O20   S    
O14   H18   S    
C19   C20   A    
C39   H25   S    
C18   N1    A    
O18   H22   S    
C22   O6    A    
C21   C36   S    
O16   H20   S    
C22   C35   S    
C37   H11   S    
C32   C36   A    
C24   C26   A    
C24   O14   S    
C33   C36   A    
C18   C20   A    
C34   C35   A    
C7    H4    S    
C37   H12   S    
C2    O2    A    
Cu1   O8    S    
Cu2   O7    S    
C23   C33   A    
C17   N2    A    
Cu1   N1    S    
Cu2   N2    S    
C13   C20   A    
C9    C11   A    
Cu1   O5    S    
O12   C38   S    
C5    H5    S    
O10   H10   S    
C6    H6    S    
C15   N2    A    
C4    C7    A    
C10   C12   A    
C16   N1    A    
C26   O16   S    
C38   H14   S    
C23   O13   S    
C8    H3    S    
C5    C12   A    
C3    C8    A    
C6    C11   A    
C21   O7    A    
Cu1   O4    S    
C22   O8    A    
Cu2   O3    S    
C28   O9    S    
C24   C34   A    
C25   O15   S    
C32   C34   A    
O15   H19   S    
Cu1   Cu2   S    
Cu1   O1    S    
O19   C39   S    
Cu2   O6    S    
C11   C12   A    
C29   H1    S    
C31   C33   A    
C18   O19   S    
C14   O12   S    
C30   H2    S    
C39   H23   S    
C40   H28   S    
C1    O3    A    
C2    O4    A    
C13   C15   A    
C14   C16   A    
C40   H27   S    
C5    C7    A    
C37   H13   S    
C14   C19   A    
C39   H24   S    
C16   H7    S    
C6    C8    A    
C10   O17   S    
Cu2   O2    S    
C25   C27   A    
C26   C28   A    
C1    C4    S    
C38   H16   S    
C28   C30   A    
C2    C3    S    
C4    C9    A    
O13   H17   S    
C29   C31   A    
C3    C10   A    
C27   O10   S    
C30   C32   A    
O9    H9    S    
C17   C19   A    
C31   C35   A    
C23   C25   A    
O11   C37   S    
O17   H21   S    
C13   O11   S    
O20   C40   S    
C15   H8    S    
C38   H15   S    
C40   H26   S    
C1    O1    A    
C9    O18   S    
