data_mof_unit_67757.cif
_audit_creation_date              2012-12-10T16:49:25-0500
_audit_creation_method            fapswitch 2.2
_symmetry_space_group_name_H-M    P1
_symmetry_Int_Tables_number       1
_space_group_crystal_system       triclinic
_cell_length_a                    7.956361
_cell_length_b                    8.644852
_cell_length_c                    13.037125
_cell_angle_alpha                 84.012681
_cell_angle_beta                  91.022256
_cell_angle_gamma                 90.508457
_cell_volume                      891.65815059

loop_
_atom_site_label
_atom_site_type_symbol
_atom_type_description
_atom_site_fract_x
_atom_site_fract_y
_atom_site_fract_z
_atom_type_partial_charge
C1    C     C_R   0.458718 0.207206 0.497346 0.975077
C2    C     C_R   0.648863 0.370610 0.157764 -0.116838
C3    C     C_R   0.567793 0.439070 0.876525 0.151067
C4    C     C_R   0.417608 0.557840 0.123601 0.156483
C5    C     C_R   0.545647 0.441055 0.982657 -0.015783
C6    C     C_R   0.427714 0.546807 0.017205 0.007045
C7    C     C_2   0.442624 0.050491 0.479810 0.006666
C8    C     C_2   0.558759 0.949898 0.520370 -0.024885
C9    C     C_3   0.125375 0.583296 0.171803 -0.572090
C10   C     C_3   0.869576 0.455762 0.851823 -0.653072
C11   C     C_2   0.767350 0.276907 0.228712 0.952087
C12   C     C_R   0.541425 0.792792 0.503301 0.921171
C13   C     C_2   0.243074 0.734743 0.763957 0.944827
C14   C     C_3   0.258375 0.910106 0.970483 -0.710070
C15   C     C_3   0.655087 0.060327 0.058176 -0.809444
C16   C     C_2   0.010145 0.674539 0.402661 0.997481
C17   C     C_2   0.987071 0.332140 0.603593 1.045305
C18   C     C_3   0.351373 0.041035 0.302388 -0.658876
C19   C     C_3   0.664591 0.960769 0.694954 -0.657896
C20   C     C_R   0.471003 0.506700 0.698296 0.911081
C21   C     C_R   0.528571 0.495737 0.301143 0.920853
C22   C     C_R   0.535628 0.477951 0.192177 -0.256707
C23   C     C_R   0.457891 0.523098 0.806729 -0.230605
C24   C     C_R   0.326064 0.641245 0.944114 0.144079
C25   C     C_R   0.643033 0.343151 0.054516 0.151772
C26   C     C_R   0.339791 0.626685 0.839350 -0.136952
H1    H     H_    0.327297 0.726262 0.214854 0.254336
H2    H     H_    0.041759 0.768561 0.668326 0.330616
H3    H     H_    0.085293 0.733468 0.946878 0.218652
H4    H     H_    0.175308 0.983622 0.916405 0.237626
H5    H     H_    0.389653 0.926579 0.943873 0.247968
H6    H     H_    0.247808 0.949921 0.048262 0.234291
H7    H     H_    0.856924 0.213419 0.030742 0.257374
H8    H     H_    0.670048 0.981759 0.996944 0.240198
H9    H     H_    0.519534 0.070329 0.074950 0.247758
H10   H     H_    0.721321 0.007977 0.128952 0.245293
H11   H     H_    0.844315 0.800653 0.311001 0.304878
H12   H     H_    0.092645 0.517366 0.105386 0.227500
H13   H     H_    0.152896 0.202894 0.693131 0.323202
H14   H     H_    0.195461 0.051419 0.426814 0.253989
H15   H     H_    0.245019 0.003268 0.254451 0.247366
H16   H     H_    0.464992 0.975667 0.284631 0.235224
H17   H     H_    0.371517 0.167674 0.281700 0.239133
H18   H     H_    0.809975 0.952183 0.565532 0.236279
H19   H     H_    0.778928 0.989285 0.739499 0.237192
H20   H     H_    0.634668 0.835643 0.715301 0.216888
H21   H     H_    0.560461 0.034366 0.717225 0.266993
H22   H     H_    0.030672 0.676115 0.174585 0.219532
H23   H     H_    0.118622 0.502607 0.243290 0.265400
H24   H     H_    0.718573 0.252453 0.840031 0.259476
H25   H     H_    0.853897 0.579012 0.820128 0.262640
H26   H     H_    0.972306 0.403216 0.811151 0.259732
H27   H     H_    0.905812 0.453101 0.934443 0.195639
H28   H     H_    0.799633 0.122447 0.354149 0.335391
N1    N     N_2   0.054030 0.541640 0.471970 -0.169974
N2    N     N_2   0.945970 0.458360 0.528030 -0.166629
N3    N     N_2   0.291469 0.653198 0.160732 -0.284975
N4    N     N_2   0.713862 0.371748 0.838133 -0.261945
N5    N     N_2   0.205938 0.748712 0.974657 -0.285741
N6    N     N_2   0.727692 0.210622 0.024054 -0.309321
N7    N     N_2   0.312062 0.009622 0.410594 -0.258850
N8    N     N_2   0.694631 0.992357 0.585600 -0.273054
O1    O     O_R   0.609680 0.261530 0.506880 -0.560542
O2    O     O_R   0.707024 0.182579 0.313575 -0.830192
O3    O     O_2   0.293756 0.867550 0.741971 -0.686502
O4    O     O_R   0.094956 0.684709 0.718428 -0.816719
O5    O     O_2   0.122588 0.762557 0.372255 -0.644717
O6    O     O_R   0.851186 0.702098 0.360483 -0.791032
O7    O     O_2   0.871241 0.257042 0.643849 -0.636059
O8    O     O_R   0.148552 0.294673 0.637899 -0.779286
O9    O     O_R   0.390320 0.738470 0.493120 -0.567131
O10   O     O_R   0.323330 0.288220 0.488910 -0.619494
O11   O     O_R   0.676670 0.711780 0.511090 -0.621850
O12   O     O_R   0.619510 0.488830 0.661140 -0.585573
O13   O     O_R   0.380490 0.511170 0.338860 -0.631767
O14   O     O_R   0.333160 0.515520 0.643180 -0.557963
O15   O     O_R   0.666840 0.484480 0.356820 -0.561194
O16   O     O_2   0.917401 0.278029 0.210320 -0.689474
Zn1   Zn    Zn3+2 0.691200 0.482180 0.511990 1.028091
Zn2   Zn    Zn3+2 0.308800 0.517820 0.488010 1.019552

loop_
_geom_bond_atom_site_label_1
_geom_bond_atom_site_label_2
_ccdc_geom_bond_type
N1    N2    D    
C17   O7    D    
C15   N6    S    
C3    C23   A    
C14   H5    S    
C10   H26   S    
C19   H20   S    
C7    C8    D    
O1    Zn1   S    
C14   N5    S    
N2    Zn1   S    
C10   N4    S    
C24   C26   A    
C18   H16   S    
C5    C6    A    
C19   H21   S    
C10   H25   S    
C19   N8    S    
H11   O6    S    
C20   O14   A    
C23   C26   A    
C10   H27   S    
C7    N7    S    
H3    N5    S    
C4    N3    S    
C2    C22   A    
C16   O6    S    
C25   N6    S    
O13   Zn2   S    
C15   H8    S    
C17   O8    S    
C12   O11   A    
C14   H4    S    
C2    C11   S    
C1    O1    A    
C15   H9    S    
O9    Zn2   S    
C13   O4    S    
O15   Zn1   S    
C1    O10   A    
H24   N4    S    
C9    H23   S    
C4    C6    A    
C11   O2    S    
H1    N3    S    
C18   H15   S    
C13   O3    D    
H18   N8    S    
H14   N7    S    
H2    O4    S    
C11   O16   D    
C4    C22   A    
C20   C23   S    
C8    C12   S    
C6    C24   A    
O11   Zn1   S    
C20   O12   A    
C16   O5    D    
C17   N2    S    
C5    C25   A    
C12   O9    A    
H7    N6    S    
O12   Zn1   S    
C13   C26   S    
C15   H10   S    
C1    C7    S    
O14   Zn2   S    
C14   H6    S    
C3    C5    A    
C19   H19   S    
C18   N7    S    
C21   O13   A    
C16   N1    S    
O10   Zn2   S    
C18   H17   S    
N1    Zn2   S    
H28   O2    S    
C24   N5    S    
C9    H12   S    
H13   O8    S    
C2    C25   A    
C9    N3    S    
C3    N4    S    
C9    H22   S    
C21   O15   A    
C21   C22   S    
C8    N8    S    
