data_mof_unit_53974.cif
_audit_creation_date              2012-12-10T21:07:42-0500
_audit_creation_method            fapswitch 2.2
_symmetry_space_group_name_H-M    P1
_symmetry_Int_Tables_number       1
_space_group_crystal_system       triclinic
_cell_length_a                    8.596715
_cell_length_b                    17.496064
_cell_length_c                    16.74573
_cell_angle_alpha                 89.774499
_cell_angle_beta                  98.651511
_cell_angle_gamma                 90.283579
_cell_volume                      2490.00065089

loop_
_atom_site_label
_atom_site_type_symbol
_atom_type_description
_atom_site_fract_x
_atom_site_fract_y
_atom_site_fract_z
_atom_type_partial_charge
C1    C     C_R   0.503887 0.353021 0.500553 0.883864
C2    C     C_R   0.499929 0.646868 0.499740 0.920241
C3    C     C_1   0.581881 0.965888 0.500927 -0.039905
C4    C     C_1   0.584932 0.033744 0.501371 -0.039925
C5    C     C_R   0.408111 0.447363 0.825332 -0.270887
C6    C     C_R   0.619546 0.537056 0.176766 -0.275228
C7    C     C_R   0.409418 0.448556 0.741221 0.026143
C8    C     C_R   0.616766 0.536874 0.260750 0.005991
C9    C     C_R   0.591578 0.551023 0.754986 -0.000659
C10   C     C_R   0.383490 0.462848 0.243044 -0.004230
C11   C     C_R   0.593561 0.551722 0.839347 -0.265980
C12   C     C_R   0.381387 0.462182 0.158670 -0.268775
C13   C     C_R   0.500806 0.499510 0.875605 0.155742
C14   C     C_R   0.500537 0.499577 0.124459 0.168707
C15   C     C_1   0.500706 0.499501 0.963461 -0.048882
C16   C     C_1   0.500617 0.499543 0.036610 -0.054296
C17   C     C_R   0.200583 0.499988 0.478994 0.987072
C18   C     C_R   0.799408 0.500113 0.521002 0.966423
C19   C     C_2   0.035791 0.499782 0.467488 -0.383546
C20   C     C_2   0.964167 0.500654 0.532467 -0.395203
C21   C     C_R   0.632386 0.842718 0.565859 -0.157522
C22   C     C_R   0.515902 0.151434 0.429379 -0.164366
C23   C     C_R   0.606058 0.764550 0.566480 -0.278842
C24   C     C_R   0.490702 0.229535 0.429994 -0.271367
C25   C     C_R   0.515352 0.729368 0.499972 -0.123041
C26   C     C_R   0.525779 0.270558 0.502320 -0.144490
C27   C     C_R   0.450046 0.772619 0.432138 0.461271
C28   C     C_R   0.591083 0.232705 0.574291 0.461936
C29   C     C_R   0.473804 0.851676 0.433289 -0.274554
C30   C     C_R   0.613271 0.153959 0.573160 -0.261251
C31   C     C_R   0.566509 0.885662 0.499239 0.100160
C32   C     C_R   0.576230 0.114144 0.500905 0.091937
H1    H     H_    0.973862 0.498730 0.405838 0.173834
H2    H     H_    0.026135 0.502019 0.594065 0.177480
H3    H     H_    0.702128 0.869739 0.617479 0.144858
H4    H     H_    0.485298 0.119879 0.373604 0.143679
H5    H     H_    0.658719 0.731344 0.618241 0.166214
H6    H     H_    0.442304 0.257710 0.374082 0.175077
H7    H     H_    0.417211 0.886838 0.384013 0.138285
H8    H     H_    0.657757 0.124034 0.628667 0.149729
H9    H     H_    0.335248 0.405979 0.850848 0.147138
H10   H     H_    0.713478 0.566733 0.152887 0.136546
H11   H     H_    0.337900 0.408057 0.703046 0.142944
H12   H     H_    0.708340 0.566512 0.300335 0.124500
H13   H     H_    0.663657 0.591391 0.727680 0.125926
H14   H     H_    0.291475 0.433582 0.268747 0.126604
H15   H     H_    0.667023 0.592795 0.875923 0.140081
H16   H     H_    0.287443 0.432534 0.120505 0.139141
N1    N     N_R   0.500040 0.500030 0.707230 -0.099756
N2    N     N_R   0.499960 0.499970 0.292770 -0.092133
O1    O     O_R   0.500000 0.389130 0.566570 -0.581712
O2    O     O_R   0.500000 0.610870 0.433430 -0.596104
O3    O     O_R   0.499990 0.389100 0.433480 -0.628953
O4    O     O_R   0.500010 0.610900 0.566520 -0.631828
O5    O     O_R   0.271750 0.500010 0.550980 -0.619615
O6    O     O_R   0.728250 0.499990 0.449020 -0.623200
O7    O     O_R   0.271740 0.499980 0.417890 -0.631953
O8    O     O_R   0.728260 0.500020 0.582110 -0.635915
Zn1   Zn    Zn3+2 0.500010 0.500020 0.588860 0.943901
Zn2   Zn    Zn3+2 0.499990 0.499980 0.411140 0.940415
O9    O     O_3   0.348803 0.738249 0.370201 -0.641158
C33   C     C_3   0.409613 0.745526 0.296691 0.090933
H17   H     H_    0.534770 0.726621 0.303789 0.134520
H18   H     H_    0.400999 0.805721 0.274903 0.130427
C34   C     C_3   0.312573 0.695159 0.233234 -0.296670
H19   H     H_    0.322349 0.634557 0.253250 0.239782
H20   H     H_    0.186704 0.711854 0.226911 0.219250
C35   C     C_3   0.368372 0.702778 0.151244 -0.974059
H21   H     H_    0.349352 0.761993 0.127776 0.261306
H22   H     H_    0.300829 0.662718 0.107679 0.271647
H23   H     H_    0.495346 0.688875 0.156382 0.267287
O10   O     O_3   0.627208 0.271653 0.646426 -0.636269
C36   C     C_3   0.788727 0.290958 0.657659 0.087050
H24   H     H_    0.820293 0.322344 0.604132 0.128239
H25   H     H_    0.861668 0.238383 0.668167 0.132799
C37   C     C_3   0.824906 0.342769 0.731423 -0.272850
H26   H     H_    0.752391 0.395273 0.721465 0.245359
H27   H     H_    0.794078 0.312625 0.785504 0.218522
C38   C     C_3   0.998342 0.365535 0.746964 -1.004209
H28   H     H_    0.073387 0.314087 0.759423 0.265365
H29   H     H_    0.019987 0.403969 0.800122 0.267497
H30   H     H_    0.031311 0.396247 0.693812 0.263508

loop_
_geom_bond_atom_site_label_1
_geom_bond_atom_site_label_2
_ccdc_geom_bond_type
C9    H13   S    
O5    Zn1   S    
C27   C29   A    
C36   H24   S    
C11   H15   S    
C19   C20   D    
C37   C38   S    
C12   H16   S    
C21   C31   A    
C22   C32   A    
C24   C26   A    
C15   C16   T    
C1    O3    A    
C33   H18   S    
C27   O9    S    
C18   O8    A    
C35   H21   S    
C34   H20   S    
C10   H14   S    
C24   H6    S    
C7    H11   S    
O2    Zn2   S    
C17   O5    A    
C18   C20   S    
C18   O6    A    
C20   H2    S    
C36   H25   S    
C28   O10   S    
C10   C12   A    
O3    Zn2   S    
O4    Zn1   S    
C21   C23   A    
C9    N1    A    
C37   H26   S    
C7    N1    A    
C19   H1    S    
C38   H29   S    
O7    Zn2   S    
C6    C8    A    
O8    Zn1   S    
C23   H5    S    
O6    Zn2   S    
C33   H17   S    
C6    C14   A    
C9    C11   A    
C34   C35   S    
C29   H7    S    
C30   H8    S    
C3    C31   S    
C1    O1    A    
C4    C32   S    
C2    O2    A    
C12   C14   A    
C13   C15   S    
C2    O4    A    
C1    C26   S    
C36   C37   S    
C14   C16   S    
O1    Zn1   S    
C3    C4    T    
C10   N2    A    
C8    N2    A    
C5    C7    A    
C5    H9    S    
C33   C34   S    
C5    C13   A    
C8    H12   S    
C37   H27   S    
O10   C36   S    
C38   H30   S    
C21   H3    S    
C25   C27   A    
C22   H4    S    
C26   C28   A    
N1    Zn1   S    
N2    Zn2   S    
C28   C30   A    
C29   C31   A    
C30   C32   A    
C11   C13   A    
C35   H23   S    
C17   C19   S    
C2    C25   S    
C22   C24   A    
C23   C25   A    
O9    C33   S    
C38   H28   S    
C35   H22   S    
C34   H19   S    
C6    H10   S    
C17   O7    A    
