data_mof_unit_61217.cif
_audit_creation_date              2012-12-10T20:23:24-0500
_audit_creation_method            fapswitch 2.2
_symmetry_space_group_name_H-M    P1
_symmetry_Int_Tables_number       1
_space_group_crystal_system       triclinic
_cell_length_a                    35.474546
_cell_length_b                    35.474544
_cell_length_c                    47.139445
_cell_angle_alpha                 89.978725
_cell_angle_beta                  89.978734
_cell_angle_gamma                 89.952269
_cell_volume                      59322.2919973

loop_
_atom_site_label
_atom_site_type_symbol
_atom_type_description
_atom_site_fract_x
_atom_site_fract_y
_atom_site_fract_z
_atom_type_partial_charge
C1    C     C_R   0.573477 0.999989 0.000061 0.941682
C2    C     C_R   0.999982 0.573464 0.000017 0.942267
C3    C     C_R   0.426524 0.000020 0.999972 0.941796
C4    C     C_R   0.000015 0.426513 0.000036 0.941275
C5    C     C_R   0.073487 0.499985 0.499964 0.941274
C6    C     C_R   0.499980 0.073475 0.500028 0.941795
C7    C     C_R   0.926536 0.500017 0.499983 0.942268
C8    C     C_R   0.500011 0.926523 0.499939 0.941683
C9    C     C_R   0.499981 0.000023 0.913449 -0.353428
C10   C     C_R   0.000020 0.499993 0.913449 -0.353433
C11   C     C_R   0.500016 0.999979 0.086551 -0.353392
C12   C     C_R   0.999978 0.500008 0.086551 -0.353402
C13   C     C_R   0.999991 0.500022 0.413449 -0.353401
C14   C     C_R   0.500021 0.999983 0.413449 -0.353392
C15   C     C_R   0.000006 0.499980 0.586551 -0.353435
C16   C     C_R   0.499977 0.000019 0.586551 -0.353429
C17   C     C_R   0.499944 0.000054 0.854086 0.144501
C18   C     C_R   0.000040 0.499986 0.854086 0.144507
C19   C     C_R   0.500039 0.999957 0.145914 0.144577
C20   C     C_R   0.999952 0.500033 0.145913 0.144571
C21   C     C_R   0.999967 0.500048 0.354087 0.144571
C22   C     C_R   0.500043 0.999961 0.354086 0.144577
C23   C     C_R   0.000014 0.499959 0.645914 0.144508
C24   C     C_R   0.499946 0.000056 0.645914 0.144501
C25   C     C_R   0.826928 0.025061 0.018122 -0.187253
C26   C     C_R   0.974193 0.826536 0.017186 -0.111038
C27   C     C_R   0.173604 0.973559 0.015756 -0.109568
C28   C     C_R   0.026593 0.172980 0.016543 -0.185113
C29   C     C_R   0.826207 0.974482 0.983557 -0.108846
C30   C     C_R   0.972839 0.173638 0.984777 -0.111017
C31   C     C_R   0.173283 0.027455 0.984132 -0.113701
C32   C     C_R   0.025140 0.826317 0.982932 -0.111003
C33   C     C_R   0.326362 0.527159 0.515223 -0.111017
C34   C     C_R   0.472545 0.326717 0.515867 -0.113700
C35   C     C_R   0.673683 0.474861 0.517068 -0.111002
C36   C     C_R   0.525518 0.673793 0.516443 -0.108846
C37   C     C_R   0.327020 0.473408 0.483456 -0.185114
C38   C     C_R   0.474939 0.673072 0.481878 -0.187253
C39   C     C_R   0.673464 0.525806 0.482814 -0.111039
C40   C     C_R   0.526441 0.326396 0.484244 -0.109568
C41   C     C_R   0.866275 0.025261 0.017750 0.068162
C42   C     C_R   0.974050 0.865764 0.017402 0.065671
C43   C     C_R   0.134379 0.973263 0.016163 0.062495
C44   C     C_R   0.026722 0.133626 0.016309 0.064481
C45   C     C_R   0.865432 0.974283 0.982763 0.041703
C46   C     C_R   0.972543 0.134398 0.984179 0.042912
C47   C     C_R   0.134043 0.027587 0.983994 0.067176
C48   C     C_R   0.025376 0.865536 0.982534 0.065361
C49   C     C_R   0.365602 0.527456 0.515822 0.042913
C50   C     C_R   0.472412 0.365957 0.516006 0.067175
C51   C     C_R   0.634464 0.474624 0.517466 0.065361
C52   C     C_R   0.525717 0.634568 0.517236 0.041703
C53   C     C_R   0.366373 0.473278 0.483690 0.064482
C54   C     C_R   0.474739 0.633725 0.482249 0.068161
C55   C     C_R   0.634236 0.525950 0.482597 0.065672
C56   C     C_R   0.526737 0.365621 0.483837 0.062496
C57   C     C_R   0.885760 0.999819 0.000029 -0.080668
C58   C     C_R   0.999813 0.885689 0.999988 -0.122431
C59   C     C_R   0.114226 0.000269 0.000034 -0.119480
C60   C     C_R   0.999718 0.114155 0.000021 -0.077108
C61   C     C_R   0.385844 0.500282 0.499979 -0.077109
C62   C     C_R   0.499731 0.385774 0.499966 -0.119479
C63   C     C_R   0.614311 0.500187 0.500012 -0.122431
C64   C     C_R   0.500181 0.614240 0.499971 -0.080667
C65   C     C_R   0.807190 0.999763 0.001097 0.070235
C66   C     C_R   0.999675 0.807073 0.000126 0.038160
C67   C     C_R   0.192813 0.000499 0.999840 0.038417
C68   C     C_R   0.999777 0.192702 0.000814 0.070295
C69   C     C_R   0.307298 0.500223 0.499186 0.070295
C70   C     C_R   0.499500 0.307187 0.500160 0.038416
C71   C     C_R   0.692927 0.500326 0.499874 0.038160
C72   C     C_R   0.500237 0.692809 0.498903 0.070235
C73   C     C_1   0.767160 0.999879 0.001417 -0.025443
C74   C     C_1   0.999663 0.767061 0.000210 -0.025091
C75   C     C_1   0.232843 0.000517 0.999710 -0.025776
C76   C     C_1   0.999945 0.232749 0.001011 -0.026201
C77   C     C_1   0.267251 0.500054 0.498989 -0.026200
C78   C     C_1   0.499482 0.267157 0.500290 -0.025776
C79   C     C_1   0.732939 0.500337 0.499790 -0.025091
C80   C     C_1   0.500120 0.732840 0.498583 -0.025443
C81   C     C_1   0.733500 0.999899 0.001457 0.059169
C82   C     C_1   0.999708 0.733415 0.000238 0.062678
C83   C     C_1   0.266501 0.000443 0.999663 0.062147
C84   C     C_1   0.000011 0.266419 0.001016 0.058730
C85   C     C_1   0.233581 0.499988 0.498984 0.058730
C86   C     C_1   0.499557 0.233499 0.500337 0.062147
C87   C     C_1   0.766585 0.500292 0.499762 0.062678
C88   C     C_1   0.500101 0.766500 0.498543 0.059169
C89   C     C_R   0.673904 0.032140 0.009533 -0.226404
C90   C     C_R   0.967656 0.673942 0.008861 -0.225448
C91   C     C_R   0.325858 0.967997 0.008213 -0.225641
C92   C     C_R   0.032329 0.325959 0.009038 -0.226462
C93   C     C_R   0.674195 0.967640 0.992574 -0.225866
C94   C     C_R   0.967704 0.325838 0.992364 -0.226559
C95   C     C_R   0.326042 0.032494 0.991210 -0.226136
C96   C     C_R   0.032006 0.674051 0.991529 -0.225537
C97   C     C_R   0.174162 0.532295 0.507637 -0.226560
C98   C     C_R   0.467506 0.173958 0.508790 -0.226136
C99   C     C_R   0.825949 0.467994 0.508471 -0.225538
C100  C     C_R   0.532360 0.825805 0.507426 -0.225867
C101  C     C_R   0.174041 0.467671 0.490962 -0.226461
C102  C     C_R   0.467860 0.826096 0.490467 -0.226404
C103  C     C_R   0.826058 0.532344 0.491139 -0.225448
C104  C     C_R   0.532003 0.174142 0.491787 -0.225641
C105  C     C_R   0.634699 0.032350 0.009137 0.604312
C106  C     C_R   0.967564 0.634743 0.008827 0.604458
C107  C     C_R   0.365067 0.967736 0.008335 0.604430
C108  C     C_R   0.032508 0.365175 0.008769 0.604237
C109  C     C_R   0.634990 0.967534 0.992115 0.604325
C110  C     C_R   0.967565 0.365050 0.992032 0.604420
C111  C     C_R   0.365248 0.032549 0.991268 0.604478
C112  C     C_R   0.032229 0.634850 0.991432 0.604405
C113  C     C_R   0.134950 0.532435 0.507968 0.604422
C114  C     C_R   0.467450 0.134752 0.508731 0.604479
C115  C     C_R   0.865150 0.467771 0.508568 0.604406
C116  C     C_R   0.532466 0.865009 0.507885 0.604325
C117  C     C_R   0.134825 0.467492 0.491231 0.604237
C118  C     C_R   0.467649 0.865301 0.490863 0.604312
C119  C     C_R   0.865257 0.532436 0.491173 0.604457
C120  C     C_R   0.532264 0.134933 0.491665 0.604430
C121  C     C_R   0.499997 0.000007 0.944523 0.975728
C122  C     C_R   0.000006 0.499999 0.944523 0.975700
C123  C     C_R   0.500003 0.999993 0.055477 0.975387
C124  C     C_R   0.999993 0.500000 0.055476 0.975450
C125  C     C_R   1.000000 0.500007 0.444524 0.975451
C126  C     C_R   0.500006 0.999997 0.444523 0.975387
C127  C     C_R   0.000000 0.499994 0.555477 0.975700
C128  C     C_R   0.499993 0.000002 0.555477 0.975728
C129  C     C_R   0.614826 0.999971 0.000399 -0.342961
C130  C     C_R   0.999927 0.614790 0.000089 -0.343203
C131  C     C_R   0.385177 0.000096 0.999861 -0.343078
C132  C     C_R   0.000044 0.385144 0.000249 -0.342830
C133  C     C_R   0.114856 0.499956 0.499750 -0.342830
C134  C     C_R   0.499904 0.114823 0.500139 -0.343078
C135  C     C_R   0.885210 0.500073 0.499911 -0.343203
C136  C     C_R   0.500028 0.885174 0.499601 -0.342960
C137  C     C_R   0.693471 0.999864 0.001267 -0.055646
C138  C     C_R   0.999796 0.693408 0.000224 -0.056788
C139  C     C_R   0.306528 0.000302 0.999673 -0.056389
C140  C     C_R   0.000003 0.306465 0.000855 -0.055265
C141  C     C_R   0.193534 0.499997 0.499145 -0.055266
C142  C     C_R   0.499698 0.193472 0.500327 -0.056389
C143  C     C_R   0.806592 0.500204 0.499776 -0.056787
C144  C     C_R   0.500136 0.806528 0.498733 -0.055646
C145  C     C_R   0.523401 0.024213 0.690299 0.649110
C146  C     C_R   0.975859 0.523455 0.690312 0.649117
C147  C     C_R   0.476447 0.975941 0.690325 0.649107
C148  C     C_R   0.024168 0.476459 0.690311 0.649102
C149  C     C_R   0.523544 0.975808 0.309689 0.648923
C150  C     C_R   0.975812 0.476584 0.309704 0.649006
C151  C     C_R   0.476547 0.024115 0.309688 0.648942
C152  C     C_R   0.024081 0.523540 0.309673 0.648870
C153  C     C_R   0.023415 0.524188 0.190296 0.649005
C154  C     C_R   0.475885 0.023453 0.190312 0.648942
C155  C     C_R   0.976460 0.475918 0.190327 0.648871
C156  C     C_R   0.524192 0.976455 0.190311 0.648922
C157  C     C_R   0.023541 0.475832 0.809688 0.649103
C158  C     C_R   0.475787 0.976599 0.809701 0.649111
C159  C     C_R   0.976545 0.524141 0.809688 0.649118
C160  C     C_R   0.524059 0.023553 0.809675 0.649108
C161  C     C_R   0.475660 0.975551 0.720092 -0.228239
C162  C     C_R   0.024572 0.475685 0.720078 -0.228222
C163  C     C_R   0.524175 0.024615 0.720065 -0.228255
C164  C     C_R   0.975468 0.524241 0.720079 -0.228268
C165  C     C_R   0.475766 0.024511 0.279921 -0.228151
C166  C     C_R   0.024471 0.524323 0.279906 -0.228136
C167  C     C_R   0.524323 0.975408 0.279921 -0.228212
C168  C     C_R   0.975408 0.475807 0.279937 -0.228230
C169  C     C_R   0.975678 0.475528 0.220094 -0.228136
C170  C     C_R   0.524592 0.975677 0.220078 -0.228212
C171  C     C_R   0.024193 0.524592 0.220063 -0.228230
C172  C     C_R   0.475489 0.024234 0.220079 -0.228152
C173  C     C_R   0.975758 0.524532 0.779921 -0.228268
C174  C     C_R   0.524449 0.024340 0.779908 -0.228239
C175  C     C_R   0.024315 0.475428 0.779922 -0.228223
C176  C     C_R   0.475385 0.975825 0.779935 -0.228254
C177  C     C_R   0.499916 0.000084 0.735025 -0.158723
C178  C     C_R   0.000024 0.499967 0.735025 -0.158723
C179  C     C_R   0.500043 0.999959 0.264975 -0.158821
C180  C     C_R   0.999938 0.500065 0.264975 -0.158819
C181  C     C_R   0.999935 0.500062 0.235025 -0.158819
C182  C     C_R   0.500041 0.999956 0.235025 -0.158820
C183  C     C_R   0.000033 0.499976 0.764975 -0.158722
C184  C     C_R   0.499916 0.000084 0.764975 -0.158724
C185  C     C_R   0.451442 0.951408 0.735257 0.598154
C186  C     C_R   0.048742 0.451453 0.735231 0.598134
C187  C     C_R   0.548388 0.048763 0.735204 0.598175
C188  C     C_R   0.951307 0.548481 0.735231 0.598189
C189  C     C_R   0.451529 0.048676 0.264769 0.597837
C190  C     C_R   0.048613 0.548539 0.264738 0.597810
C191  C     C_R   0.548557 0.951241 0.264769 0.597868
C192  C     C_R   0.951260 0.451592 0.264800 0.597913
C193  C     C_R   0.951461 0.451386 0.235262 0.597810
C194  C     C_R   0.548759 0.951442 0.235231 0.597868
C195  C     C_R   0.048407 0.548741 0.235199 0.597913
C196  C     C_R   0.451324 0.048471 0.235231 0.597835
C197  C     C_R   0.951519 0.548693 0.764769 0.598189
C198  C     C_R   0.548592 0.048558 0.764743 0.598155
C199  C     C_R   0.048547 0.451258 0.764769 0.598134
C200  C     C_R   0.451237 0.951612 0.764796 0.598175
C201  C     C_R   0.999756 0.073061 0.999986 0.889330
C202  C     C_R   0.926908 0.999780 0.999987 0.871833
C203  C     C_R   0.999965 0.926884 0.999999 0.836811
C204  C     C_R   0.073085 0.000041 0.000006 0.853672
C205  C     C_R   0.500220 0.573092 0.500013 0.871834
C206  C     C_R   0.426939 0.500244 0.500014 0.889330
C207  C     C_R   0.499959 0.426915 0.499994 0.853671
C208  C     C_R   0.573116 0.500035 0.500001 0.836811
C209  C     C_R   0.517510 0.970527 0.868837 -0.003151
C210  C     C_R   0.029534 0.517530 0.868839 -0.003193
C211  C     C_R   0.482395 0.029565 0.868859 -0.003133
C212  C     C_R   0.970538 0.482444 0.868856 -0.003090
C213  C     C_R   0.517585 0.029455 0.131141 -0.003170
C214  C     C_R   0.029472 0.482462 0.131159 -0.003108
C215  C     C_R   0.482485 0.970468 0.131163 -0.003171
C216  C     C_R   0.970443 0.517591 0.131144 -0.003248
C217  C     C_R   0.017539 0.470528 0.368841 -0.003107
C218  C     C_R   0.529532 0.017515 0.368837 -0.003170
C219  C     C_R   0.982408 0.529556 0.368856 -0.003248
C220  C     C_R   0.470545 0.982415 0.368858 -0.003171
C221  C     C_R   0.017556 0.529462 0.631144 -0.003091
C222  C     C_R   0.529473 0.982490 0.631163 -0.003151
C223  C     C_R   0.982470 0.470466 0.631161 -0.003193
C224  C     C_R   0.470435 0.017605 0.631140 -0.003133
C225  C     C_R   0.517333 0.970443 0.898498 0.528058
C226  C     C_R   0.029593 0.517338 0.898500 0.528141
C227  C     C_R   0.482609 0.029618 0.898520 0.527976
C228  C     C_R   0.970460 0.482643 0.898517 0.527898
C229  C     C_R   0.517379 0.029534 0.101481 0.527716
C230  C     C_R   0.029553 0.482645 0.101499 0.527613
C231  C     C_R   0.482669 0.970410 0.101502 0.527896
C232  C     C_R   0.970388 0.517383 0.101483 0.528030
C233  C     C_R   0.017355 0.470447 0.398501 0.527614
C234  C     C_R   0.529590 0.017330 0.398498 0.527897
C235  C     C_R   0.982616 0.529612 0.398517 0.528029
C236  C     C_R   0.470465 0.982621 0.398519 0.527717
C237  C     C_R   0.017357 0.529540 0.601483 0.527900
C238  C     C_R   0.529556 0.982667 0.601502 0.528059
C239  C     C_R   0.982662 0.470407 0.601500 0.528143
C240  C     C_R   0.470382 0.017391 0.601480 0.527975
H1    H     H_    0.811842 0.044732 0.031587 0.154048
H2    H     H_    0.954367 0.811217 0.030364 0.164937
H3    H     H_    0.189118 0.952735 0.027908 0.164787
H4    H     H_    0.047469 0.188081 0.028896 0.153884
H5    H     H_    0.810541 0.954851 0.970463 0.163919
H6    H     H_    0.951975 0.189268 0.972755 0.163265
H7    H     H_    0.188550 0.048448 0.971986 0.164322
H8    H     H_    0.044857 0.810829 0.969759 0.165062
H9    H     H_    0.310732 0.548024 0.527247 0.163265
H10   H     H_    0.451551 0.311450 0.528013 0.164321
H11   H     H_    0.689171 0.455143 0.530241 0.165062
H12   H     H_    0.545149 0.689459 0.529536 0.163919
H13   H     H_    0.311919 0.452533 0.471103 0.153884
H14   H     H_    0.455268 0.688157 0.468413 0.154048
H15   H     H_    0.688783 0.545633 0.469635 0.164937
H16   H     H_    0.547265 0.310881 0.472093 0.164787
H17   H     H_    0.688989 0.057115 0.016321 0.192013
H18   H     H_    0.942711 0.689104 0.015682 0.192817
H19   H     H_    0.310581 0.943063 0.014863 0.192672
H20   H     H_    0.057362 0.310807 0.015679 0.191892
H21   H     H_    0.689513 0.942655 0.986045 0.192688
H22   H     H_    0.942672 0.310590 0.985909 0.192237
H23   H     H_    0.310913 0.057516 0.984509 0.192378
H24   H     H_    0.056894 0.689301 0.984745 0.192791
H25   H     H_    0.189410 0.557327 0.514091 0.192237
H26   H     H_    0.442484 0.189087 0.515491 0.192378
H27   H     H_    0.810699 0.443106 0.515255 0.192791
H28   H     H_    0.557344 0.810487 0.513955 0.192688
H29   H     H_    0.189193 0.442638 0.484321 0.191892
H30   H     H_    0.442885 0.811011 0.483679 0.192012
H31   H     H_    0.810896 0.557289 0.484317 0.192817
H32   H     H_    0.556937 0.189419 0.485137 0.192672
N1    N     N_R   0.499929 0.000072 0.676268 -0.328559
N2    N     N_R   0.000012 0.499955 0.676268 -0.328557
N3    N     N_R   0.500046 0.999962 0.323732 -0.328497
N4    N     N_R   0.999952 0.500059 0.323732 -0.328498
N5    N     N_R   0.999941 0.500048 0.176268 -0.328498
N6    N     N_R   0.500038 0.999954 0.176268 -0.328497
N7    N     N_R   0.000045 0.499988 0.823732 -0.328557
N8    N     N_R   0.499928 0.000071 0.823732 -0.328558
O1    O     O_R   0.555440 0.968650 0.000000 -0.563527
O2    O     O_R   0.031350 0.555440 0.000000 -0.563617
O3    O     O_R   0.444560 0.031350 0.000000 -0.563619
O4    O     O_R   0.968650 0.444560 0.000000 -0.563259
O5    O     O_R   0.555440 0.031350 0.000000 -0.563382
O6    O     O_R   0.031350 0.444560 0.000000 -0.563339
O7    O     O_R   0.444560 0.968650 0.000000 -0.563333
O8    O     O_R   0.968650 0.555440 0.000000 -0.563713
O9    O     O_R   0.055440 0.468650 0.500000 -0.563339
O10   O     O_R   0.531350 0.055440 0.500000 -0.563333
O11   O     O_R   0.944560 0.531350 0.500000 -0.563713
O12   O     O_R   0.468650 0.944560 0.500000 -0.563382
O13   O     O_R   0.055440 0.531350 0.500000 -0.563260
O14   O     O_R   0.531350 0.944560 0.500000 -0.563527
O15   O     O_R   0.944560 0.468650 0.500000 -0.563616
O16   O     O_R   0.468650 0.055440 0.500000 -0.563619
O17   O     O_R   0.499980 0.968650 0.958070 -0.569940
O18   O     O_R   0.031350 0.499980 0.958070 -0.569775
O19   O     O_R   0.500020 0.031350 0.958070 -0.569855
O20   O     O_R   0.968650 0.500020 0.958070 -0.570011
O21   O     O_R   0.499980 0.031350 0.041930 -0.569859
O22   O     O_R   0.031350 0.500020 0.041930 -0.570029
O23   O     O_R   0.500020 0.968650 0.041930 -0.570024
O24   O     O_R   0.968650 0.499980 0.041930 -0.569866
O25   O     O_R   0.999980 0.468650 0.458070 -0.570030
O26   O     O_R   0.531350 0.999980 0.458070 -0.570025
O27   O     O_R   0.000020 0.531350 0.458070 -0.569866
O28   O     O_R   0.468650 0.000020 0.458070 -0.569859
O29   O     O_R   0.999980 0.531350 0.541930 -0.570011
O30   O     O_R   0.531350 0.000020 0.541930 -0.569940
O31   O     O_R   0.000020 0.468650 0.541930 -0.569775
O32   O     O_R   0.468650 0.999980 0.541930 -0.569855
O33   O     O_2   0.545746 0.047711 0.675336 -0.448272
O34   O     O_2   0.952338 0.545814 0.675363 -0.448267
O35   O     O_2   0.454109 0.952438 0.675388 -0.448342
O36   O     O_2   0.047683 0.454093 0.675361 -0.448358
O37   O     O_2   0.545909 0.952292 0.324639 -0.448628
O38   O     O_2   0.952316 0.454240 0.324668 -0.448484
O39   O     O_2   0.454184 0.047633 0.324637 -0.448700
O40   O     O_2   0.047584 0.545881 0.324608 -0.448822
O41   O     O_2   0.045759 0.547685 0.175332 -0.448484
O42   O     O_2   0.452367 0.045816 0.175363 -0.448700
O43   O     O_2   0.954119 0.452415 0.175392 -0.448823
O44   O     O_2   0.547708 0.954091 0.175361 -0.448628
O45   O     O_2   0.045907 0.452317 0.824639 -0.448358
O46   O     O_2   0.452289 0.954255 0.824663 -0.448273
O47   O     O_2   0.954186 0.547662 0.824637 -0.448268
O48   O     O_2   0.547562 0.045891 0.824612 -0.448342
O49   O     O_R   0.000020 0.055270 0.976310 -0.631602
O50   O     O_R   0.944730 0.000020 0.976310 -0.631546
O51   O     O_R   0.999980 0.944730 0.976310 -0.620485
O52   O     O_R   0.055270 0.999980 0.976310 -0.620578
O53   O     O_R   0.000020 0.944730 0.023690 -0.623977
O54   O     O_R   0.944730 0.999980 0.023690 -0.592624
O55   O     O_R   0.999980 0.055270 0.023690 -0.583249
O56   O     O_R   0.055270 0.000020 0.023690 -0.612351
O57   O     O_R   0.500020 0.555270 0.476310 -0.592624
O58   O     O_R   0.444730 0.500020 0.476310 -0.583249
O59   O     O_R   0.499980 0.444730 0.476310 -0.612351
O60   O     O_R   0.555270 0.499980 0.476310 -0.623977
O61   O     O_R   0.500020 0.444730 0.523690 -0.620577
O62   O     O_R   0.444730 0.499980 0.523690 -0.631603
O63   O     O_R   0.499980 0.555270 0.523690 -0.631545
O64   O     O_R   0.555270 0.500020 0.523690 -0.620485
Zn1   Zn    Zn3+2 0.500000 0.958160 0.000000 1.186255
Zn2   Zn    Zn3+2 0.041840 0.500000 0.000000 1.186176
Zn3   Zn    Zn3+2 0.500000 0.041840 0.000000 1.186122
Zn4   Zn    Zn3+2 0.958160 0.500000 0.000000 1.186174
Zn5   Zn    Zn3+2 0.000000 0.458160 0.500000 1.186176
Zn6   Zn    Zn3+2 0.541840 1.000000 0.500000 1.186255
Zn7   Zn    Zn3+2 1.000000 0.541840 0.500000 1.186174
Zn8   Zn    Zn3+2 0.458160 1.000000 0.500000 1.186122
Zn9   Zn    Zn3+2 0.000000 1.000000 0.968380 0.962246
Zn10  Zn    Zn3+2 0.000000 0.000000 0.031620 0.992988
Zn11  Zn    Zn3+2 0.500000 0.500000 0.468380 0.992988
Zn12  Zn    Zn3+2 0.500000 0.500000 0.531620 0.962246
F1    F     F_    0.427639 0.927462 0.721703 -0.543404
F2    F     F_    0.072705 0.427627 0.721663 -0.543449
F3    F     F_    0.572189 0.072711 0.721623 -0.543364
F4    F     F_    0.927336 0.572300 0.721663 -0.543334
F5    F     F_    0.427708 0.072643 0.278337 -0.543904
F6    F     F_    0.072560 0.572344 0.278290 -0.543887
F7    F     F_    0.572381 0.927276 0.278337 -0.543744
F8    F     F_    0.927313 0.427791 0.278384 -0.543737
F9    F     F_    0.927657 0.427439 0.221709 -0.543887
F10   F     F_    0.572724 0.927619 0.221663 -0.543744
F11   F     F_    0.072207 0.572688 0.221616 -0.543738
F12   F     F_    0.427357 0.072292 0.221663 -0.543904
F13   F     F_    0.927700 0.572663 0.778337 -0.543334
F14   F     F_    0.572538 0.072361 0.778297 -0.543405
F15   F     F_    0.072373 0.427295 0.778337 -0.543448
F16   F     F_    0.427288 0.927811 0.778377 -0.543363
N9    N     N_3   0.535756 0.940866 0.853448 -0.396453
H33   H     H_    0.564055 0.940084 0.859609 0.240541
H34   H     H_    0.523319 0.915326 0.859343 0.256050
N10   N     N_3   0.059187 0.535769 0.853452 -0.396444
H35   H     H_    0.059930 0.564065 0.859621 0.240586
H36   H     H_    0.084737 0.523317 0.859342 0.255988
N11   N     N_3   0.464129 0.059242 0.853494 -0.396507
H37   H     H_    0.435838 0.060017 0.859691 0.240475
H38   H     H_    0.476573 0.084776 0.859374 0.255967
N12   N     N_3   0.940895 0.464201 0.853488 -0.396533
H39   H     H_    0.940147 0.435907 0.859676 0.240456
H40   H     H_    0.915341 0.476655 0.859374 0.256001
N13   N     N_3   0.535838 0.059094 0.146508 -0.396849
H41   H     H_    0.564131 0.059835 0.140316 0.240109
H42   H     H_    0.523389 0.084651 0.140623 0.255793
N14   N     N_3   0.059131 0.464205 0.146545 -0.396961
H43   H     H_    0.059905 0.435907 0.140381 0.239983
H44   H     H_    0.084673 0.476637 0.140650 0.255830
N15   N     N_3   0.464243 0.940818 0.146551 -0.396651
H45   H     H_    0.435945 0.940082 0.140386 0.240379
H46   H     H_    0.476687 0.915266 0.140660 0.255908
N16   N     N_3   0.940772 0.535861 0.146513 -0.396508
H47   H     H_    0.940003 0.564154 0.140319 0.240508
H48   H     H_    0.915235 0.523424 0.140632 0.255901
N17   N     N_3   0.035795 0.440869 0.353455 -0.396961
H49   H     H_    0.064094 0.440095 0.359619 0.239983
H50   H     H_    0.023364 0.415327 0.359350 0.255831
N18   N     N_3   0.559182 0.035757 0.353448 -0.396651
H51   H     H_    0.559918 0.064055 0.359614 0.240380
H52   H     H_    0.584734 0.023312 0.359340 0.255908
N19   N     N_3   0.964138 0.559227 0.353487 -0.396508
H53   H     H_    0.935845 0.559996 0.359681 0.240508
H54   H     H_    0.976574 0.584765 0.359367 0.255900
N20   N     N_3   0.440906 0.964162 0.353492 -0.396850
H55   H     H_    0.440165 0.935869 0.359684 0.240109
H56   H     H_    0.415349 0.976611 0.359376 0.255793
N21   N     N_3   0.035798 0.559105 0.646512 -0.396533
H57   H     H_    0.064093 0.559853 0.640324 0.240456
H58   H     H_    0.023344 0.584658 0.640626 0.256001
N22   N     N_3   0.559134 0.964243 0.646552 -0.396453
H59   H     H_    0.559916 0.935944 0.640391 0.240541
H60   H     H_    0.584674 0.976680 0.640657 0.256050
N23   N     N_3   0.964231 0.440812 0.646548 -0.396444
H61   H     H_    0.935935 0.440069 0.640379 0.240586
H62   H     H_    0.976683 0.415263 0.640658 0.255988
N24   N     N_3   0.440758 0.035871 0.646506 -0.396508
H63   H     H_    0.439983 0.064163 0.640309 0.240475
H64   H     H_    0.415224 0.023427 0.640626 0.255968
F17   F     F_    0.534919 0.941999 0.912581 -0.607982
F18   F     F_    0.058004 0.534906 0.912585 -0.607680
F19   F     F_    0.465037 0.058046 0.912625 -0.607808
F20   F     F_    0.942039 0.465078 0.912619 -0.608147
F21   F     F_    0.534949 0.057951 0.087376 -0.608006
F22   F     F_    0.057992 0.465053 0.087412 -0.608305
F23   F     F_    0.465092 0.942003 0.087418 -0.607998
F24   F     F_    0.941962 0.534965 0.087381 -0.607603
F25   F     F_    0.034948 0.442009 0.412588 -0.608305
F26   F     F_    0.557997 0.034908 0.412581 -0.607998
F27   F     F_    0.965034 0.558037 0.412619 -0.607602
F28   F     F_    0.442049 0.965051 0.412623 -0.608006
F29   F     F_    0.034922 0.557961 0.587381 -0.608147
F30   F     F_    0.558001 0.965081 0.587419 -0.607983
F31   F     F_    0.965094 0.441996 0.587415 -0.607681
F32   F     F_    0.441953 0.034963 0.587374 -0.607808
N25   N     N_3   0.886418 0.051910 0.034826 -0.441817
H65   H     H_    0.877807 0.078996 0.028924 0.188933
H66   H     H_    0.878638 0.047726 0.055989 0.207963
N26   N     N_3   0.946759 0.884533 0.034847 -0.437636
H67   H     H_    0.960856 0.899411 0.050740 0.223471
H68   H     H_    0.931541 0.903527 0.022330 0.180143
N27   N     N_3   0.115814 0.944777 0.032598 -0.437670
H69   H     H_    0.100734 0.957798 0.048920 0.222454
H70   H     H_    0.096940 0.930296 0.019544 0.177948
N28   N     N_3   0.054759 0.113441 0.032088 -0.446239
H71   H     H_    0.081290 0.121956 0.024860 0.188794
H72   H     H_    0.052423 0.121303 0.053391 0.208897
N29   N     N_3   0.883802 0.947212 0.964903 -0.437076
H73   H     H_    0.898562 0.961546 0.949049 0.223568
H74   H     H_    0.902907 0.931709 0.977120 0.180266
N30   N     N_3   0.943706 0.115871 0.968101 -0.440899
H75   H     H_    0.956403 0.100539 0.951767 0.221492
H76   H     H_    0.929349 0.097187 0.981434 0.186443
N31   N     N_3   0.115097 0.056420 0.968134 -0.441656
H77   H     H_    0.099766 0.043775 0.951797 0.222400
H78   H     H_    0.096415 0.070551 0.981611 0.188695
N32   N     N_3   0.052420 0.884048 0.964739 -0.437055
H79   H     H_    0.038084 0.898784 0.948870 0.224152
H80   H     H_    0.067836 0.903146 0.976975 0.181202
N33   N     N_3   0.384129 0.556293 0.531900 -0.440899
H81   H     H_    0.399461 0.543596 0.548234 0.221493
H82   H     H_    0.402813 0.570650 0.518567 0.186444
N34   N     N_3   0.443579 0.384903 0.531865 -0.441656
H83   H     H_    0.456223 0.400234 0.548202 0.222400
H84   H     H_    0.429449 0.403585 0.518388 0.188695
N35   N     N_3   0.615952 0.447581 0.535262 -0.437056
H85   H     H_    0.601216 0.461917 0.551131 0.224153
H86   H     H_    0.596854 0.432165 0.523026 0.181202
N36   N     N_3   0.552788 0.616198 0.535097 -0.437077
H87   H     H_    0.538454 0.601438 0.550950 0.223568
H88   H     H_    0.568291 0.597093 0.522880 0.180266
N37   N     N_3   0.386559 0.445242 0.467910 -0.446237
H89   H     H_    0.378044 0.418711 0.475137 0.188794
H90   H     H_    0.378697 0.447580 0.446607 0.208897
N38   N     N_3   0.448090 0.613582 0.465174 -0.441818
H91   H     H_    0.421003 0.622193 0.471076 0.188934
H92   H     H_    0.452273 0.621361 0.444011 0.207963
N39   N     N_3   0.615467 0.553240 0.465153 -0.437636
H93   H     H_    0.600589 0.539143 0.449259 0.223470
H94   H     H_    0.596473 0.568458 0.477669 0.180143
N40   N     N_3   0.555223 0.384186 0.467403 -0.437669
H95   H     H_    0.542203 0.399266 0.451080 0.222453
H96   H     H_    0.569704 0.403060 0.480456 0.177947
F33   F     F_    0.616401 0.063966 0.017760 -0.596108
F34   F     F_    0.936092 0.616532 0.017802 -0.595622
F35   F     F_    0.383130 0.936105 0.017212 -0.595904
F36   F     F_    0.064180 0.383386 0.017306 -0.596367
F37   F     F_    0.616993 0.935971 0.983107 -0.596020
F38   F     F_    0.935911 0.383124 0.983225 -0.596243
F39   F     F_    0.383486 0.064092 0.982469 -0.595968
F40   F     F_    0.063758 0.616745 0.982399 -0.595747
F41   F     F_    0.116876 0.564089 0.516775 -0.596244
F42   F     F_    0.435908 0.116514 0.517531 -0.595968
F43   F     F_    0.883255 0.436242 0.517600 -0.595748
F44   F     F_    0.564029 0.883007 0.516893 -0.596020
F45   F     F_    0.116614 0.435820 0.482694 -0.596367
F46   F     F_    0.436034 0.883599 0.482239 -0.596108
F47   F     F_    0.883468 0.563908 0.482198 -0.595622
F48   F     F_    0.563895 0.116870 0.482788 -0.595904

loop_
_geom_bond_atom_site_label_1
_geom_bond_atom_site_label_2
_ccdc_geom_bond_type
C10   C228  A    
C229  F21   S    
C190  F6    S    
C37   C69   A    
O55   Zn10  S    
C167  C179  A    
C117  C133  A    
C42   C58   A    
N38   H92   S    
C118  C136  A    
C208  O64   A    
N25   H65   S    
O49   Zn9   S    
C45   C57   A    
C32   H8    S    
C3    C131  S    
C99   C143  A    
C18   C210  A    
C150  N4    A    
O63   Zn12  S    
C1    C129  S    
N17   H50   S    
C98   C114  A    
C8    C136  S    
C15   C239  A    
O51   Zn9   S    
C94   C140  A    
C106  C130  A    
C108  F36   S    
N34   H83   S    
N29   H74   S    
C149  C167  A    
C57   C202  S    
C9    C121  S    
C168  C192  A    
O62   Zn12  S    
C24   C224  A    
C33   C69   A    
C61   C206  S    
C46   C60   A    
C95   H23   S    
C35   C71   A    
C15   C127  S    
C79   C87   T    
O23   Zn1   S    
C197  F13   S    
C226  F18   S    
O9    Zn5   S    
C73   C81   T    
C156  O44   S    
O50   Zn9   S    
C220  N20   S    
C127  O29   A    
C174  C198  A    
C91   C107  A    
C171  C195  A    
C152  N4    A    
C217  C233  A    
C169  C193  A    
C164  C188  A    
O52   Zn9   S    
C168  C180  A    
C28   C44   A    
C110  F38   S    
C221  C237  A    
C207  O59   A    
C51   N35   S    
C155  C169  A    
C18   C212  A    
C150  C168  A    
O14   Zn6   S    
C89   H17   S    
C34   H10   S    
C12   C230  A    
C217  N17   S    
N18   H52   S    
N35   H86   S    
N36   H88   S    
N40   H96   S    
C63   C208  S    
C35   C51   A    
C150  O38   S    
N20   H56   S    
C186  C199  A    
C172  C196  A    
C161  C177  A    
C90   H18   S    
C21   N4    S    
C237  F29   S    
C213  C229  A    
C22   N3    S    
C222  N22   S    
C120  F48   S    
C176  C184  A    
C11   C231  A    
C30   H6    S    
C147  O35   S    
O60   Zn11  S    
C95   C139  A    
C171  C181  A    
C218  N18   S    
C10   C122  S    
C103  C143  A    
C204  O52   A    
O11   Zn7   S    
C177  C184  A    
C145  C163  A    
C64   C205  S    
C15   C237  A    
O1    Zn1   S    
C14   C126  S    
C148  C162  A    
C191  C194  A    
C100  H28   S    
C80   C88   T    
C223  C239  A    
C194  F10   S    
C1    O1    A    
C189  C196  A    
C41   N25   S    
C119  F47   S    
C107  F35   S    
C156  C170  A    
C36   H12   S    
C19   C215  A    
O21   Zn3   S    
N27   H70   S    
C17   N8    S    
N16   H47   S    
C47   C59   A    
C18   N7    S    
C40   H16   S    
C113  C133  A    
C19   N6    S    
C39   H15   S    
C82   C138  S    
N31   H78   S    
C39   C71   A    
C28   H4    S    
O18   Zn2   S    
N21   H57   S    
C112  F40   S    
C6    O10   A    
C117  F45   S    
N13   H42   S    
C105  F33   S    
C20   C214  A    
C159  N7    A    
C69   C77   S    
C160  N8    A    
O31   Zn5   S    
N28   H72   S    
C71   C79   S    
C4    C132  S    
N33   H81   S    
C5    C133  S    
C40   C70   A    
N22   H59   S    
C28   C68   A    
C49   N33   S    
C96   C138  A    
C157  N7    A    
C66   C74   S    
C205  O63   A    
C55   N39   S    
C2    C130  S    
C188  F4    S    
C53   C61   A    
C59   C204  S    
C92   C108  A    
N23   H61   S    
C115  C135  A    
N14   H43   S    
C55   C63   A    
O54   Zn10  S    
N23   H62   S    
C36   C52   A    
C43   C59   A    
C208  O60   A    
C37   C53   A    
C77   C85   T    
C11   C229  A    
C21   C217  A    
C98   C142  A    
C210  C226  A    
C216  N16   S    
C102  C144  A    
C90   C138  A    
N10   H36   S    
N24   H64   S    
C38   C72   A    
O30   Zn6   S    
N32   H79   S    
C187  C198  A    
C173  C197  A    
C26   C66   A    
N14   H44   S    
C219  C235  A    
C196  F12   S    
C85   C141  S    
C232  F24   S    
N36   H87   S    
O57   Zn11  S    
C151  C165  A    
C101  H29   S    
O19   Zn3   S    
C19   C213  A    
C103  H31   S    
C156  N6    A    
C172  C182  A    
C148  O36   S    
O12   Zn8   S    
C149  O37   S    
C167  C191  A    
C228  F20   S    
C159  O47   S    
C114  C134  A    
O53   Zn10  S    
O4    Zn4   S    
C54   N38   S    
C224  C240  A    
C175  C199  A    
C147  N1    A    
C235  F27   S    
C190  C195  A    
C29   C65   A    
C236  F28   S    
C111  C131  A    
C158  O46   S    
C23   C223  A    
C192  F8    S    
C109  C129  A    
C165  C179  A    
C67   C75   S    
C154  O42   S    
O5    Zn3   S    
C164  C178  A    
C26   C42   A    
C13   C233  A    
N15   H46   S    
C116  F44   S    
C44   N28   S    
C169  C181  A    
C30   C46   A    
C224  N24   S    
N30   H75   S    
C27   H3    S    
C152  C166  A    
C25   H1    S    
N37   H90   S    
C205  O57   A    
C113  F41   S    
C201  O55   A    
C13   C125  S    
C155  N5    A    
O61   Zn12  S    
N17   H49   S    
C203  O53   A    
O8    Zn4   S    
C8    O14   A    
C94   H22   S    
C146  N2    A    
C4    O4    A    
O28   Zn8   S    
C120  C134  A    
C121  O17   A    
C125  O25   A    
C162  C178  A    
C91   H19   S    
C238  F30   S    
C166  C180  A    
C54   C64   A    
N34   H84   S    
N29   H73   S    
C21   C219  A    
C89   C105  A    
C9    C225  A    
C202  O50   A    
C213  N13   S    
C151  N3    A    
C193  F9    S    
C204  O56   A    
C93   C109  A    
O17   Zn1   S    
N12   H39   S    
O29   Zn7   S    
C185  F1    S    
C200  F16   S    
N39   H93   S    
C100  C116  A    
C43   N27   S    
C145  N1    A    
C240  F32   S    
C187  F3    S    
C76   C84   T    
C1    O5    A    
N11   H37   S    
C2    O2    A    
C233  F25   S    
C81   C137  S    
C20   C216  A    
C176  C200  A    
C17   C209  A    
N9    H34   S    
C99   C115  A    
C33   C49   A    
N26   H67   S    
C153  N5    A    
C161  C185  A    
C7    O11   A    
C39   C55   A    
C23   C221  A    
C40   C56   A    
C163  C177  A    
C165  C189  A    
C110  C132  A    
C151  O39   S    
C34   C70   A    
C178  C183  A    
O20   Zn4   S    
C56   N40   S    
C13   C235  A    
C179  C182  A    
O56   Zn10  S    
N31   H77   S    
C160  O48   S    
C31   C47   A    
C198  F14   S    
C32   C48   A    
C209  C225  A    
C74   C82   T    
C14   C236  A    
N38   H91   S    
N25   H66   S    
C49   C61   A    
C26   H2    S    
C51   C63   A    
C90   C106  A    
C147  C161  A    
C166  C190  A    
C170  C194  A    
C203  O51   A    
N18   H51   S    
C94   C110  A    
C119  C135  A    
C109  F37   S    
C125  O27   A    
C104  H32   S    
C126  O28   A    
C186  F2    S    
C5    O13   A    
C32   C66   A    
C111  F39   S    
C38   C54   A    
C206  O62   A    
C35   H11   S    
C152  O40   S    
C27   C67   A    
C33   H9    S    
C214  N14   S    
C56   C62   A    
N16   H48   S    
C91   C139  A    
C58   C203  S    
C37   H13   S    
C100  C144  A    
C104  C142  A    
C68   C76   S    
C174  C184  A    
C214  C230  A    
C62   C207  S    
C180  C181  A    
C86   C142  S    
C2    O8    A    
N13   H41   S    
C22   C220  A    
C102  H30   S    
C160  C174  A    
C11   C123  S    
O10   Zn6   S    
C17   C211  A    
C230  F22   S    
C48   C58   A    
C116  C136  A    
C24   C222  A    
O2    Zn2   S    
C146  C164  A    
C101  C117  A    
N22   H60   S    
C41   C57   A    
C75   C83   T    
C3    O7    A    
C188  C197  A    
C44   C60   A    
C223  N23   S    
C195  F11   S    
C121  O19   A    
C146  O34   S    
C122  O20   A    
C53   N37   S    
C4    O6    A    
C124  O22   A    
C31   C67   A    
C191  F7    S    
C212  C228  A    
C27   C43   A    
C60   C201  S    
C155  O43   S    
C173  C183  A    
C72   C80   S    
N40   H95   S    
O24   Zn4   S    
C29   C45   A    
N20   H55   S    
C123  O21   A    
C42   N26   S    
C30   C68   A    
C106  F34   S    
O27   Zn7   S    
C104  C120  A    
N28   H71   S    
C52   C64   A    
C70   C78   S    
O58   Zn11  S    
N19   H53   S    
C45   N29   S    
O6    Zn2   S    
C52   N36   S    
C128  O30   A    
N15   H45   S    
C25   C41   A    
C231  F23   S    
C96   C112  A    
C99   H27   S    
N32   H80   S    
C215  C231  A    
C149  N3    A    
C98   H26   S    
C126  O26   A    
C227  F19   S    
C23   N2    S    
C6    O16   A    
N11   H38   S    
C215  N15   S    
C65   C73   S    
O13   Zn7   S    
C163  C187  A    
C202  O54   A    
O15   Zn5   S    
N19   H54   S    
C211  N11   S    
C101  C141  A    
C145  O33   S    
O7    Zn1   S    
C29   H5    S    
C46   N30   S    
N21   H58   S    
C102  C118  A    
C78   C86   T    
C3    O3    A    
C234  F26   S    
O59   Zn11  S    
C115  F43   S    
C31   H7    S    
O16   Zn8   S    
C221  N21   S    
C92   H20   S    
C12   C232  A    
C93   H21   S    
C24   N1    S    
N33   H82   S    
C34   C50   A    
C108  C132  A    
C209  N9    S    
C154  N6    A    
C25   C65   A    
C20   N5    S    
C218  C234  A    
C107  C131  A    
C162  C186  A    
C7    O15   A    
O26   Zn6   S    
C105  C129  A    
N37   H89   S    
C222  C238  A    
C118  F46   S    
C122  O18   A    
C123  O23   A    
C9    C227  A    
C7    C135  S    
C124  O24   A    
C189  F5    S    
N35   H85   S    
C12   C124  S    
C97   C141  A    
C153  C171  A    
C154  C172  A    
O3    Zn3   S    
C16   C128  S    
C16   C240  A    
O64   Zn12  S    
C157  C175  A    
C225  F17   S    
C158  C176  A    
C157  O45   S    
C83   C139  S    
C50   C62   A    
C97   C113  A    
C48   N32   S    
C158  N8    A    
C14   C234  A    
C153  O41   S    
N10   H35   S    
N24   H63   S    
C8    O12   A    
C97   H25   S    
O32   Zn8   S    
N12   H40   S    
C38   H14   S    
C175  C183  A    
C220  C236  A    
C103  C119  A    
C210  N10   S    
C5    O9    A    
C50   N34   S    
N39   H94   S    
O22   Zn2   S    
C199  F15   S    
C127  O31   A    
C206  O58   A    
C89   C137  A    
C128  O32   A    
C114  F42   S    
O25   Zn5   S    
C192  C193  A    
N30   H76   S    
C219  N19   S    
N27   H69   S    
C6    C134  S    
C95   C111  A    
N9    H33   S    
C212  N12   S    
C47   N31   S    
C239  F31   S    
C216  C232  A    
N26   H68   S    
C148  N2    A    
C185  C200  A    
C22   C218  A    
C93   C137  A    
C16   C238  A    
C36   C72   A    
C207  O61   A    
C84   C140  S    
C96   H24   S    
C159  C173  A    
C10   C226  A    
C112  C130  A    
C211  C227  A    
C87   C143  S    
C201  O49   A    
C88   C144  S    
C170  C182  A    
C92   C140  A    
