data_mof_unit_45623.cif
_audit_creation_date              2012-12-10T17:51:31-0500
_audit_creation_method            fapswitch 2.2
_symmetry_space_group_name_H-M    P1
_symmetry_Int_Tables_number       1
_space_group_crystal_system       triclinic
_cell_length_a                    9.87824
_cell_length_b                    10.729066
_cell_length_c                    16.792058
_cell_angle_alpha                 91.791945
_cell_angle_beta                  85.568858
_cell_angle_gamma                 89.569969
_cell_volume                      1773.41902561

loop_
_atom_site_label
_atom_site_type_symbol
_atom_type_description
_atom_site_fract_x
_atom_site_fract_y
_atom_site_fract_z
_atom_type_partial_charge
C1    C     C_R   0.499116 0.740006 0.494646 0.871526
C2    C     C_R   0.528685 0.523695 0.261578 -0.039028
C3    C     C_R   0.242722 0.889978 0.478004 -0.161754
C4    C     C_R   0.481488 0.506457 0.653134 0.841783
C5    C     C_R   0.120858 0.951697 0.501850 -0.142134
C6    C     C_R   0.122631 0.064681 0.544390 -0.159134
C7    C     C_R   0.246310 0.121511 0.555801 -0.157057
C8    C     C_R   0.370327 0.064855 0.524744 0.098828
C9    C     C_R   0.369040 0.940740 0.497209 0.096992
C10   C     C_R   0.494554 0.873813 0.490846 -0.121631
C11   C     C_R   0.617808 0.936122 0.494227 -0.221751
C12   C     C_R   0.345262 0.547012 0.782404 -0.210094
C13   C     C_R   0.618397 0.063053 0.504494 -0.217826
C14   C     C_R   0.495606 0.128358 0.517479 -0.133608
C15   C     C_R   0.845478 0.667429 0.602691 -0.184346
C16   C     C_R   0.498822 0.260988 0.507952 0.891518
C17   C     C_R   0.908704 0.749119 0.653654 -0.225917
C18   C     C_R   0.048614 0.747418 0.654625 -0.178270
C19   C     C_R   0.126001 0.664727 0.604165 -0.158698
C20   C     C_R   0.065291 0.581728 0.551068 0.149443
C21   C     C_R   0.920581 0.582338 0.550689 0.174389
C22   C     C_R   0.935386 0.421127 0.451551 -0.133463
C23   C     C_R   0.416944 0.560724 0.141690 -0.149093
C24   C     C_R   0.078750 0.421306 0.451472 -0.126215
C25   C     C_R   0.518416 0.501988 0.346865 0.868948
C26   C     C_R   0.470918 0.545676 0.737263 -0.028286
C27   C     C_R   0.584499 0.598620 0.769765 -0.218247
C28   C     C_R   0.573741 0.650637 0.846242 -0.159229
C29   C     C_R   0.451145 0.643394 0.893578 0.208406
C30   C     C_R   0.335739 0.595042 0.860681 -0.173376
C31   C     C_R   0.410819 0.524484 0.220265 -0.212941
C32   C     C_R   0.653602 0.556468 0.222766 -0.199176
C33   C     C_R   0.659627 0.592967 0.144039 -0.182401
C34   C     C_R   0.541139 0.597630 0.103665 0.207560
C35   C     C_2   0.447891 0.664360 0.980097 -0.244235
C36   C     C_2   0.553256 0.625838 0.019046 -0.230476
H1    H     H_    0.682009 0.601264 0.736150 0.158986
H2    H     H_    0.848479 0.813444 0.693055 0.152443
H3    H     H_    0.313500 0.498381 0.248832 0.154654
H4    H     H_    0.097701 0.810709 0.694548 0.154672
H5    H     H_    0.232725 0.669052 0.608401 0.209984
H6    H     H_    0.138577 0.357051 0.411921 0.152962
H7    H     H_    0.745940 0.556796 0.253618 0.156709
H8    H     H_    0.649083 0.599413 0.986661 0.148414
H9    H     H_    0.240246 0.589112 0.896649 0.123356
H10   H     H_    0.324947 0.556626 0.110759 0.123362
H11   H     H_    0.255399 0.509575 0.757691 0.155588
H12   H     H_    0.756715 0.617987 0.114636 0.124403
H13   H     H_    0.351500 0.689471 0.012235 0.145059
H14   H     H_    0.663062 0.691851 0.869337 0.126447
H15   H     H_    0.028263 0.110213 0.566314 0.138434
H16   H     H_    0.714592 0.887109 0.488136 0.171440
H17   H     H_    0.235636 0.804903 0.442581 0.168986
H18   H     H_    0.025037 0.910369 0.488830 0.142160
H19   H     H_    0.243708 0.209159 0.589531 0.160251
H20   H     H_    0.715387 0.109937 0.501046 0.168644
H21   H     H_    0.887027 0.356766 0.412054 0.146145
H22   H     H_    0.737762 0.672913 0.606614 0.206328
N1    N     N_R   0.857140 0.501200 0.500750 -0.119681
N2    N     N_R   0.142740 0.501280 0.500770 -0.125599
O1    O     O_R   0.385310 0.683220 0.500000 -0.650694
O2    O     O_R   0.614640 0.683250 0.500010 -0.639157
O3    O     O_R   0.371780 0.500010 0.615800 -0.643079
O4    O     O_R   0.601110 0.500030 0.615800 -0.632907
O5    O     O_R   0.385360 0.316750 0.499990 -0.621660
O6    O     O_R   0.614690 0.316780 0.500000 -0.615552
O7    O     O_R   0.398890 0.499970 0.384200 -0.618270
O8    O     O_R   0.628220 0.499990 0.384200 -0.616601
Zn1   Zn    Zn3+2 0.346870 0.499980 0.499990 0.921444
Zn2   Zn    Zn3+2 0.653130 0.500020 0.500010 0.931319

loop_
_geom_bond_atom_site_label_1
_geom_bond_atom_site_label_2
_ccdc_geom_bond_type
C35   H13   S    
C4    C26   S    
C21   N1    A    
C6    C7    A    
C3    C9    A    
O4    Zn2   S    
C6    H15   S    
C20   N2    A    
C11   C13   A    
C9    C10   A    
C4    O4    A    
C30   H9    S    
C19   C20   A    
C25   O7    A    
C7    H19   S    
C24   N2    A    
C13   H20   S    
C32   C33   A    
C23   C34   A    
C22   H21   S    
C17   C18   A    
C3    C5    A    
C7    C8    A    
C23   H10   S    
O6    Zn2   S    
C13   C14   A    
C1    O2    A    
C3    H17   S    
C4    O3    A    
C26   C27   A    
C29   C30   A    
C25   O8    A    
N2    Zn1   S    
C27   H1    S    
C12   H11   S    
O5    Zn1   S    
C22   C24   A    
O8    Zn2   S    
C28   C29   A    
C16   O5    A    
C32   H7    S    
C31   H3    S    
C33   C34   A    
C2    C25   S    
C34   C36   S    
C17   H2    S    
O3    Zn1   S    
C5    C6    A    
C27   C28   A    
C15   H22   S    
C14   C16   S    
C36   H8    S    
C16   O6    A    
C10   C11   A    
N1    Zn2   S    
C23   C31   A    
C19   H5    S    
C5    H18   S    
C15   C21   A    
C24   H6    S    
C20   C21   A    
O2    Zn2   S    
C2    C32   A    
C18   C19   A    
O1    Zn1   S    
C22   N1    A    
C15   C17   A    
C33   H12   S    
C29   C35   S    
C2    C31   A    
C18   H4    S    
C11   H16   S    
C8    C14   A    
C12   C30   A    
C28   H14   S    
C1    C10   S    
C35   C36   D    
C12   C26   A    
C8    C9    A    
O7    Zn1   S    
C1    O1    A    
