data_mof_unit_9748.cif
_audit_creation_date              2012-12-10T17:54:21-0500
_audit_creation_method            fapswitch 2.2
_symmetry_space_group_name_H-M    P1
_symmetry_Int_Tables_number       1
_space_group_crystal_system       triclinic
_cell_length_a                    27.544833
_cell_length_b                    10.63542
_cell_length_c                    9.913154
_cell_angle_alpha                 89.900657
_cell_angle_beta                  89.678733
_cell_angle_gamma                 91.967433
_cell_volume                      2902.30410956

loop_
_atom_site_label
_atom_site_type_symbol
_atom_type_description
_atom_site_fract_x
_atom_site_fract_y
_atom_site_fract_z
_atom_type_partial_charge
C1    C     C_R   0.501700 0.260747 0.500024 0.856927
C2    C     C_R   0.976007 0.535361 0.358903 0.078532
C3    C     C_R   0.977464 0.664284 0.566309 -0.093034
C4    C     C_R   0.406081 0.501500 0.500096 0.917368
C5    C     C_R   0.951289 0.596764 0.464822 0.019137
C6    C     C_R   0.948512 0.478471 0.254245 -0.230014
C7    C     C_R   0.898230 0.472706 0.259448 -0.136330
C8    C     C_R   0.873639 0.524055 0.368642 0.003240
C9    C     C_R   0.899933 0.587733 0.470684 -0.056491
C10   C     C_R   0.874780 0.640584 0.579362 -0.098784
C11   C     C_R   0.823954 0.629232 0.583860 0.536345
C12   C     C_R   0.272321 0.485943 0.590766 -0.130674
C13   C     C_R   0.823048 0.512430 0.378537 0.502559
C14   C     C_R   0.724853 0.488191 0.600258 -0.095133
C15   C     C_R   0.674485 0.471753 0.603751 -0.233625
C16   C     C_R   0.501809 0.739480 0.499824 0.863606
C17   C     C_R   0.669410 0.581119 0.389208 -0.211362
C18   C     C_R   0.719490 0.599702 0.387255 -0.094207
C19   C     C_R   0.747467 0.552115 0.491799 0.297730
C20   C     C_R   0.027191 0.530605 0.362306 0.044985
C21   C     C_R   0.053330 0.605418 0.457216 0.074220
C22   C     C_R   0.028671 0.680006 0.552228 0.042538
C23   C     C_R   0.255157 0.569342 0.491858 0.195906
C24   C     C_R   0.053177 0.450919 0.276052 -0.241213
C25   C     C_R   0.106789 0.767930 0.628469 -0.174405
C26   C     C_R   0.951319 0.707498 0.681005 0.444483
C27   C     C_R   0.900717 0.699577 0.683364 -0.217549
C28   C     C_R   0.593956 0.502261 0.499546 0.839869
C29   C     C_R   0.056346 0.768317 0.628618 -0.166926
C30   C     C_R   0.580404 0.137803 0.637451 -0.177881
C31   C     C_R   0.616973 0.075262 0.703996 -0.128336
C32   C     C_R   0.617112 0.944467 0.703342 -0.123443
C33   C     C_R   0.580667 0.875727 0.636207 -0.192409
C34   C     C_R   0.104660 0.604114 0.458731 -0.048545
C35   C     C_R   0.542820 0.937629 0.569962 0.094465
C36   C     C_R   0.542715 0.069519 0.570442 0.101121
C37   C     C_R   0.505575 0.128728 0.499215 -0.092556
C38   C     C_R   0.471390 0.061565 0.422797 -0.219424
C39   C     C_R   0.471164 0.933254 0.423503 -0.194693
C40   C     C_R   0.179803 0.515774 0.383018 0.579538
C41   C     C_R   0.505621 0.872081 0.498963 -0.096992
C42   C     C_R   0.436886 0.332964 0.141536 -0.149757
C43   C     C_R   0.406390 0.249144 0.072032 -0.195292
C44   C     C_R   0.406620 0.248682 0.932435 -0.119338
C45   C     C_R   0.129424 0.522710 0.372572 -0.019845
C46   C     C_R   0.437113 0.332594 0.861558 -0.096666
C47   C     C_R   0.468970 0.417555 0.928495 0.141959
C48   C     C_R   0.468930 0.417651 0.073031 0.173903
C49   C     C_R   0.529767 0.578833 0.070868 -0.105071
C50   C     C_R   0.529740 0.578840 0.927731 -0.101489
C51   C     C_R   0.181730 0.672779 0.555010 0.557469
C52   C     C_R   0.287104 0.628352 0.400253 -0.109416
C53   C     C_R   0.336159 0.605321 0.404496 -0.281518
C54   C     C_R   0.322077 0.456903 0.589085 0.434231
C55   C     C_3   0.325066 0.243862 0.624836 0.128654
C56   C     C_R   0.103384 0.447101 0.281423 -0.127749
C57   C     C_3   0.365324 0.187601 0.540827 -0.920101
C58   C     C_3   0.984901 0.649142 0.879215 0.079523
C59   C     C_3   0.013509 0.696784 0.000647 -0.777857
C60   C     C_2   0.238995 0.428374 0.694455 0.937055
C61   C     C_R   0.131222 0.682501 0.548164 -0.016754
C62   C     C_R   0.353929 0.520393 0.498535 -0.135136
C63   C     C_R   0.646684 0.516979 0.497299 -0.034355
H1    H     H_    0.273606 0.691924 0.324817 0.159061
H2    H     H_    0.645888 0.896108 0.753540 0.152264
H3    H     H_    0.583120 0.774519 0.634709 0.147649
H4    H     H_    0.443366 0.881280 0.367470 0.154707
H5    H     H_    0.554100 0.643220 0.124104 0.144107
H6    H     H_    0.434247 0.328503 0.248503 0.198217
H7    H     H_    0.382359 0.184397 0.127006 0.155997
H8    H     H_    0.382913 0.183135 0.878757 0.160407
H9    H     H_    0.434703 0.328728 0.754751 0.220286
H10   H     H_    0.554037 0.643277 0.873427 0.144736
H11   H     H_    0.121653 0.383029 0.214890 0.192625
H12   H     H_    0.126513 0.834156 0.692527 0.193553
H13   H     H_    0.657363 0.422260 0.687977 0.153285
H14   H     H_    0.746351 0.450375 0.680931 0.152116
H15   H     H_    0.878712 0.426577 0.177737 0.187939
H16   H     H_    0.964886 0.439068 0.165537 0.135821
H17   H     H_    0.035573 0.386385 0.206684 0.147703
H18   H     H_    0.360398 0.654152 0.333913 0.180526
H19   H     H_    0.290889 0.241736 0.564825 0.139446
H20   H     H_    0.317786 0.181806 0.713289 0.183881
H21   H     H_    0.398958 0.182462 0.601172 0.251853
H22   H     H_    0.354085 0.090982 0.508812 0.237143
H23   H     H_    0.648388 0.618602 0.307270 0.155410
H24   H     H_    0.372691 0.245604 0.449354 0.235920
H25   H     H_    0.007462 0.580261 0.824777 0.150586
H26   H     H_    0.950849 0.600646 0.916059 0.147157
H27   H     H_    0.991198 0.760997 0.061453 0.261216
H28   H     H_    0.023600 0.616212 0.064522 0.210249
H29   H     H_    0.047234 0.747992 0.966713 0.258680
H30   H     H_    0.171565 0.362793 0.743863 0.346717
H31   H     H_    0.881975 0.735886 0.770674 0.210480
H32   H     H_    0.736712 0.650046 0.303790 0.152330
H33   H     H_    0.039847 0.841004 0.686971 0.212023
H34   H     H_    0.443964 0.108646 0.365390 0.152920
H35   H     H_    0.582675 0.239402 0.636977 0.153725
H36   H     H_    0.645645 0.128541 0.754683 0.142970
N1    N     N_R   0.204467 0.587543 0.475909 -0.328694
N2    N     N_R   0.799283 0.565009 0.484818 -0.353632
N3    N     N_R   0.499540 0.498800 0.142780 -0.120997
N4    N     N_R   0.499520 0.498720 0.857170 -0.123426
O1    O     O_R   0.500000 0.316780 0.614690 -0.649767
O2    O     O_R   0.571250 0.499990 0.614680 -0.633141
O3    O     O_R   0.571240 0.499970 0.385350 -0.609909
O4    O     O_2   0.203992 0.435976 0.303332 -0.547302
O5    O     O_3   0.339695 0.364867 0.673089 -0.602577
O6    O     O_3   0.974176 0.752274 0.795852 -0.625324
O7    O     O_2   0.254408 0.403984 0.806644 -0.570924
O8    O     O_R   0.190210 0.401237 0.664634 -0.818221
O9    O     O_2   0.797769 0.447384 0.283716 -0.562628
O10   O     O_2   0.207820 0.745628 0.641379 -0.560303
O11   O     O_2   0.799347 0.682294 0.685923 -0.566067
O12   O     O_R   0.500000 0.316750 0.385360 -0.627155
O13   O     O_R   0.428760 0.500030 0.614650 -0.590789
O14   O     O_R   0.428750 0.500010 0.385320 -0.647809
O15   O     O_R   0.500000 0.683250 0.614640 -0.616493
O16   O     O_R   0.500000 0.683220 0.385310 -0.616898
Zn1   Zn    Zn3+2 0.500000 0.500020 0.653130 0.945972
Zn2   Zn    Zn3+2 0.500000 0.499980 0.346870 0.941386

loop_
_geom_bond_atom_site_label_1
_geom_bond_atom_site_label_2
_ccdc_geom_bond_type
C10   C27   A    
C8    C13   A    
O12   Zn2   S    
C49   H5    S    
C58   O6    S    
N4    Zn1   S    
C51   C61   A    
C23   C52   A    
C7    C8    A    
C39   C41   A    
C31   C32   A    
C12   C23   A    
C26   C27   A    
C51   O10   S    
C36   C37   A    
C22   C29   A    
C13   O9    S    
C30   C31   A    
C4    C62   S    
C44   H8    S    
C53   H18   S    
C18   C19   A    
C14   H14   S    
C11   O11   S    
O14   Zn2   S    
C24   H17   S    
C20   C24   A    
C45   C56   A    
C28   O3    A    
C8    C9    A    
O2    Zn1   S    
C31   H36   S    
N3    Zn2   S    
C9    C10   A    
C46   H9    S    
C1    C37   S    
C23   N1    S    
C50   N4    A    
C21   C22   A    
C18   H32   S    
C2    C6    A    
C38   H34   S    
C44   C46   A    
C33   H3    S    
O16   Zn2   S    
C25   C29   A    
C40   C45   A    
C56   H11   S    
C2    C20   A    
C17   H23   S    
C47   N4    A    
C52   H1    S    
C50   H10   S    
C49   N3    A    
C25   C61   A    
C21   C34   A    
C54   C62   A    
C58   C59   S    
C42   H6    S    
C57   H24   S    
C25   H12   S    
C35   C36   A    
C43   C44   A    
C5    C9    A    
C37   C38   A    
C16   O15   A    
C53   C62   A    
C47   C48   A    
C1    O1    A    
C28   O2    A    
C48   N3    A    
C17   C18   A    
C57   H21   S    
C11   N2    A    
C34   C45   A    
C42   C48   A    
C55   H19   S    
C26   O6    S    
H30   O8    S    
C40   O4    S    
C43   H7    S    
C7    H15   S    
C4    O14   A    
C16   O16   A    
C2    C5    A    
C42   C43   A    
C13   N2    A    
C52   C53   A    
C59   H28   S    
C51   N1    A    
C46   C47   A    
C39   H4    S    
C14   C19   A    
C4    O13   A    
C3    C26   A    
C3    C5    A    
C58   H25   S    
C40   N1    A    
C29   H33   S    
C6    C7    A    
C54   O5    S    
C24   C56   A    
C30   H35   S    
C30   C36   A    
C55   O5    S    
C32   C33   A    
C55   C57   S    
C27   H31   S    
C60   O8    S    
C17   C63   A    
C19   N2    S    
C6    H16   S    
C38   C39   A    
O3    Zn2   S    
C33   C35   A    
C57   H22   S    
C15   H13   S    
C59   H29   S    
C34   C61   A    
C35   C41   A    
C58   H26   S    
O15   Zn1   S    
C60   O7    D    
C10   C11   A    
C12   C60   S    
C28   C63   S    
O13   Zn1   S    
C20   C21   A    
C49   C50   A    
C15   C63   A    
C14   C15   A    
C3    C22   A    
C1    O12   A    
C55   H20   S    
C16   C41   S    
C59   H27   S    
C12   C54   A    
C32   H2    S    
O1    Zn1   S    
