data_mof_unit_45505.cif
_audit_creation_date              2012-10-26T21:04:07-0400
_audit_creation_method            fapswitch 2.2
_symmetry_space_group_name_H-M    P1
_symmetry_Int_Tables_number       1
_space_group_crystal_system       triclinic
_cell_length_a                    15.111973
_cell_length_b                    13.87451
_cell_length_c                    10.784724
_cell_angle_alpha                 90.217025
_cell_angle_beta                  90.926311
_cell_angle_gamma                 89.654344
_cell_volume                      2260.89418794

loop_
_atom_site_label
_atom_site_type_symbol
_atom_type_description
_atom_site_fract_x
_atom_site_fract_y
_atom_site_fract_z
_atom_type_partial_charge
C1    C     C_R   0.329688 0.500160 0.500544 0.608943
C2    C     C_R   0.451460 0.107489 0.408870 0.293183
C3    C     C_R   0.549399 0.207663 0.585801 0.365653
C4    C     C_R   0.449375 0.209942 0.413540 0.357063
C5    C     C_R   0.497024 0.054547 0.500518 -0.006438
C6    C     C_R   0.418693 0.892779 0.503679 0.243879
C7    C     C_R   0.578276 0.893424 0.496401 0.232062
C8    C     C_R   0.421614 0.791091 0.502653 0.091046
C9    C     C_R   0.577521 0.791605 0.498001 0.030842
C10   C     C_R   0.497912 0.945744 0.499724 0.096118
C11   C     C_R   0.500744 0.499671 0.262824 0.583382
C12   C     C_R   0.669864 0.499770 0.500273 0.604070
C13   C     C_R   0.503408 0.500453 0.737248 0.597964
C14   C     C_R   0.454397 0.562500 0.061467 -0.145755
C15   C     C_R   0.458849 0.566662 0.936851 -0.139113
C16   C     C_R   0.505289 0.498692 0.130549 -0.048963
C17   C     C_R   0.509669 0.502283 0.869877 -0.041531
C18   C     C_R   0.563025 0.435314 0.067370 0.235960
C19   C     C_R   0.568167 0.440618 0.936294 0.241859
C20   C     C_3   0.384991 0.639668 0.925396 0.668411
C21   C     C_3   0.378464 0.633182 0.068721 0.682151
C22   C     C_R   0.092003 0.581204 0.466205 0.256174
C23   C     C_R   0.187816 0.417410 0.542640 0.296503
C24   C     C_R   0.904442 0.564670 0.579927 0.262841
C25   C     C_R   0.184196 0.581986 0.465960 0.323286
C26   C     C_R   0.812240 0.567496 0.573634 0.273192
C27   C     C_R   0.232723 0.500007 0.503015 -0.062145
C28   C     C_R   0.766024 0.499212 0.502184 -0.077457
C29   C     C_3   0.592383 0.278782 0.117395 0.034854
C30   C     C_3   0.642883 0.214813 0.208582 -0.324502
C31   C     C_3   0.711618 0.447682 0.873061 0.019521
C32   C     C_3   0.790429 0.389545 0.922160 -0.381898
C33   C     C_3   0.313038 0.954783 0.628405 -0.016998
C34   C     C_R   0.811973 0.429834 0.433496 0.283951
C35   C     C_3   0.227073 0.012320 0.630268 -0.328419
C36   C     C_3   0.685783 0.950012 0.372367 -0.022159
C37   C     C_3   0.766384 0.015001 0.368920 -0.363951
C38   C     C_3   0.495490 0.759649 0.891987 -0.023928
C39   C     C_3   0.505136 0.865702 0.860307 -0.318806
C40   C     C_3   0.284157 0.498988 0.108639 0.002757
C41   C     C_3   0.187433 0.475111 0.128803 -0.366699
C42   C     C_3   0.025886 0.664508 0.307972 0.016857
C43   C     C_3   0.985094 0.761208 0.272587 -0.334890
C44   C     C_3   0.953106 0.600888 0.775256 0.007332
C45   C     C_R   0.095820 0.416376 0.545449 0.262965
C46   C     C_3   0.005917 0.672744 0.852835 -0.331192
C47   C     C_3   0.031111 0.336489 0.705034 0.020324
C48   C     C_3   0.025908 0.234582 0.755672 -0.350539
C49   C     C_3   0.957710 0.394028 0.241704 0.015784
C50   C     C_3   0.985830 0.310438 0.159438 -0.358883
C51   C     C_3   0.693030 0.248805 0.630992 0.053968
C52   C     C_3   0.744219 0.171404 0.702791 -0.348609
C53   C     C_3   0.313938 0.242370 0.316897 0.055615
C54   C     C_3   0.286161 0.217696 0.184240 -0.361940
C55   C     C_R   0.904103 0.430179 0.432513 0.250052
C56   C     C_R   0.047502 0.498291 0.506561 -0.049077
C57   C     C_R   0.950619 0.497301 0.506819 -0.051618
C58   C     C_R   0.543188 0.106214 0.592285 0.302235
Cu1   Cu    Cu3+1 0.500000 0.596430 0.500000 1.064900
Cu2   Cu    Cu3+1 0.500000 0.403570 0.500000 1.108042
F1    F     F_    0.312111 0.601966 0.863109 -0.619563
F2    F     F_    0.402647 0.716981 0.130200 -0.579224
F3    F     F_    0.225488 0.662352 0.425672 -0.579626
F4    F     F_    0.768036 0.635235 0.640153 -0.635229
F5    F     F_    0.232726 0.337732 0.581869 -0.621143
F6    F     F_    0.767632 0.363952 0.363264 -0.631462
F7    F     F_    0.580702 0.058379 0.689432 -0.640023
F8    F     F_    0.411145 0.059986 0.313556 -0.614713
H1    H     H_    0.359922 0.752912 0.505362 0.230545
H2    H     H_    0.800442 0.324054 0.864916 0.137083
H3    H     H_    0.851341 0.433743 0.918965 0.061548
H4    H     H_    0.779324 0.367890 0.019620 0.202631
H5    H     H_    0.364246 0.996700 0.680608 0.134422
H6    H     H_    0.302242 0.884723 0.675865 0.169339
H7    H     H_    0.173973 0.972210 0.580252 0.186630
H8    H     H_    0.206734 0.024590 0.727578 0.107038
H9    H     H_    0.236354 0.083222 0.584886 0.184305
H10   H     H_    0.633026 0.982823 0.312285 0.139980
H11   H     H_    0.704410 0.878104 0.334307 0.133390
H12   H     H_    0.640062 0.753754 0.496977 0.192454
H13   H     H_    0.821006 0.983760 0.426316 0.177336
H14   H     H_    0.788941 0.022276 0.271936 0.101033
H15   H     H_    0.749306 0.087605 0.405394 0.155545
H16   H     H_    0.536174 0.717482 0.826187 0.158217
H17   H     H_    0.521869 0.748655 0.987680 0.166661
H18   H     H_    0.465114 0.910574 0.924169 0.191475
H19   H     H_    0.575655 0.887061 0.869321 0.152991
H20   H     H_    0.482296 0.878606 0.763536 0.158449
H21   H     H_    0.323752 0.466040 0.185303 0.123385
H22   H     H_    0.303675 0.466647 0.018535 0.156711
H23   H     H_    0.607028 0.253095 0.022085 0.180569
H24   H     H_    0.145079 0.510859 0.057264 0.166632
H25   H     H_    0.177572 0.396073 0.122477 0.086743
H26   H     H_    0.167358 0.499905 0.222074 0.133679
H27   H     H_    0.976620 0.607758 0.285326 0.083454
H28   H     H_    0.086315 0.653506 0.251640 0.175452
H29   H     H_    0.032661 0.820072 0.293194 0.191948
H30   H     H_    0.968413 0.761752 0.171913 0.086070
H31   H     H_    0.923693 0.773862 0.325709 0.165419
H32   H     H_    0.986855 0.529757 0.783107 0.081707
H33   H     H_    0.885497 0.595982 0.814215 0.160685
H34   H     H_    0.520275 0.270358 0.134394 0.169776
H35   H     H_    0.973681 0.744837 0.848820 0.173582
H36   H     H_    0.009266 0.648544 0.950886 0.078953
H37   H     H_    0.074272 0.678165 0.817209 0.203109
H38   H     H_    0.964807 0.370713 0.713483 0.098704
H39   H     H_    0.080170 0.376811 0.763564 0.133370
H40   H     H_    0.092204 0.199676 0.753124 0.177606
H41   H     H_    0.003101 0.236636 0.853022 0.078637
H42   H     H_    0.978676 0.191346 0.698922 0.164272
H43   H     H_    0.010090 0.449634 0.239054 0.086696
H44   H     H_    0.894779 0.424404 0.202423 0.151254
H45   H     H_    0.630024 0.238440 0.305090 0.196282
H46   H     H_    0.933801 0.254219 0.157769 0.168598
H47   H     H_    0.995822 0.336481 0.063441 0.072812
H48   H     H_    0.048794 0.278600 0.195185 0.161583
H49   H     H_    0.725135 0.318671 0.652256 0.157681
H50   H     H_    0.700698 0.237026 0.529244 0.140660
H51   H     H_    0.733981 0.099632 0.659587 0.221913
H52   H     H_    0.816086 0.186991 0.700064 0.072397
H53   H     H_    0.723378 0.169992 0.801059 0.197118
H54   H     H_    0.277841 0.308865 0.343827 0.168313
H55   H     H_    0.291911 0.184052 0.380118 0.182570
H56   H     H_    0.621028 0.139025 0.197206 0.086433
H57   H     H_    0.318516 0.149848 0.153841 0.228311
H58   H     H_    0.213276 0.208501 0.178385 0.097948
H59   H     H_    0.305549 0.276521 0.120837 0.128973
H60   H     H_    0.715029 0.218706 0.191290 0.181173
H61   H     H_    0.708223 0.516256 0.927748 0.124174
H62   H     H_    0.724186 0.467957 0.775599 0.150024
N1    N     N_R   0.500000 0.258690 0.500000 -0.286996
N2    N     N_R   0.500000 0.741330 0.500000 -0.299098
O1    O     O_R   0.371460 0.581430 0.500010 -0.455731
O2    O     O_3   0.634011 0.390628 0.875453 -0.523859
O3    O     O_3   0.337758 0.939609 0.504194 -0.502782
O4    O     O_3   0.658091 0.941424 0.496128 -0.530588
O5    O     O_3   0.405104 0.733727 0.880571 -0.501152
O6    O     O_3   0.294418 0.600373 0.109790 -0.471008
O7    O     O_3   0.046094 0.664754 0.436124 -0.463846
O8    O     O_3   0.949691 0.632199 0.650877 -0.465987
O9    O     O_3   0.054134 0.331998 0.578711 -0.475942
O10   O     O_3   0.948242 0.360806 0.364329 -0.478580
O11   O     O_3   0.603735 0.255591 0.669411 -0.468683
O12   O     O_R   0.628540 0.581430 0.499990 -0.491194
O13   O     O_3   0.405842 0.261921 0.321420 -0.534699
O14   O     O_R   0.371470 0.418560 0.500010 -0.452198
O15   O     O_R   0.628530 0.418560 0.499990 -0.470383
O16   O     O_R   0.499990 0.581450 0.319660 -0.470800
O17   O     O_R   0.500010 0.581450 0.680340 -0.508960
O18   O     O_R   0.500010 0.418580 0.319660 -0.452035
O19   O     O_R   0.499990 0.418580 0.680340 -0.434526
O20   O     O_3   0.619519 0.375325 0.134228 -0.514647

loop_
_geom_bond_atom_site_label_1
_geom_bond_atom_site_label_2
_ccdc_geom_bond_type
C7    C10   A    
C48   H42   S    
C23   C45   A    
C43   H30   S    
C39   H19   S    
C34   F6    S    
C6    C8    A    
C32   H4    S    
C53   C54   S    
C24   O8    S    
C19   O2    S    
C54   H58   S    
C35   H7    S    
C8    H1    S    
C29   C30   S    
C5    C58   A    
C12   C28   S    
C42   H28   S    
C39   H20   S    
C14   C21   S    
C36   C37   S    
C43   H31   S    
C18   C19   A    
C31   H62   S    
C2    F8    S    
C53   H54   S    
C38   C39   S    
C18   O20   S    
C11   O16   A    
C46   H37   S    
C51   H50   S    
C56   C57   S    
C15   C17   A    
C50   H47   S    
C25   F3    S    
C20   F1    S    
C26   F4    S    
C51   H49   S    
C41   H25   S    
C41   H26   S    
C45   C56   A    
C24   C57   A    
C22   C25   A    
C40   O6    S    
C8    N2    A    
Cu2   O15   S    
C23   C27   A    
C40   H21   S    
C32   H3    S    
C50   H48   S    
C49   H43   S    
Cu1   O16   S    
C48   H41   S    
C28   C34   A    
Cu1   Cu2   S    
C44   O8    S    
C55   O10   S    
C45   O9    S    
C37   H13   S    
C1    O14   A    
Cu2   O14   S    
C21   O6    S    
C31   O2    S    
C1    O1    A    
C36   O4    S    
Cu2   N1    S    
C44   C46   S    
C4    N1    A    
C33   H6    S    
Cu1   O17   S    
C15   C20   S    
Cu1   N2    S    
C54   H57   S    
C30   H60   S    
C35   H8    S    
C38   H17   S    
C51   C52   S    
C3    O11   S    
C13   O19   A    
C53   H55   S    
C17   C19   A    
C22   C56   A    
C46   H36   S    
C22   O7    S    
Cu1   O1    S    
C42   H27   S    
C50   H46   S    
C9    H12   S    
C20   O5    S    
C2    C4    A    
C3    C58   A    
C6    O3    S    
C52   H53   S    
C33   O3    S    
C11   O18   A    
C47   C48   S    
C47   H38   S    
C49   O10   S    
C53   O13   S    
C34   C55   A    
Cu2   O18   S    
C21   F2    S    
C49   H44   S    
C52   H52   S    
C33   H5    S    
C40   C41   S    
C30   H56   S    
Cu1   O12   S    
C47   H39   S    
C55   C57   A    
C3    N1    A    
C37   H14   S    
C2    C5    A    
C42   C43   S    
C29   H23   S    
C12   O15   A    
C54   H59   S    
C9    N2    A    
C7    C9    A    
C38   H16   S    
C42   O7    S    
C31   C32   S    
C43   H29   S    
C24   C26   A    
C36   H11   S    
C6    C10   A    
C32   H2    S    
C44   H33   S    
C51   O11   S    
C25   C27   A    
C46   H35   S    
C47   O9    S    
C26   C28   A    
C13   C17   S    
C23   F5    S    
C13   O17   A    
C7    O4    S    
C31   H61   S    
C36   H10   S    
C29   O20   S    
C44   H32   S    
C48   H40   S    
C4    O13   S    
C33   C35   S    
C38   O5    S    
C35   H9    S    
C29   H34   S    
C14   C16   A    
C11   C16   S    
C52   H51   S    
C12   O12   A    
C58   F7    S    
C5    C10   S    
C41   H24   S    
C20   C21   S    
C16   C18   A    
C49   C50   S    
C1    C27   S    
C14   C15   A    
C37   H15   S    
C39   H18   S    
C40   H22   S    
Cu2   O19   S    
C30   H45   S    
