data_mof_unit_41795.cif
_audit_creation_date              2012-12-10T17:23:08-0500
_audit_creation_method            fapswitch 2.2
_symmetry_space_group_name_H-M    P1
_symmetry_Int_Tables_number       1
_space_group_crystal_system       triclinic
_cell_length_a                    15.858611
_cell_length_b                    10.821596
_cell_length_c                    9.649079
_cell_angle_alpha                 90.486777
_cell_angle_beta                  90.363137
_cell_angle_gamma                 93.599818
_cell_volume                      1652.56524974

loop_
_atom_site_label
_atom_site_type_symbol
_atom_type_description
_atom_site_fract_x
_atom_site_fract_y
_atom_site_fract_z
_atom_type_partial_charge
C1    C     C_R   0.485864 0.263169 0.499003 0.795735
C2    C     C_3   0.083235 0.502390 0.499382 -0.004450
C3    C     C_3   0.976995 0.614070 0.539187 0.382569
C4    C     C_3   0.916788 0.502680 0.500001 -0.027564
C5    C     C_3   0.030941 0.587806 0.411565 0.043802
C6    C     C_3   0.969812 0.476212 0.370857 -0.179548
C7    C     C_1   0.174920 0.501308 0.498878 0.072140
C8    C     C_1   0.825117 0.501914 0.500555 0.075821
C9    C     C_R   0.427795 0.109615 0.745310 0.173868
C10   C     C_R   0.458697 0.070032 0.871978 -0.121596
C11   C     C_R   0.514845 0.975298 0.875092 0.185142
C12   C     C_R   0.340091 0.499740 0.499612 0.802376
C13   C     C_R   0.529555 0.909924 0.752497 -0.141233
C14   C     C_R   0.496012 0.946839 0.625556 0.017500
C15   C     C_R   0.462071 0.063118 0.622715 0.051332
C16   C     C_R   0.463705 0.127727 0.497701 -0.123051
C17   C     C_R   0.456501 0.058076 0.374016 0.176670
C18   C     C_R   0.470716 0.931560 0.377369 -0.189998
C19   C     C_R   0.494912 0.875233 0.501382 -0.131925
C20   C     C_R   0.623144 0.648845 0.146659 -0.150460
C21   C     C_R   0.690324 0.710034 0.077623 0.127855
C22   C     C_R   0.691672 0.706305 0.934230 -0.179859
C23   C     C_R   0.501633 0.739128 0.500740 0.784196
C24   C     C_R   0.626727 0.642600 0.861047 -0.198827
C25   C     C_R   0.562468 0.569481 0.927261 0.208359
C26   C     C_R   0.561521 0.571232 0.076193 0.166522
C27   C     C_R   0.439890 0.435131 0.072577 -0.056102
C28   C     C_R   0.439152 0.437183 0.925343 -0.030554
C29   C     C_R   0.659889 0.500506 0.500357 0.809161
C30   C     C_3   0.968392 0.416310 0.588911 -0.235503
C31   C     C_3   0.022960 0.390078 0.459866 -0.200231
C32   C     C_1   0.250430 0.500463 0.498921 -0.131518
C33   C     C_1   0.749569 0.501304 0.500864 -0.137154
C34   C     C_3   0.029439 0.528608 0.626641 0.384991
Cu1   Cu    Cu3+1 0.499990 0.499990 0.640660 0.959541
Cu2   Cu    Cu3+1 0.500010 0.500010 0.359340 0.941214
H1    H     H_    0.042923 0.297798 0.427239 0.187629
H2    H     H_    0.571466 0.836975 0.755364 0.152340
H3    H     H_    0.462437 0.877245 0.282905 0.173777
H4    H     H_    0.390306 0.381923 0.126056 0.139292
H5    H     H_    0.619760 0.668749 0.254364 0.198691
H6    H     H_    0.740498 0.759343 0.878402 0.206206
H7    H     H_    0.626698 0.660453 0.753202 0.195481
H8    H     H_    0.387721 0.389193 0.870650 0.150205
H9    H     H_    0.941724 0.346154 0.662519 0.196977
H10   H     H_    0.944292 0.455225 0.265268 0.180427
H11   H     H_    0.438050 0.112121 0.966033 0.132722
N1    N     N_R   0.500800 0.501210 0.147910 -0.193994
N2    N     N_R   0.500830 0.501290 0.852040 -0.192097
O1    O     O_R   0.499990 0.319640 0.618810 -0.568573
O2    O     O_R   0.500000 0.319660 0.381240 -0.566475
O3    O     O_R   0.379070 0.499980 0.618770 -0.568220
O4    O     O_R   0.379080 0.500000 0.381190 -0.578795
O5    O     O_R   0.500000 0.680340 0.618760 -0.589073
O6    O     O_R   0.500010 0.680360 0.381190 -0.601436
O7    O     O_R   0.620920 0.500000 0.618810 -0.582443
O8    O     O_R   0.620930 0.500020 0.381230 -0.587277
C35   C     C_3   0.555893 0.939197 0.007457 -0.868759
H12   H     H_    0.544047 0.004328 0.092873 0.239924
H13   H     H_    0.531312 0.844956 0.036916 0.239980
H14   H     H_    0.625251 0.940911 0.992962 0.245720
C36   C     C_3   0.758398 0.784882 0.155723 -0.762976
H15   H     H_    0.748767 0.780162 0.269541 0.238577
H16   H     H_    0.820828 0.748882 0.132155 0.257305
H17   H     H_    0.758834 0.883330 0.124147 0.231898
C37   C     C_3   0.067087 0.684103 0.310633 -0.722438
H18   H     H_    0.014817 0.730772 0.260102 0.250039
H19   H     H_    0.108763 0.753907 0.367227 0.259711
H20   H     H_    0.104330 0.638364 0.230248 0.227680
S1    S     S_3+6 0.943831 0.762599 0.588707 0.036360
O9    O     O_2   0.892541 0.813223 0.473287 -0.285932
O10   O     O_2   0.890232 0.750608 0.716399 -0.286834
O11   O     O_3   0.028869 0.859919 0.619878 -0.497891
H21   H     H_    0.036014 0.861665 0.721917 0.390988
S2    S     S_3+6 0.070102 0.559616 0.796960 0.016549
O12   O     O_2   0.113538 0.448773 0.847255 -0.293777
O13   O     O_2   0.132358 0.670089 0.793995 -0.289577
O14   O     O_3   0.990064 0.588142 0.903619 -0.505354
H22   H     H_    0.016872 0.603267 0.995694 0.363967
C38   C     C_3   0.422560 0.112676 0.244246 -0.864526
H23   H     H_    0.395379 0.038577 0.173988 0.228733
H24   H     H_    0.370633 0.173109 0.269807 0.232507
H25   H     H_    0.473613 0.167803 0.190659 0.245102
C39   C     C_3   0.346657 0.175190 0.740282 -0.835440
H26   H     H_    0.297502 0.114329 0.686745 0.245811
H27   H     H_    0.322952 0.194096 0.845921 0.223752
H28   H     H_    0.353370 0.262728 0.682311 0.234318

loop_
_geom_bond_atom_site_label_1
_geom_bond_atom_site_label_2
_ccdc_geom_bond_type
C27   N1    A    
C37   H19   S    
O11   H21   S    
C30   H9    S    
C2    C7    S    
C39   H28   S    
C4    C8    S    
C20   H5    S    
C22   H6    S    
C39   H27   S    
C30   C31   S    
C37   H20   S    
C35   H13   S    
C15   C16   A    
C29   C33   S    
C18   C19   A    
C18   H3    S    
C36   H16   S    
Cu2   O4    S    
Cu1   Cu2   S    
C16   C17   A    
Cu1   N2    S    
Cu2   N1    S    
S1    O9    D    
C11   C35   S    
C9    C10   A    
C12   O4    A    
C26   N1    A    
C34   S2    S    
C2    C34   S    
C35   H14   S    
C6    C31   S    
C13   C14   A    
C12   C32   S    
Cu1   O5    S    
Cu1   O1    S    
C38   H25   S    
C12   O3    A    
C30   C34   S    
C3    S1    S    
C24   C25   A    
C4    C6    S    
Cu2   O8    S    
O14   H22   S    
C5    C37   S    
C3    C34   S    
C35   H12   S    
C28   H8    S    
C17   C38   S    
C31   H1    S    
C2    C31   S    
C19   C23   S    
S2    O12   D    
C36   H15   S    
S2    O13   D    
C28   N2    A    
C27   H4    S    
S1    O11   S    
C17   C18   A    
C21   C36   S    
C1    C16   S    
C39   H26   S    
C1    O2    A    
C13   H2    S    
Cu2   O2    S    
C38   H24   S    
C29   O8    A    
C22   C24   A    
C2    C5    S    
C3    C4    S    
Cu1   O3    S    
C23   O5    A    
C1    O1    A    
C7    C32   T    
C6    H10   S    
C36   H17   S    
Cu1   O7    S    
C14   C19   A    
C38   H23   S    
C3    C5    S    
C23   O6    A    
C29   O7    A    
C25   C26   A    
Cu2   O6    S    
C11   C13   A    
C5    C6    S    
C20   C26   A    
C37   H18   S    
C8    C33   T    
C9    C15   A    
S2    O14   S    
C25   N2    A    
C10   C11   A    
C9    C39   S    
C20   C21   A    
C10   H11   S    
C24   H7    S    
C14   C15   A    
S1    O10   D    
C21   C22   A    
C4    C30   S    
C27   C28   A    
