data_mof_unit_9109.cif
_audit_creation_date              2012-12-11T15:32:10-0500
_audit_creation_method            fapswitch 2.2
_symmetry_space_group_name_H-M    P1
_symmetry_Int_Tables_number       1
_space_group_crystal_system       triclinic
_cell_length_a                    13.57445
_cell_length_b                    13.574468
_cell_length_c                    27.667775
_cell_angle_alpha                 90.390564
_cell_angle_beta                  90.202822
_cell_angle_gamma                 119.894795
_cell_volume                      4419.62435404

loop_
_atom_site_label
_atom_site_type_symbol
_atom_type_description
_atom_site_fract_x
_atom_site_fract_y
_atom_site_fract_z
_atom_type_partial_charge
C1    C     C_R   0.619441 0.898391 0.431245 0.544254
C2    C     C_R   0.178557 0.928511 0.264404 -0.123472
C3    C     C_R   0.164007 0.920627 0.214139 -0.159072
C4    C     C_R   0.599704 0.218586 0.431327 0.545422
C5    C     C_R   0.142789 0.731953 0.215034 0.280455
C6    C     C_R   0.159317 0.741231 0.265360 -0.094646
C7    C     C_R   0.176099 0.838769 0.290126 -0.007617
C8    C     C_R   0.147408 0.823163 0.189245 0.043608
C9    C     C_1   0.125099 0.811982 0.137909 -0.016581
C10   C     C_1   0.201255 0.850402 0.341173 -0.053879
C11   C     C_1   0.097306 0.794244 0.095889 0.000520
C12   C     C_R   0.716840 0.439483 0.222855 -0.117727
C13   C     C_1   0.634572 0.866251 0.383519 -0.011646
C14   C     C_R   0.616095 0.725482 0.270265 -0.106103
C15   C     C_R   0.617840 0.711142 0.219583 0.285754
C16   C     C_R   0.279359 0.878780 0.430560 0.545439
C17   C     C_R   0.690502 0.914132 0.210050 -0.162080
C18   C     C_R   0.685581 0.926630 0.259937 -0.124536
C19   C     C_R   0.649544 0.832800 0.290198 0.000609
C20   C     C_R   0.657945 0.807319 0.189822 0.057484
C21   C     C_1   0.673247 0.797923 0.138755 -0.004538
C22   C     C_1   0.642847 0.847440 0.341492 -0.053641
C23   C     C_R   0.706604 0.422080 0.272761 -0.120034
C24   C     C_1   0.692049 0.787697 0.096991 0.001940
C25   C     C_R   0.642418 0.283726 0.614180 0.022455
C26   C     C_R   0.728440 0.275967 0.639095 -0.138476
C27   C     C_R   0.741951 0.296387 0.688319 -0.129932
C28   C     C_R   0.620201 0.901350 0.569104 0.535008
C29   C     C_R   0.673458 0.330282 0.712811 0.037314
C30   C     C_R   0.598005 0.352579 0.686674 -0.126425
C31   C     C_R   0.581473 0.328116 0.637552 -0.132313
C32   C     C_R   0.579014 0.307405 0.792182 -0.126961
C33   C     C_R   0.586090 0.326858 0.841744 -0.128042
C34   C     C_R   0.668618 0.313217 0.291050 0.034020
C35   C     C_R   0.788703 0.394674 0.839163 -0.122972
C36   C     C_R   0.782245 0.378654 0.789676 -0.123654
C37   C     C_R   0.678128 0.338484 0.765584 0.032336
C38   C     C_R   0.691987 0.375226 0.865075 0.024356
C39   C     C_R   0.230072 0.867147 0.615933 0.025792
C40   C     C_R   0.602153 0.223872 0.568183 0.536560
C41   C     C_R   0.263965 0.963876 0.645137 -0.125306
C42   C     C_R   0.241692 0.952504 0.694153 -0.120923
C43   C     C_R   0.182219 0.844182 0.714518 0.038972
C44   C     C_R   0.141472 0.747201 0.684697 -0.107895
C45   C     C_R   0.688805 0.348192 0.191021 0.017007
C46   C     C_R   0.166471 0.758651 0.635661 -0.120659
C47   C     C_R   0.168811 0.746150 0.791840 -0.133042
C48   C     C_R   0.139184 0.728136 0.840216 -0.164904
C49   C     C_R   0.111414 0.892066 0.840524 0.227417
C50   C     C_R   0.138634 0.907512 0.791817 -0.084491
C51   C     C_R   0.163511 0.832677 0.766813 -0.008617
C52   C     C_R   0.280284 0.881909 0.568271 0.540617
C53   C     C_R   0.104551 0.796888 0.864527 0.030027
C54   C     C_R   0.629215 0.877006 0.619372 0.037664
C55   C     C_R   0.614036 0.771897 0.633998 -0.139486
C56   C     C_1   0.695265 0.367135 0.139738 -0.070017
C57   C     C_R   0.611693 0.748945 0.683273 -0.076937
C58   C     C_R   0.619993 0.829390 0.717822 0.066102
C59   C     C_R   0.630246 0.932258 0.702559 -0.129242
C60   C     C_R   0.636123 0.956262 0.653794 -0.117287
C61   C     C_R   0.720490 0.903052 0.795235 -0.167159
C62   C     C_R   0.742456 0.889718 0.842769 -0.121708
C63   C     C_R   0.582503 0.697474 0.841586 -0.122646
C64   C     C_1   0.631579 0.265396 0.383890 -0.014603
C65   C     C_R   0.559869 0.709588 0.792796 0.274184
C66   C     C_R   0.631363 0.813296 0.769606 0.046272
C67   C     C_1   0.651525 0.292198 0.342089 -0.061261
C68   C     C_R   0.676626 0.785647 0.865807 -0.020258
C69   C     C_R   0.049374 0.761147 0.048238 0.543359
C70   C     C_R   0.714456 0.435966 0.049778 0.548987
C71   C     C_R   0.723579 0.770808 0.049520 0.539694
C72   C     C_R   0.045089 0.756769 0.910710 0.562239
C73   C     C_R   0.708177 0.428864 0.912389 0.542338
C74   C     C_R   0.717308 0.765414 0.911802 0.545580
C75   C     C_R   0.642081 0.222210 0.259242 -0.107264
C76   C     C_R   0.652158 0.239611 0.209320 -0.115630
C77   C     C_3   0.489354 0.517296 0.217607 -0.017977
C78   C     C_1   0.702261 0.391795 0.097639 -0.011184
C79   C     C_3   0.436656 0.420302 0.180917 -0.351954
C80   C     C_3   0.451078 0.517219 0.774323 -0.023630
C81   C     C_3   0.374194 0.438999 0.734306 -0.371537
C82   C     C_3   0.016708 0.548131 0.195712 -0.009215
C83   C     C_3   0.000251 0.445476 0.166613 -0.354543
C84   C     C_1   0.230598 0.861619 0.383005 -0.010520
Cl1   Cl    Cl    0.082765 0.992859 0.867971 -0.617382
Cr1   Cr    Cr6+3 0.417720 0.831920 0.499820 1.029535
Cr2   Cr    Cr6+3 0.668190 0.085770 0.500360 1.021316
Cr3   Cr    Cr6+3 0.414060 0.082260 0.499840 1.021268
Cr4   Cr    Cr6+3 0.908000 0.821090 0.979770 1.088436
Cr5   Cr    Cr6+3 0.912420 0.571130 0.979880 1.023869
Cr6   Cr    Cr6+3 0.657970 0.566940 0.980940 1.033146
H1    H     H_    0.612028 0.137482 0.273032 0.111158
H2    H     H_    0.548280 0.383991 0.704548 0.096229
H3    H     H_    0.630215 0.168461 0.185095 0.112010
H4    H     H_    0.516296 0.336994 0.618693 0.123627
H5    H     H_    0.315131 0.048723 0.630922 0.136980
H6    H     H_    0.192510 0.690182 0.773667 0.134143
H7    H     H_    0.137703 0.656354 0.857792 0.142488
H8    H     H_    0.275525 0.028680 0.716328 0.104478
H9    H     H_    0.135667 0.975816 0.773107 0.137526
H10   H     H_    0.092572 0.662679 0.699449 0.106472
H11   H     H_    0.139909 0.683210 0.613588 0.124461
H12   H     H_    0.721220 0.988183 0.187265 0.112617
H13   H     H_    0.605349 0.708893 0.607503 0.102278
H14   H     H_    0.745238 0.523866 0.209027 0.149249
H15   H     H_    0.776957 0.982687 0.777744 0.122975
H16   H     H_    0.815118 0.959569 0.860608 0.181713
H17   H     H_    0.606078 0.669974 0.694342 0.129643
H18   H     H_    0.529319 0.618960 0.860315 0.119927
H19   H     H_    0.635207 0.994816 0.728480 0.114082
H20   H     H_    0.642400 0.035553 0.642777 0.124705
H21   H     H_    0.726752 0.492902 0.296920 0.111968
H22   H     H_    0.193125 0.005054 0.283111 0.125264
H23   H     H_    0.710855 0.009874 0.274997 0.119548
H24   H     H_    0.165490 0.990373 0.194708 0.118374
H25   H     H_    0.160349 0.672833 0.284913 0.118201
H26   H     H_    0.589951 0.654068 0.294198 0.094709
H27   H     H_    0.425010 0.543258 0.225812 0.134717
H28   H     H_    0.509524 0.485304 0.250933 0.134319
H29   H     H_    0.497163 0.390324 0.172276 0.175140
H30   H     H_    0.358083 0.348441 0.195928 0.094359
H31   H     H_    0.414831 0.449384 0.147197 0.169183
H32   H     H_    0.409146 0.481338 0.809361 0.142348
H33   H     H_    0.533754 0.518363 0.772557 0.122986
H34   H     H_    0.777972 0.243441 0.621719 0.131019
H35   H     H_    0.413856 0.470867 0.698540 0.145450
H36   H     H_    0.360464 0.351954 0.739363 0.092235
H37   H     H_    0.290630 0.435327 0.735208 0.169071
H38   H     H_    0.955648 0.573684 0.181731 0.134901
H39   H     H_    0.997412 0.522646 0.234234 0.128316
H40   H     H_    0.061579 0.419186 0.178995 0.156974
H41   H     H_    0.912706 0.373485 0.171557 0.108832
H42   H     H_    0.013853 0.466749 0.127620 0.172847
H43   H     H_    0.496849 0.271955 0.774509 0.105961
H44   H     H_    0.510335 0.310367 0.861202 0.138110
H45   H     H_    0.800916 0.278482 0.707416 0.102143
H46   H     H_    0.860134 0.403900 0.770171 0.103235
H47   H     H_    0.871765 0.432162 0.856214 0.137454
O1    O     O_R   0.302900 0.805360 0.446400 -0.507617
O2    O     O_R   0.638120 0.455970 0.034270 -0.499936
O3    O     O_R   0.667540 0.672320 0.030160 -0.489405
O4    O     O_R   0.522090 0.841370 0.450730 -0.495501
O5    O     O_R   0.814460 0.840990 0.926980 -0.479611
O6    O     O_R   0.001710 0.811400 0.930110 -0.430892
O7    O     O_R   0.023410 0.659800 0.926210 -0.535490
O8    O     O_R   0.806940 0.473170 0.931090 -0.506921
O9    O     O_R   0.633420 0.451310 0.927930 -0.517007
O10   O     O_R   0.663190 0.668000 0.931580 -0.508113
O11   O     O_3   0.826130 0.653050 0.980200 -0.258277
O12   O     O_R   0.657980 0.180990 0.549630 -0.509189
O13   O     O_R   0.693280 0.995650 0.447220 -0.504845
O14   O     O_R   0.657260 0.178740 0.451050 -0.493314
O15   O     O_R   0.502640 0.195380 0.446850 -0.506385
O16   O     O_R   0.319630 0.976590 0.450330 -0.493130
O17   O     O_R   0.303680 0.807790 0.552740 -0.511077
O18   O     O_R   0.522820 0.843620 0.549310 -0.492649
O19   O     O_R   0.694060 0.998080 0.553560 -0.518418
O20   O     O_3   0.590126 0.607282 0.198226 -0.567925
O21   O     O_3   0.464878 0.626676 0.768015 -0.560537
O22   O     O_3   0.129893 0.637005 0.190586 -0.555454
O23   O     O_R   0.503420 0.197810 0.553190 -0.522647
O24   O     O_R   0.320350 0.978840 0.548910 -0.506164
O25   O     O_3   0.499990 0.999990 0.500010 -0.247614
O26   O     O_R   0.819150 0.845650 0.033320 -0.509923
O27   O     O_R   0.006060 0.815720 0.028680 -0.493968
O28   O     O_R   0.028100 0.664460 0.032550 -0.503804
O29   O     O_R   0.811290 0.477490 0.029660 -0.498340

loop_
_geom_bond_atom_site_label_1
_geom_bond_atom_site_label_2
_ccdc_geom_bond_type
C25   C31   A    
C7    C10   S    
Cr2   O25   S    
C74   O5    A    
C63   C65   A    
C75   C76   A    
C70   O2    A    
Cr5   O29   S    
C70   C78   S    
C41   C42   A    
C2    C7    A    
C12   H14   S    
C65   O21   S    
C18   H23   S    
Cr6   O9    S    
C39   C41   A    
C54   C60   A    
C52   O17   A    
C23   H21   S    
C79   H30   S    
C12   C23   A    
C26   C27   A    
C73   O9    A    
C45   C76   A    
C27   H45   S    
C74   O10   A    
C36   C37   A    
Cr5   O7    S    
C35   H47   S    
C30   C31   A    
C81   H35   S    
C2    H22   S    
Cr3   O24   S    
C41   H5    S    
C27   C29   A    
C68   C74   S    
C72   O7    A    
C16   C84   S    
C59   H19   S    
C56   C78   T    
C18   C19   A    
C49   C50   A    
Cr1   O18   S    
C69   O28   A    
C1    O4    A    
C76   H3    S    
C63   C68   A    
C61   C66   A    
C58   C66   S    
C35   C36   A    
C45   C56   S    
C8    C9    S    
Cr2   O12   S    
C1    O13   A    
C82   H39   S    
C36   H46   S    
Cr4   O26   S    
C34   C75   A    
C71   O3    A    
C23   C34   A    
Cr4   O11   S    
C39   C52   S    
C59   C60   A    
Cr2   O13   S    
Cr5   O28   S    
C15   C20   A    
Cr5   O11   S    
C14   C19   A    
Cr6   O10   S    
C44   C46   A    
C50   C51   A    
C77   C79   S    
C48   C53   A    
C4    O14   A    
C79   H31   S    
C71   O26   A    
C64   C67   T    
C49   Cl1   S    
C19   C22   S    
C15   O20   S    
C3    C8    A    
Cr6   O11   S    
C28   C54   S    
C12   C45   A    
C80   O21   S    
C47   C51   A    
C62   H16   S    
C25   C26   A    
Cr4   O5    S    
C55   H13   S    
Cr2   O19   S    
C26   H34   S    
Cr3   O16   S    
C63   H18   S    
Cr1   O17   S    
C83   H40   S    
C29   C30   A    
C82   O22   S    
C33   H44   S    
C47   C48   A    
C5    O22   S    
C6    H25   S    
C79   H29   S    
C35   C38   A    
C17   C18   A    
C40   O12   A    
C32   C37   A    
C82   H38   S    
C61   H15   S    
C9    C11   T    
Cr4   O27   S    
Cr1   O1    S    
C39   C46   A    
C75   H1    S    
C31   H4    S    
C77   H27   S    
Cr2   O14   S    
C55   C57   A    
C81   H37   S    
C16   O16   A    
C16   O1    A    
C1    C13   S    
C42   C43   A    
Cr4   O6    S    
Cr1   O4    S    
C80   H33   S    
C72   O6    A    
C54   C55   A    
C17   C20   A    
C80   C81   S    
C77   H28   S    
C34   C67   S    
C5    C8    A    
C44   H10   S    
C11   C69   S    
C6    C7    A    
C30   H2    S    
Cr3   O25   S    
C48   H7    S    
C4    C64   S    
C50   H9    S    
C33   C38   A    
C47   H6    S    
C62   C68   A    
C73   O8    A    
C32   C33   A    
C2    C3    A    
C58   C59   A    
C83   H41   S    
C25   C40   S    
C60   H20   S    
C3    H24   S    
C70   O29   A    
Cr3   O15   S    
C32   H43   S    
C43   C51   S    
C57   C58   A    
C5    C6    A    
C43   C44   A    
C49   C53   A    
C77   O20   S    
C10   C84   T    
C28   O19   A    
C13   C22   T    
C4    O15   A    
C65   C66   A    
C17   H12   S    
C61   C62   A    
C69   O27   A    
C83   H42   S    
Cr6   O2    S    
C40   O23   A    
C57   H17   S    
C20   C21   S    
Cr5   O8    S    
C82   C83   S    
C21   C24   T    
C29   C37   S    
C28   O18   A    
C14   C15   A    
C14   H26   S    
Cr1   O25   S    
Cr6   O3    S    
C42   H8    S    
C53   C72   S    
C38   C73   S    
C81   H36   S    
Cr3   O23   S    
C24   C71   S    
C52   O24   A    
C46   H11   S    
C80   H32   S    
