data_mof_unit_59302.cif
_audit_creation_date              2012-12-11T17:47:26-0500
_audit_creation_method            fapswitch 2.2
_symmetry_space_group_name_H-M    P1
_symmetry_Int_Tables_number       1
_space_group_crystal_system       triclinic
_cell_length_a                    14.79929
_cell_length_b                    14.899797
_cell_length_c                    15.161169
_cell_angle_alpha                 110.388765
_cell_angle_beta                  109.784537
_cell_angle_gamma                 108.473451
_cell_volume                      2565.55664684

loop_
_atom_site_label
_atom_site_type_symbol
_atom_type_description
_atom_site_fract_x
_atom_site_fract_y
_atom_site_fract_z
_atom_type_partial_charge
C1    C     C_R   0.975143 0.250072 0.063176 -0.073206
C2    C     C_R   0.060940 0.138542 0.163095 -0.224626
C3    C     C_R   0.262974 0.116640 0.872799 -0.137241
C4    C     C_R   0.964905 0.946977 0.336711 -0.123384
C5    C     C_R   0.193452 0.093321 0.914228 -0.210585
C6    C     C_R   0.032619 0.002250 0.306058 -0.183496
C7    C     C_R   0.625873 0.258590 0.093669 -0.265242
C8    C     C_R   0.303903 0.722302 0.848159 -0.192926
C9    C     C_R   0.695636 0.347291 0.200257 -0.112593
C10   C     C_R   0.215685 0.650431 0.741159 -0.121809
C11   C     C_R   0.752120 0.331556 0.283647 0.123645
C12   C     C_R   0.094122 0.806924 0.010610 -0.143684
C13   C     C_R   0.139513 0.681093 0.696108 0.125161
C14   C     C_R   0.729379 0.224553 0.260999 -0.225169
C15   C     C_R   0.158765 0.788102 0.755241 -0.245765
C16   C     C_R   0.317060 0.762718 0.226027 -0.039295
C17   C     C_R   0.703231 0.193093 0.791100 -0.067555
C18   C     C_R   0.656098 0.135354 0.154997 -0.031894
C19   C     C_R   0.246493 0.859204 0.862556 -0.144151
C20   C     C_R   0.605100 0.152145 0.070227 0.073283
C21   C     C_R   0.316241 0.824544 0.911492 0.102957
C22   C     C_R   0.851632 0.431281 0.484371 -0.231021
C23   C     C_R   0.328404 0.790971 0.329282 0.087288
C24   C     C_R   0.025328 0.595019 0.500351 -0.242797
C25   C     C_R   0.945155 0.513349 0.585193 0.063899
C26   C     C_R   0.936179 0.508274 0.398754 0.065962
C27   C     C_R   0.033051 0.597360 0.593700 0.023062
C28   C     C_R   0.846283 0.426724 0.389654 0.029274
C29   C     C_R   0.228365 0.164110 0.023169 0.103279
C30   C     C_R   0.984707 0.002261 0.208751 0.103953
C31   C     C_R   0.400974 0.282122 0.047713 -0.057500
C32   C     C_R   0.802783 0.905300 0.182419 -0.162271
C33   C     C_R   0.273427 0.050258 0.550084 -0.108131
C34   C     C_R   0.706138 0.126757 0.701640 0.078563
C35   C     C_R   0.931575 0.025738 0.622573 -0.141553
C36   C     C_R   0.347234 0.016759 0.533441 -0.100356
C37   C     C_R   0.826342 0.978137 0.609219 -0.109400
C38   C     C_R   0.351583 0.929045 0.546348 0.092231
C39   C     C_R   0.737646 0.973628 0.530572 0.103110
C40   C     C_R   0.212998 0.408659 0.907109 -0.110656
C41   C     C_R   0.775877 0.591565 0.018120 -0.138202
C42   C     C_R   0.281188 0.875409 0.576228 -0.202010
C43   C     C_R   0.754567 0.012961 0.462447 -0.223849
C44   C     C_R   0.205400 0.907357 0.589696 -0.108218
C45   C     C_R   0.306031 0.500320 0.938795 0.038432
C46   C     C_R   0.860628 0.063670 0.478638 -0.106385
C47   C     C_R   0.202548 0.995516 0.578113 -0.143770
C48   C     C_R   0.949045 0.070370 0.558781 -0.111027
C49   C     C_R   0.537581 0.957709 0.631396 -0.121985
C50   C     C_R   0.531582 0.855486 0.438877 -0.126631
C51   C     C_R   0.631389 0.006062 0.625866 0.099393
C52   C     C_R   0.431988 0.848183 0.435192 0.078618
C53   C     C_R   0.632723 0.945123 0.531399 -0.091365
C54   C     C_R   0.436140 0.900671 0.536137 -0.103899
C55   C     C_R   0.367525 0.209499 0.940075 -0.123370
C56   C     C_R   0.675129 0.499931 0.935848 0.104985
C57   C     C_R   0.850141 0.897308 0.274155 -0.089298
C58   C     C_R   0.053285 0.044298 0.165804 0.031528
C59   C     C_R   0.166486 0.127651 0.072641 0.020181
C60   C     C_R   0.331399 0.259658 0.089226 -0.091395
C61   C     C_R   0.869615 0.956662 0.148958 -0.145279
C62   C     C_R   0.099455 0.988047 0.115626 0.054198
C63   C     C_R   0.101042 0.169451 0.100643 0.064525
C64   C     C_R   0.001571 0.592570 0.301611 -0.149679
C65   C     C_R   0.940253 0.409110 0.685340 -0.134670
C66   C     C_3   0.455207 0.437622 0.811154 0.030186
C67   C     C_R   0.949817 0.502022 0.307359 0.062618
C68   C     C_3   0.512259 0.563366 0.015599 0.017536
C69   C     C_3   0.441662 0.540931 0.852604 -0.221499
C70   C     C_3   0.522193 0.460173 0.973553 -0.138178
C71   C     C_3   0.395693 0.501078 0.917454 0.104603
C72   C     C_3   0.570953 0.500443 0.911004 0.166177
C73   C     C_3   0.405644 0.397017 0.873024 -0.268078
C74   C     C_3   0.560070 0.604191 0.953250 -0.268006
C75   C     C_R   0.303595 0.591561 0.999779 -0.098128
C76   C     C_R   0.685536 0.408140 0.924941 -0.129052
C77   C     C_R   0.916777 0.409333 0.213521 -0.141740
C78   C     C_R   0.955711 0.503353 0.678803 0.056446
C79   C     C_R   0.018409 0.592184 0.782350 -0.102420
C80   C     C_R   0.222652 0.753283 0.314079 -0.130794
C81   C     C_R   0.795262 0.195316 0.702237 -0.148834
C82   C     C_R   0.069778 0.251848 0.974939 -0.125941
C83   C     C_R   0.999411 0.802197 0.096690 -0.143326
C84   C     C_R   0.054926 0.225489 0.050916 0.054640
C85   C     C_R   0.063392 0.870082 0.074357 0.075611
C86   C     C_2   0.532633 0.060119 0.956828 0.538370
C87   C     C_2   0.399228 0.892012 0.029163 0.485975
C88   C     C_2   0.545503 0.957146 0.730960 0.496099
C89   C     C_R   0.169960 0.041592 0.086765 -0.208525
C90   C     C_2   0.532332 0.768646 0.353701 0.504454
C91   C     C_2   0.423049 0.366804 0.695708 0.474703
C92   C     C_2   0.551456 0.636323 0.132519 0.552806
H1    H     H_    0.939177 0.236871 0.111309 0.089084
H2    H     H_    0.202838 0.568662 0.695974 0.111203
H3    H     H_    0.772829 0.210792 0.324078 0.118641
H4    H     H_    0.100199 0.812688 0.722170 0.123097
H5    H     H_    0.642159 0.053989 0.138863 0.132472
H6    H     H_    0.256315 0.938746 0.909330 0.155661
H7    H     H_    0.785118 0.367882 0.479378 0.141649
H8    H     H_    0.095403 0.655884 0.507168 0.129055
H9    H     H_    0.114437 0.018164 0.863128 0.118345
H10   H     H_    0.121161 0.037925 0.353218 0.124339
H11   H     H_    0.338116 0.312164 0.833794 0.129051
H12   H     H_    0.154983 0.835787 0.988958 0.109895
H13   H     H_    0.623309 0.688889 0.984517 0.132530
H14   H     H_    0.381997 0.780471 0.206542 0.083636
H15   H     H_    0.650616 0.166881 0.822077 0.095141
H16   H     H_    0.359834 0.313510 0.173979 0.132822
H17   H     H_    0.831688 0.958151 0.074947 0.142535
H18   H     H_    0.145759 0.021706 0.591529 0.095213
H19   H     H_    0.031143 0.110555 0.571599 0.097035
H20   H     H_    0.271396 0.118815 0.541591 0.111787
H21   H     H_    0.000193 0.031069 0.684570 0.108736
H22   H     H_    0.402390 0.060261 0.512383 0.130915
H23   H     H_    0.237205 0.060938 0.789838 0.125228
H24   H     H_    0.814848 0.949148 0.663002 0.129549
H25   H     H_    0.283718 0.807890 0.586866 0.122496
H26   H     H_    0.687530 0.011566 0.402537 0.120730
H27   H     H_    0.149101 0.864369 0.609607 0.114738
H28   H     H_    0.874515 0.098893 0.429785 0.125756
H29   H     H_    0.219250 0.009695 0.062983 0.161545
H30   H     H_    0.023382 0.178861 0.199702 0.123485
H31   H     H_    0.406741 0.571246 0.799928 0.130447
H32   H     H_    0.559441 0.429979 0.024990 0.121956
H33   H     H_    0.183554 0.324348 0.848606 0.091107
H34   H     H_    0.000935 0.940956 0.407868 0.125483
H35   H     H_    0.794472 0.676242 0.051901 0.113695
H36   H     H_    0.024569 0.676612 0.354397 0.107369
H37   H     H_    0.896103 0.324867 0.619035 0.103845
H38   H     H_    0.359157 0.676158 0.029545 0.053686
H39   H     H_    0.620545 0.323236 0.872522 0.107006
H40   H     H_    0.866499 0.324591 0.187223 0.116738
H41   H     H_    0.039638 0.676350 0.807360 0.120316
H42   H     H_    0.197968 0.753521 0.372669 0.125527
H43   H     H_    0.831499 0.174382 0.653693 0.136760
H44   H     H_    0.123868 0.243959 0.944007 0.121994
H45   H     H_    0.481859 0.354097 0.100839 0.136932
H46   H     H_    0.972519 0.822025 0.154042 0.131510
H47   H     H_    0.421722 0.224914 0.907653 0.096126
H48   H     H_    0.798009 0.854262 0.297912 0.135325
H49   H     H_    0.485175 0.072025 0.893892 -0.031752
H50   H     H_    0.455836 0.866295 0.064483 -0.015250
H51   H     H_    0.472027 0.926732 0.736329 0.061953
H52   H     H_    0.604482 0.786470 0.344864 0.048811
H53   H     H_    0.338514 0.327988 0.631132 -0.011179
H54   H     H_    0.546195 0.711175 0.157133 -0.056447
H55   H     H_    0.714217 0.870032 0.136248 0.110184
H56   H     H_    0.592315 0.274132 0.029008 0.101517
H57   H     H_    0.359732 0.696403 0.883343 0.105494
H58   H     H_    0.712897 0.429341 0.216037 0.136352
N1    N     N_R   0.947560 0.293820 0.002910 -0.041603
N2    N     N_R   0.789450 0.443190 0.997090 -0.049558
N3    N     N_R   0.945970 0.443180 0.152110 -0.040864
N4    N     N_R   0.054030 0.556820 0.847890 -0.048055
N5    N     N_R   0.151530 0.706170 0.208880 -0.048686
N6    N     N_R   0.848470 0.293830 0.791120 -0.042581
N7    N     N_R   0.004980 0.293810 0.946140 -0.045056
N8    N     N_R   0.995020 0.706190 0.053860 -0.041038
N9    N     N_R   0.052440 0.706180 0.997090 -0.043596
N10   N     N_R   0.208960 0.706170 0.152110 -0.050495
N11   N     N_R   0.791040 0.293830 0.847890 -0.045250
N12   N     N_R   0.154330 0.443160 0.946140 -0.041208
N13   N     N_R   0.845670 0.556840 0.053860 -0.043789
N14   N     N_R   0.002190 0.556820 0.208880 -0.038180
N15   N     N_R   0.997810 0.443180 0.791120 -0.044526
N16   N     N_R   0.210550 0.556810 0.002910 -0.033254
Ni1   Ni    Ni4+2 0.869690 0.369690 0.000000 0.232137
Ni2   Ni    Ni4+2 0.130310 0.630310 0.000000 0.224486
Ni3   Ni    Ni4+2 0.001390 0.369680 0.869810 0.221113
Ni4   Ni    Ni4+2 0.998610 0.630320 0.130190 0.223106
O1    O     O_2   0.526375 0.970263 0.931997 -0.602711
O2    O     O_2   0.404945 0.976553 0.088253 -0.615201
O3    O     O_2   0.633895 0.984868 0.805646 -0.566814
O4    O     O_2   0.455367 0.674373 0.297598 -0.556584
O5    O     O_2   0.491139 0.352344 0.673689 -0.580633
O6    O     O_2   0.591411 0.613198 0.200307 -0.588926

loop_
_geom_bond_atom_site_label_1
_geom_bond_atom_site_label_2
_ccdc_geom_bond_type
C58   C62   A    
C21   C87   S    
C10   H2    S    
C56   C76   A    
C45   C71   S    
C41   H35   S    
N14   Ni4   S    
C67   C77   A    
C24   C27   A    
C64   N14   A    
C61   H17   S    
C80   H42   S    
C32   H55   S    
C92   O6    D    
C1    C84   A    
C15   C19   A    
N12   Ni3   S    
C34   C51   S    
C81   N6    A    
C12   C85   A    
C26   C67   S    
N1    N7    A    
C19   C21   A    
C24   C26   A    
C32   C61   A    
C12   H12   S    
C17   H15   S    
C87   O2    D    
C76   H39   S    
C66   C69   S    
C16   N10   A    
C69   H31   S    
C68   C74   S    
C49   C54   A    
C62   C89   A    
C65   N15   A    
N6    Ni3   S    
C33   C36   A    
C55   H47   S    
N9    Ni2   S    
C59   C89   A    
C69   C71   S    
N13   Ni4   S    
C14   C18   A    
N7    Ni3   S    
N12   N16   A    
C3    C55   A    
C50   C90   S    
C66   C72   S    
C29   C59   S    
C49   C51   A    
C22   C25   A    
C20   C86   S    
C4    C57   A    
C50   C52   A    
C10   C13   A    
N4    N15   A    
C1    N1    A    
C22   H7    S    
C34   C81   A    
C23   C80   A    
C31   H45   S    
C44   C47   A    
C88   H51   S    
C60   H16   S    
C75   H38   S    
C16   H14   S    
C77   N3    A    
N10   Ni2   S    
C36   H22   S    
C12   N9    A    
C22   C28   A    
N3    Ni1   S    
N16   Ni2   S    
C49   C88   S    
N4    Ni2   S    
C42   C44   A    
C32   C57   A    
C35   C48   A    
C19   H6    S    
C52   C54   A    
C81   H43   S    
C5    C29   A    
C2    H30   S    
N15   Ni3   S    
C40   C45   A    
C79   H41   S    
C62   C85   S    
C5    H9    S    
C9    H58   S    
C50   C53   A    
N3    N14   A    
C92   H54   S    
C25   C78   S    
C64   C67   A    
C72   C74   S    
C15   H4    S    
C71   C73   S    
C82   N7    A    
C78   C79   A    
N8    Ni4   S    
C68   C92   S    
C39   C43   A    
C44   H27   S    
C64   H36   S    
C66   C73   S    
C6    C30   A    
C1    H1    S    
C88   O3    D    
C86   O1    D    
C57   H48   S    
C51   C53   A    
C77   H40   S    
C31   C60   A    
C41   C56   A    
C40   N12   A    
C38   C54   S    
C29   C60   A    
C70   C73   S    
C8    C21   A    
C91   O5    D    
C69   C74   S    
C33   H20   S    
C9    C11   A    
N11   Ni1   S    
C17   N11   A    
C4    C6    A    
C18   H5    S    
N6    N11   A    
C16   C23   A    
C82   C84   A    
C41   N13   A    
N8    N9    A    
C33   C47   A    
C17   C34   A    
C14   H3    S    
C91   H53   S    
N2    Ni1   S    
C2    C63   A    
C35   C37   A    
C80   N5    A    
C7    H56   S    
C7    C9    A    
C65   C78   A    
C56   C72   S    
N5    N10   A    
C24   H8    S    
C26   C28   A    
C3    C5    A    
C46   H28   S    
C65   H37   S    
C2    C58   A    
C42   H25   S    
C38   C42   A    
C66   C91   S    
C37   H24   S    
C25   C27   A    
C47   H18   S    
C90   O4    D    
C59   C63   A    
C4    H34   S    
C63   C84   S    
C45   C75   A    
C13   C15   A    
C8    H57   S    
C37   C39   A    
C3    H23   S    
C74   H13   S    
N5    Ni4   S    
C23   C52   S    
C39   C53   S    
C83   N8    A    
C89   H29   S    
C11   C28   S    
C68   C71   S    
N1    Ni1   S    
C40   H33   S    
C30   C58   S    
C36   C38   A    
C11   C14   A    
C35   H21   S    
C75   N16   A    
C18   C20   A    
C6    H10   S    
C87   H50   S    
C82   H44   S    
C83   C85   A    
C43   C46   A    
N2    N13   A    
C43   H26   S    
C46   C48   A    
C70   H32   S    
C73   H11   S    
C48   H19   S    
C8    C10   A    
C7    C20   A    
C30   C61   A    
C68   C70   S    
C76   N2    A    
C13   C27   S    
C70   C72   S    
C31   C55   A    
C83   H46   S    
C90   H52   S    
C86   H49   S    
C79   N4    A    
