data_mof_unit_5358.cif
_audit_creation_date              2012-12-10T17:05:20-0500
_audit_creation_method            fapswitch 2.2
_symmetry_space_group_name_H-M    P1
_symmetry_Int_Tables_number       1
_space_group_crystal_system       triclinic
_cell_length_a                    10.027149
_cell_length_b                    10.751092
_cell_length_c                    15.447763
_cell_angle_alpha                 90.091966
_cell_angle_beta                  67.548465
_cell_angle_gamma                 90.002085
_cell_volume                      1539.08402115

loop_
_atom_site_label
_atom_site_type_symbol
_atom_type_description
_atom_site_fract_x
_atom_site_fract_y
_atom_site_fract_z
_atom_type_partial_charge
C1    C     C_R   0.498933 0.737318 0.502073 0.929638
C2    C     C_R   0.395951 0.553985 0.918893 0.100747
C3    C     C_R   0.256913 0.507478 0.973694 0.118430
C4    C     C_R   0.493180 0.586248 0.962167 0.093258
C5    C     C_R   0.457817 0.552139 0.056692 0.068735
C6    C     C_R   0.314621 0.515264 0.111089 -0.232267
C7    C     C_R   0.215194 0.495320 0.070126 -0.213399
C8    C     C_R   0.625591 0.648272 0.914060 -0.235878
C9    C     C_R   0.725850 0.665053 0.955281 -0.266478
C10   C     C_R   0.700002 0.615994 0.043659 0.171233
C11   C     C_R   0.566593 0.556966 0.093964 0.099566
C12   C     C_R   0.409177 0.500374 0.676348 0.916359
C13   C     C_R   0.804906 0.625770 0.083126 -0.224017
C14   C     C_R   0.775660 0.581202 0.173509 -0.202044
C15   C     C_R   0.546726 0.501928 0.179625 -0.249829
C16   C     C_2   0.610880 0.066953 0.502677 -0.157382
C17   C     C_2   0.506440 0.131159 0.489301 -0.329691
C18   C     C_2   0.614134 0.933077 0.497175 -0.159328
C19   C     C_2   0.493891 0.868832 0.510833 -0.329589
C20   C     C_2   0.107067 0.429626 0.445275 -0.128937
C21   C     C_2   0.959757 0.436298 0.440810 -0.142636
C22   C     C_R   0.501244 0.262680 0.498000 0.940359
C23   C     C_R   0.590368 0.501280 0.323672 0.862496
C24   C     C_R   0.349577 0.507606 0.778695 -0.157344
C25   C     C_R   0.644128 0.521689 0.222643 -0.060753
C26   C     C_R   0.163659 0.467319 0.931101 -0.327699
C27   C     C_R   0.208874 0.466921 0.833255 0.469828
C28   C     C_R   0.438830 0.554575 0.821597 -0.347636
H1    H     H_    0.107556 0.463937 0.113466 0.147035
H2    H     H_    0.906977 0.671589 0.045498 0.143815
H3    H     H_    0.697024 0.112714 0.516909 0.175274
H4    H     H_    0.424470 0.088429 0.469342 0.149533
H5    H     H_    0.717117 0.887354 0.482663 0.173024
H6    H     H_    0.388386 0.911532 0.531036 0.151625
H7    H     H_    0.183816 0.364251 0.398894 0.156173
H8    H     H_    0.079551 0.566444 0.538238 0.155922
H9    H     H_    0.942306 0.383180 0.386303 0.155764
H10   H     H_    0.866038 0.542544 0.554173 0.162404
H11   H     H_    0.452770 0.445813 0.216107 0.146640
H12   H     H_    0.852506 0.597546 0.206050 0.157001
H13   H     H_    0.825808 0.713377 0.916664 0.140739
H14   H     H_    0.059448 0.428492 0.973639 0.155005
H15   H     H_    0.546042 0.583534 0.777123 0.172788
H16   H     H_    0.275880 0.502853 0.185995 0.148093
H17   H     H_    0.652893 0.687712 0.845256 0.146029
N1    N     N_2   0.148330 0.498670 0.499030 -0.191216
N2    N     N_2   0.852680 0.498640 0.499000 -0.190029
O1    O     O_R   0.386950 0.680940 0.500010 -0.618379
O2    O     O_R   0.613110 0.680900 0.499990 -0.613356
O3    O     O_R   0.322330 0.500030 0.632270 -0.570081
O4    O     O_R   0.548480 0.499990 0.632240 -0.623232
O5    O     O_R   0.386890 0.319100 0.500010 -0.606919
O6    O     O_R   0.613050 0.319060 0.499990 -0.609191
O7    O     O_R   0.451520 0.500010 0.367760 -0.609837
O8    O     O_R   0.677670 0.499970 0.367730 -0.613982
Zn1   Zn    Zn3+2 0.349000 0.500030 0.500020 0.954365
Zn2   Zn    Zn3+2 0.651000 0.499970 0.499980 0.933193
O9    O     O_3   0.126185 0.409137 0.790676 -0.594368
C29   C     C_3   0.997475 0.476775 0.809402 0.109522
H18   H     H_    0.021170 0.575817 0.787673 0.126460
H19   H     H_    0.926763 0.472009 0.884904 0.148342
C30   C     C_3   0.915068 0.419793 0.754408 -0.786435
H20   H     H_    0.883748 0.322712 0.777900 0.255902
H21   H     H_    0.815980 0.474760 0.765856 0.200876
H22   H     H_    0.983418 0.419211 0.678527 0.255759

loop_
_geom_bond_atom_site_label_1
_geom_bond_atom_site_label_2
_ccdc_geom_bond_type
C2    C4    A    
C19   H6    S    
C1    O1    A    
C23   O8    A    
C30   H20   S    
O4    Zn2   S    
N2    Zn2   S    
O3    Zn1   S    
C9    C10   A    
C12   C24   S    
C28   H15   S    
C9    H13   S    
C17   C22   S    
C24   C27   A    
C30   H21   S    
C4    C8    A    
O8    Zn2   S    
C2    C3    A    
C26   C27   A    
C21   H9    S    
C29   H18   S    
C6    H16   S    
C13   C14   A    
C16   H3    S    
H8    N1    S    
C20   H7    S    
C15   H11   S    
H10   N2    S    
C6    C7    A    
C1    O2    A    
C7    H1    S    
C16   C18   S    
C10   C13   A    
C5    C11   A    
C22   O6    A    
C3    C7    A    
C23   C25   S    
C14   C25   A    
C5    C6    A    
C18   H5    S    
O7    Zn1   S    
C15   C25   A    
C29   H19   S    
C10   C11   A    
C14   H12   S    
C24   C28   A    
C13   H2    S    
C12   O4    A    
O2    Zn2   S    
C20   C21   S    
C26   H14   S    
C23   O7    A    
C22   O5    A    
C18   C19   D    
N1    Zn1   S    
O1    Zn1   S    
C17   H4    S    
O6    Zn2   S    
C8    H17   S    
C8    C9    A    
C29   C30   S    
C2    C28   A    
C30   H22   S    
O9    C29   S    
C1    C19   S    
C11   C15   A    
C12   O3    A    
C3    C26   A    
C20   N1    D    
O5    Zn1   S    
C16   C17   D    
C4    C5    A    
C21   N2    D    
C27   O9    S    
