data_mof_unit_53056.cif
_audit_creation_date              2012-12-11T14:42:02-0500
_audit_creation_method            fapswitch 2.2
_symmetry_space_group_name_H-M    P1
_symmetry_Int_Tables_number       1
_space_group_crystal_system       triclinic
_cell_length_a                    19.009959
_cell_length_b                    10.950137
_cell_length_c                    18.914122
_cell_angle_alpha                 89.876077
_cell_angle_beta                  90.455637
_cell_angle_gamma                 89.943987
_cell_volume                      3937.05929548

loop_
_atom_site_label
_atom_site_type_symbol
_atom_type_description
_atom_site_fract_x
_atom_site_fract_y
_atom_site_fract_z
_atom_type_partial_charge
C1    C     C_R   0.727594 0.954578 0.853122 0.566824
C2    C     C_R   0.272756 0.954902 0.146625 0.572594
C3    C     C_R   0.227472 0.455168 0.853314 0.573227
C4    C     C_R   0.772455 0.454601 0.146858 0.576646
C5    C     C_R   0.698476 0.469640 0.038595 -0.190562
C6    C     C_R   0.297968 0.479263 0.962909 -0.186451
C7    C     C_R   0.197968 0.966477 0.038698 -0.195280
C8    C     C_R   0.800717 0.972070 0.961621 -0.189908
C9    C     C_R   0.752211 0.409975 0.076917 0.072441
C10   C     C_R   0.248076 0.412300 0.923481 0.074359
C11   C     C_R   0.254092 0.911794 0.075953 0.064617
C12   C     C_R   0.748232 0.910021 0.923017 0.071374
C13   C     C_R   0.796583 0.326353 0.042674 0.245029
C14   C     C_R   0.207249 0.322346 0.956595 0.243662
C15   C     C_R   0.301832 0.835576 0.040222 0.261649
C16   C     C_R   0.705220 0.823981 0.956917 0.239971
C17   C     C_R   0.793440 0.318412 0.969631 -0.126998
C18   C     C_R   0.210883 0.311499 0.029537 -0.125219
C19   C     C_R   0.298789 0.830828 0.967220 -0.106636
C20   C     C_R   0.708332 0.815221 0.029965 -0.130887
C21   C     C_R   0.742924 0.384000 0.930488 0.005470
C22   C     C_R   0.257178 0.383990 0.069673 0.001441
C23   C     C_R   0.244594 0.889188 0.929314 0.004996
C24   C     C_R   0.757306 0.883416 0.069387 0.001550
C25   C     C_R   0.545774 0.263315 0.524902 0.324482
C26   C     C_R   0.537943 0.255615 0.453054 0.342509
C27   C     C_R   0.045774 0.763314 0.524903 0.324476
C28   C     C_R   0.037942 0.755614 0.453056 0.342748
C29   C     C_R   0.498897 0.160116 0.424669 -0.070381
C30   C     C_R   0.516863 0.172545 0.569020 -0.081636
C31   C     C_R   0.998892 0.660117 0.424671 -0.069829
C32   C     C_R   0.016861 0.672545 0.569021 -0.081262
C33   C     C_R   0.473687 0.064739 0.468136 0.382572
C34   C     C_R   0.482371 0.071871 0.540464 0.391390
C35   C     C_R   0.973680 0.564744 0.468139 0.382470
C36   C     C_R   0.982366 0.571874 0.540466 0.391183
C37   C     C_R   0.781172 0.300473 0.526360 0.441675
C38   C     C_R   0.184888 0.412482 0.453859 0.400253
C39   C     C_R   0.281175 0.800477 0.526361 0.441717
C40   C     C_R   0.684888 0.912483 0.453858 0.399983
C41   C     C_R   0.783467 0.317016 0.454125 0.459739
C42   C     C_R   0.177043 0.424055 0.525956 0.388912
C43   C     C_R   0.283470 0.817020 0.454126 0.459786
C44   C     C_R   0.677043 0.924054 0.525956 0.389100
C45   C     C_R   0.531312 0.177174 0.851687 0.561254
C46   C     C_R   0.470155 0.177236 0.149287 0.556500
C47   C     C_R   0.031073 0.677325 0.851287 0.569236
C48   C     C_R   0.969188 0.677468 0.148871 0.574182
C49   C     C_R   0.752903 0.420788 0.423951 0.006244
C50   C     C_R   0.236541 0.435298 0.570669 -0.025993
C51   C     C_R   0.252905 0.920791 0.423952 0.006296
C52   C     C_R   0.736541 0.935298 0.570669 -0.026075
C53   C     C_R   0.716033 0.504245 0.466537 -0.135617
C54   C     C_R   0.303854 0.437077 0.541710 -0.138184
C55   C     C_R   0.216034 0.004247 0.466538 -0.135623
C56   C     C_R   0.803853 0.937077 0.541710 -0.138319
C57   C     C_R   0.712594 0.486507 0.539254 -0.128693
C58   C     C_R   0.311746 0.423265 0.469111 -0.142743
C59   C     C_R   0.212595 0.986509 0.539255 -0.128560
C60   C     C_R   0.811745 0.923266 0.469110 -0.142595
C61   C     C_R   0.746048 0.385522 0.569666 0.002521
C62   C     C_R   0.252222 0.408011 0.425155 -0.017702
C63   C     C_R   0.246049 0.885524 0.569667 0.002662
C64   C     C_R   0.752221 0.908013 0.425154 -0.017507
C65   C     C_R   0.736495 0.356637 0.855383 0.554995
C66   C     C_R   0.263404 0.357030 0.144770 0.561175
C67   C     C_R   0.237048 0.858643 0.854744 0.555510
C68   C     C_R   0.763532 0.856571 0.144585 0.560681
C69   C     C_R   0.725424 0.960184 0.645325 0.561468
C70   C     C_R   0.272230 0.956220 0.352716 0.587885
C71   C     C_R   0.225424 0.460184 0.645325 0.561781
C72   C     C_R   0.772230 0.456219 0.352715 0.586553
C73   C     C_R   0.532966 0.177282 0.643001 0.606104
C74   C     C_R   0.470236 0.174857 0.354916 0.594224
C75   C     C_R   0.032965 0.677282 0.643001 0.605198
C76   C     C_R   0.970234 0.674857 0.354917 0.593149
C77   C     C_R   0.738214 0.356973 0.644355 0.585279
C78   C     C_R   0.261187 0.361803 0.353868 0.582220
C79   C     C_R   0.238215 0.856974 0.644355 0.585213
C80   C     C_R   0.761186 0.861804 0.353868 0.582311
C81   C     C_2   0.501787 0.164994 0.922959 -0.069758
C82   C     C_2   0.504229 0.166403 0.080193 -0.119814
C83   C     C_2   0.999111 0.665490 0.921008 -0.062994
C84   C     C_2   0.002137 0.666325 0.079596 -0.061684
C85   C     C_2   0.498256 0.064563 0.039920 0.182763
C86   C     C_2   0.516270 0.066284 0.964002 0.247633
C87   C     C_2   0.989064 0.569811 0.037252 0.182292
C88   C     C_2   0.015004 0.570600 0.963980 0.182624
C89   C     C_R   0.693165 0.454892 0.965649 -0.147839
C90   C     C_R   0.302922 0.464193 0.035808 -0.150517
C91   C     C_R   0.192433 0.952864 0.965674 -0.147495
C92   C     C_R   0.805837 0.957299 0.034573 -0.147867
Cr1   Cr    Cr6+3 0.769270 0.163730 0.750710 1.086863
Cr2   Cr    Cr6+3 0.230730 0.163730 0.249290 1.086960
Cr3   Cr    Cr6+3 0.269270 0.663730 0.750710 1.090624
Cr4   Cr    Cr6+3 0.730730 0.663730 0.249290 1.079722
Cr5   Cr    Cr6+3 0.612620 0.009790 0.748780 1.175086
Cr6   Cr    Cr6+3 0.387380 0.009790 0.251220 1.166166
Cr7   Cr    Cr6+3 0.112620 0.509790 0.748780 1.172144
Cr8   Cr    Cr6+3 0.887380 0.509790 0.251220 1.191017
Cr9   Cr    Cr6+3 0.614160 0.322500 0.747710 1.090717
Cr10  Cr    Cr6+3 0.385840 0.322500 0.252290 1.098876
Cr11  Cr    Cr6+3 0.114160 0.822500 0.747710 1.089826
Cr12  Cr    Cr6+3 0.885840 0.822500 0.252290 1.098875
H1    H     H_    0.692890 0.586328 0.444257 0.191589
H2    H     H_    0.349957 0.447880 0.575143 0.191680
H3    H     H_    0.192890 0.086329 0.444258 0.191533
H4    H     H_    0.849957 0.947879 0.575142 0.191489
H5    H     H_    0.684449 0.551483 0.571627 0.188106
H6    H     H_    0.364473 0.418393 0.447980 0.193409
H7    H     H_    0.184448 0.051484 0.571627 0.188097
H8    H     H_    0.864473 0.918395 0.447979 0.193466
H9    H     H_    0.526018 0.249309 0.057567 0.066277
H10   H     H_    0.475288 0.243944 0.945076 0.049913
H11   H     H_    0.031266 0.744285 0.059500 0.053427
H12   H     H_    0.968223 0.741633 0.940696 0.051169
H13   H     H_    0.650987 0.499220 0.936714 0.156829
H14   H     H_    0.341300 0.516079 0.065715 0.162531
H15   H     H_    0.147838 0.991690 0.937728 0.153503
H16   H     H_    0.846765 0.004154 0.063793 0.159211
H17   H     H_    0.662433 0.531300 0.064504 0.131119
H18   H     H_    0.330662 0.547599 0.938027 0.133718
H19   H     H_    0.159704 0.022529 0.065644 0.131443
H20   H     H_    0.835703 0.035922 0.935968 0.130082
H21   H     H_    0.829962 0.257579 0.943770 0.121902
H22   H     H_    0.177888 0.243855 0.054605 0.124745
H23   H     H_    0.338010 0.776504 0.940475 0.133640
H24   H     H_    0.672975 0.752033 0.055630 0.121803
O1    O     O_R   0.784320 0.290430 0.830510 -0.524383
O2    O     O_R   0.215680 0.290430 0.169490 -0.515127
O3    O     O_R   0.284320 0.790430 0.830510 -0.524426
O4    O     O_R   0.715680 0.790430 0.169490 -0.522063
O5    O     O_R   0.554640 0.080370 0.673500 -0.425174
O6    O     O_R   0.445360 0.080370 0.326500 -0.442346
O7    O     O_R   0.054640 0.580370 0.673500 -0.426561
O8    O     O_R   0.945360 0.580370 0.326500 -0.442699
O9    O     O_R   0.543920 0.282180 0.666790 -0.461144
O10   O     O_R   0.456080 0.282180 0.333210 -0.464221
O11   O     O_R   0.043920 0.782180 0.666790 -0.461840
O12   O     O_R   0.956080 0.782180 0.333210 -0.464781
O13   O     O_R   0.679040 0.374160 0.674430 -0.469786
O14   O     O_R   0.320960 0.374160 0.325570 -0.499331
O15   O     O_R   0.179040 0.874160 0.674430 -0.470189
O16   O     O_R   0.820960 0.874160 0.325570 -0.498280
O17   O     O_3   0.665350 0.165340 0.749070 -0.309696
O18   O     O_3   0.334650 0.165340 0.250930 -0.313543
O19   O     O_3   0.165350 0.665340 0.749070 -0.308738
O20   O     O_3   0.834650 0.665340 0.250930 -0.318912
O21   O     O_R   0.762640 0.040960 0.825200 -0.540670
O22   O     O_R   0.237360 0.040960 0.174800 -0.531104
O23   O     O_R   0.262640 0.540960 0.825200 -0.540729
O24   O     O_R   0.737360 0.540960 0.174800 -0.533949
O25   O     O_R   0.667400 0.923970 0.829950 -0.417541
O26   O     O_R   0.332600 0.923970 0.170050 -0.420936
O27   O     O_R   0.167400 0.423970 0.829950 -0.415924
O28   O     O_R   0.832600 0.423970 0.170050 -0.411116
O29   O     O_R   0.553960 0.081340 0.821780 -0.433252
O30   O     O_R   0.446040 0.081340 0.178220 -0.478359
O31   O     O_R   0.053960 0.581340 0.821780 -0.434683
O32   O     O_R   0.946040 0.581340 0.178220 -0.432875
O33   O     O_R   0.543180 0.283240 0.826740 -0.534218
O34   O     O_R   0.456820 0.283240 0.173260 -0.511101
O35   O     O_R   0.043180 0.783240 0.826740 -0.536621
O36   O     O_R   0.956820 0.783240 0.173260 -0.525644
O37   O     O_R   0.678360 0.375140 0.822710 -0.501199
O38   O     O_R   0.321640 0.375140 0.177290 -0.493277
O39   O     O_R   0.178360 0.875140 0.822710 -0.500606
O40   O     O_R   0.821640 0.875140 0.177290 -0.491656
O41   O     O_R   0.785050 0.289380 0.670560 -0.426098
O42   O     O_R   0.214950 0.289380 0.329440 -0.446723
O43   O     O_R   0.285050 0.789380 0.670560 -0.425702
O44   O     O_R   0.714950 0.789380 0.329440 -0.448281
O45   O     O_R   0.763320 0.039990 0.676930 -0.476712
O46   O     O_R   0.236680 0.039990 0.323070 -0.513421
O47   O     O_R   0.263320 0.539990 0.676930 -0.476605
O48   O     O_R   0.736680 0.539990 0.323070 -0.514121
O49   O     O_R   0.668130 0.922920 0.670000 -0.445868
O50   O     O_R   0.331870 0.922920 0.330000 -0.400345
O51   O     O_R   0.168130 0.422920 0.670000 -0.446398
O52   O     O_R   0.831870 0.422920 0.330000 -0.400543
O53   O     O_3   0.476061 0.954199 0.067159 -0.655147
H25   H     H_    0.506312 0.936255 0.108889 0.340245
O54   O     O_3   0.547764 0.964289 0.934853 -0.632080
H26   H     H_    0.557763 0.904198 0.972841 0.349656
O55   O     O_3   0.951887 0.469937 0.061637 -0.647451
H27   H     H_    0.944911 0.412407 0.021792 0.331479
O56   O     O_3   0.055069 0.473755 0.940172 -0.651379
H28   H     H_    0.063794 0.417255 0.980336 0.331939
F1    F     F_    0.817959 0.233735 0.414004 -0.544167
F2    F     F_    0.110634 0.425130 0.551618 -0.546618
F3    F     F_    0.317964 0.733740 0.414006 -0.544701
F4    F     F_    0.610633 0.925126 0.551618 -0.546641
O57   O     O_3   0.844252 0.256690 0.081024 -0.658578
H29   H     H_    0.875339 0.211812 0.048201 0.304251
O58   O     O_3   0.162307 0.249455 0.917295 -0.665712
H30   H     H_    0.131538 0.202737 0.949605 0.306555
O59   O     O_3   0.352295 0.769423 0.077113 -0.648118
H31   H     H_    0.383226 0.725821 0.043547 0.319540
O60   O     O_3   0.658847 0.752800 0.918216 -0.666483
H32   H     H_    0.627864 0.707226 0.950870 0.305712
F5    F     F_    0.581561 0.360469 0.551018 -0.572509
F6    F     F_    0.565019 0.345186 0.411502 -0.558256
F7    F     F_    0.081564 0.860465 0.551018 -0.572515
F8    F     F_    0.065019 0.845182 0.411503 -0.557770
F9    F     F_    0.436484 0.969152 0.441696 -0.520316
F10   F     F_    0.455926 0.982538 0.582519 -0.529021
F11   F     F_    0.936473 0.469161 0.441699 -0.520258
F12   F     F_    0.955919 0.482544 0.582522 -0.529663
F13   F     F_    0.813245 0.200001 0.553584 -0.564238
F14   F     F_    0.126529 0.401306 0.412410 -0.547994
F15   F     F_    0.313248 0.700005 0.553585 -0.564214
F16   F     F_    0.626529 0.901308 0.412409 -0.549755

loop_
_geom_bond_atom_site_label_1
_geom_bond_atom_site_label_2
_ccdc_geom_bond_type
Cr2   O18   S    
C14   O58   S    
Cr6   O26   S    
Cr5   O17   S    
C58   C62   A    
C55   C59   A    
Cr12  O20   S    
Cr1   O21   S    
C35   C36   A    
C84   C87   D    
Cr5   O5    S    
C87   C88   S    
Cr3   O47   S    
C32   C75   S    
O55   H27   S    
Cr11  O19   S    
C87   O55   S    
C21   C89   A    
O53   H25   S    
C34   F10   S    
C15   C19   A    
C48   O32   A    
Cr1   O41   S    
Cr2   O2    S    
C2    O22   A    
C27   F7    S    
C32   C36   A    
C26   F6    S    
C38   C42   A    
C25   F5    S    
C78   O14   A    
Cr3   O19   S    
C36   F12   S    
C15   O59   S    
C75   O7    A    
C56   C60   A    
C71   O51   A    
C46   O30   A    
C5    H17   S    
C78   O42   A    
Cr10  O10   S    
C79   O43   A    
C57   C61   A    
C68   O4    A    
C45   O33   A    
C56   H4    S    
C9    C13   A    
C52   C69   S    
C69   O49   A    
C46   C82   S    
C52   C56   A    
C11   C15   A    
C88   O56   S    
C79   O15   A    
Cr6   O30   S    
C29   C33   A    
C61   C77   S    
C80   O16   A    
C49   C72   S    
Cr7   O27   S    
C81   H10   S    
C59   H7    S    
Cr12  O16   S    
Cr1   O17   S    
C8    C92   A    
C51   C70   S    
Cr5   O25   S    
Cr6   O50   S    
C3    O23   A    
C51   C55   A    
C81   C86   D    
C8    C12   A    
Cr4   O4    S    
C47   O35   A    
Cr8   O28   S    
C83   C88   D    
C43   F3    S    
O60   H32   S    
Cr10  O38   S    
C18   C22   A    
Cr3   O3    S    
C64   C80   S    
C1    C12   S    
C69   O45   A    
Cr1   O1    S    
C2    C11   S    
C24   C92   A    
C41   C49   A    
C17   H21   S    
C76   O12   A    
C76   O8    A    
C4    O24   A    
C57   H5    S    
C30   C34   A    
C39   F15   S    
C28   F8    S    
C20   H24   S    
C12   C16   A    
C45   O29   A    
C82   H9    S    
C10   C14   A    
C7    H19   S    
C30   C73   S    
Cr9   O9    S    
C19   C23   A    
C70   O50   A    
C47   O31   A    
C29   C74   S    
Cr6   O18   S    
C25   C26   A    
C6    C90   A    
C38   C62   A    
C17   C21   A    
C48   C84   S    
Cr4   O20   S    
C55   H3    S    
Cr5   O29   S    
Cr7   O51   S    
C7    C11   A    
C50   C71   S    
Cr12  O36   S    
O54   H26   S    
C5    C9    A    
C60   H8    S    
Cr11  O11   S    
C65   O1    A    
Cr12  O40   S    
C74   O10   A    
C42   F2    S    
Cr5   O49   S    
C40   C44   A    
C16   C20   A    
Cr9   O17   S    
C3    O27   A    
C33   C34   A    
C22   C90   A    
Cr7   O7    S    
C50   C54   A    
Cr11  O39   S    
C38   F14   S    
C54   H2    S    
Cr9   O37   S    
C70   O46   A    
C37   F13   S    
C85   C86   S    
C18   H22   S    
C16   O60   S    
C42   C50   A    
C48   O36   A    
C68   O40   A    
C8    H20   S    
C4    O28   A    
Cr2   O46   S    
C89   H13   S    
C84   H11   S    
C47   C83   S    
Cr2   O42   S    
Cr4   O44   S    
C86   O54   S    
Cr10  O14   S    
C23   C91   A    
C59   C63   A    
Cr7   O31   S    
C6    H18   S    
Cr8   O52   S    
C90   H14   S    
C7    C91   A    
Cr10  O34   S    
C54   C58   A    
C67   O39   A    
C25   C30   A    
C77   O41   A    
Cr7   O19   S    
C53   C57   A    
C37   C61   A    
Cr4   O48   S    
C21   C65   S    
C27   C32   A    
C58   H6    S    
Cr9   O13   S    
C83   H12   S    
C62   C78   S    
C28   C31   A    
C67   O3    A    
C66   O38   A    
C73   O5    A    
Cr8   O32   S    
Cr11  O15   S    
C44   C52   A    
C6    C10   A    
C39   C43   A    
C22   C66   S    
C63   C79   S    
C85   O53   S    
C41   F1    S    
Cr2   O22   S    
C82   C85   D    
C39   C63   A    
C40   F16   S    
Cr11  O35   S    
C40   C64   A    
C13   C17   A    
C60   C64   A    
C72   O52   A    
Cr9   O33   S    
C92   H16   S    
O56   H28   S    
C3    C10   S    
C75   O11   A    
C44   F4    S    
C43   C51   A    
C31   C76   S    
C33   F9    S    
C73   O9    A    
Cr8   O20   S    
C49   C53   A    
C74   O6    A    
C31   C35   A    
Cr1   O45   S    
C71   O47   A    
C14   C18   A    
Cr10  O18   S    
C91   H15   S    
Cr6   O6    S    
C72   O48   A    
C37   C41   A    
O59   H31   S    
C77   O13   A    
C1    O25   A    
C23   C67   S    
C24   C68   S    
O58   H30   S    
C53   H1    S    
C35   F11   S    
C65   O37   A    
Cr3   O23   S    
C26   C29   A    
C2    O26   A    
O57   H29   S    
C46   O34   A    
C27   C28   A    
C80   O44   A    
C1    O21   A    
C13   O57   S    
C19   H23   S    
C45   C81   S    
C4    C9    S    
Cr3   O43   S    
C20   C24   A    
C5    C89   A    
Cr8   O8    S    
Cr12  O12   S    
C66   O2    A    
Cr4   O24   S    
