data_mof_unit_44361.cif
_audit_creation_date              2012-12-10T18:58:11-0500
_audit_creation_method            fapswitch 2.2
_symmetry_space_group_name_H-M    P1
_symmetry_Int_Tables_number       1
_space_group_crystal_system       triclinic
_cell_length_a                    11.031008
_cell_length_b                    10.908795
_cell_length_c                    9.546071
_cell_angle_alpha                 91.012588
_cell_angle_beta                  100.231492
_cell_angle_gamma                 91.705612
_cell_volume                      1129.65092169

loop_
_atom_site_label
_atom_site_type_symbol
_atom_type_description
_atom_site_fract_x
_atom_site_fract_y
_atom_site_fract_z
_atom_type_partial_charge
C1    C     C_R   0.492945 0.262991 0.497216 0.846246
C2    C     C_R   0.486970 0.130648 0.492721 -0.123624
C3    C     C_R   0.457357 0.063722 0.364873 -0.225769
C4    C     C_R   0.449872 0.934865 0.364748 0.095199
C5    C     C_R   0.490927 0.872310 0.495664 -0.144019
C6    C     C_R   0.532893 0.943665 0.620611 0.055602
C7    C     C_3   0.495054 0.940278 0.765746 -0.218328
C8    C     C_3   0.456118 0.072569 0.746226 -0.171974
C9    C     C_R   0.550574 0.597309 0.084314 0.159605
C10   C     C_R   0.437757 0.411022 0.060067 -0.046220
C11   C     C_R   0.437215 0.411491 0.911003 -0.044206
C12   C     C_R   0.262865 0.495000 0.446122 0.831690
C13   C     C_R   0.552230 0.595298 0.937840 0.249620
C14   C     C_3   0.681289 0.641641 0.953755 -0.517078
C15   C     C_3   0.678349 0.656428 0.111736 -0.267329
C16   C     C_R   0.496379 0.738018 0.499562 0.797764
C17   C     C_R   0.735757 0.495645 0.555330 0.946525
C18   C     C_2   0.129104 0.472954 0.428005 -0.401497
C19   C     C_2   0.069980 0.454853 0.540434 -0.044054
C20   C     C_2   0.868389 0.497764 0.582970 -0.362581
C21   C     C_2   0.937040 0.424767 0.515125 -0.089914
C22   C     C_R   0.515354 0.068302 0.617632 0.099279
Cu1   Cu    Cu3+1 0.499990 0.499980 0.640670 0.981866
Cu2   Cu    Cu3+1 0.500010 0.500020 0.359330 0.984121
H1    H     H_    0.502796 0.140951 0.827754 0.187876
H2    H     H_    0.389345 0.337786 0.104430 0.125506
H3    H     H_    0.387775 0.339204 0.843636 0.137509
H4    H     H_    0.743044 0.569510 0.926630 0.232857
H5    H     H_    0.690592 0.727174 0.897729 0.223026
H6    H     H_    0.675281 0.753854 0.145506 0.168403
H7    H     H_    0.911650 0.570148 0.656433 0.153420
H8    H     H_    0.078343 0.462814 0.319766 0.189525
H9    H     H_    0.431466 0.112130 0.266400 0.161191
H10   H     H_    0.420533 0.870961 0.773007 0.150746
N1    N     N_R   0.500780 0.500930 0.148120 -0.180146
N2    N     N_R   0.500790 0.500890 0.852210 -0.175586
O1    O     O_R   0.500000 0.319640 0.618810 -0.598184
O2    O     O_R   0.500010 0.319680 0.381230 -0.570393
O3    O     O_R   0.320680 0.500000 0.575130 -0.558475
O4    O     O_R   0.320690 0.500040 0.337550 -0.590119
O5    O     O_R   0.499990 0.680320 0.618770 -0.584245
O6    O     O_R   0.500000 0.680360 0.381190 -0.593808
O7    O     O_R   0.679310 0.499960 0.662450 -0.585121
O8    O     O_R   0.679320 0.500000 0.424870 -0.536300
C23   C     C_2   0.887173 0.313460 0.427482 0.957419
O9    O     O_2   0.951398 0.261690 0.354229 -0.589591
O10   O     O_R   0.769894 0.263995 0.433436 -0.754813
H11   H     H_    0.748055 0.187921 0.370352 0.336195
C24   C     C_2   0.782117 0.593776 0.201302 0.941351
O11   O     O_2   0.798750 0.484691 0.183456 -0.578582
O12   O     O_R   0.864307 0.665584 0.299896 -0.776516
H12   H     H_    0.939461 0.620415 0.343972 0.323768
C25   C     C_2   0.127456 0.475322 0.693343 0.898940
O13   O     O_2   0.171523 0.576370 0.735813 -0.599098
O14   O     O_R   0.120652 0.381670 0.789789 -0.788559
H13   H     H_    0.158352 0.407405 0.891109 0.323182
C26   C     C_3   0.388586 0.871563 0.225620 -0.345552
C27   C     C_3   0.262930 0.811991 0.237406 -0.370760
C28   C     C_3   0.208320 0.738161 0.102402 -0.742732
H14   H     H_    0.194454 0.798606 0.008889 0.252146
H15   H     H_    0.270453 0.663597 0.083795 0.261926
H16   H     H_    0.117769 0.696275 0.114146 0.248638
H17   H     H_    0.271001 0.750131 0.329261 0.226313
H18   H     H_    0.198435 0.884860 0.254736 0.227167
H19   H     H_    0.371553 0.939093 0.139167 0.201853
H20   H     H_    0.450510 0.805506 0.188071 0.236825
C29   C     C_2   0.602496 0.939969 0.888273 0.827243
O15   O     O_2   0.708709 0.943875 0.866753 -0.583784
O16   O     O_R   0.579353 0.949157 0.027055 -0.812708
H21   H     H_    0.657515 0.962147 0.100308 0.337912
C30   C     C_3   0.314867 0.084252 0.710038 -0.385621
C31   C     C_3   0.255739 0.069325 0.842766 -0.368590
C32   C     C_3   0.115359 0.063087 0.803898 -0.719072
H22   H     H_    0.081239 0.145033 0.743806 0.290439
H23   H     H_    0.084162 0.979471 0.737633 0.249939
H24   H     H_    0.075177 0.059083 0.902512 0.254383
H25   H     H_    0.286011 0.983549 0.897159 0.226432
H26   H     H_    0.285109 0.147754 0.918251 0.215214
H27   H     H_    0.293422 0.176068 0.665214 0.211731
H28   H     H_    0.274256 0.014039 0.627513 0.218356

loop_
_geom_bond_atom_site_label_1
_geom_bond_atom_site_label_2
_ccdc_geom_bond_type
O14   H13   S    
Cu2   O6    S    
C32   H22   S    
C26   H20   S    
C30   H27   S    
C7    C8    S    
C23   O9    D    
C11   N2    A    
C19   C21   S    
C18   C19   D    
C5    C6    A    
C3    H9    S    
C6    C22   A    
C17   C20   S    
Cu1   O7    S    
C1    C2    S    
C9    C13   A    
C5    C16   S    
C31   H26   S    
Cu2   O4    S    
C24   O12   S    
C4    C26   S    
C2    C22   A    
C8    C22   S    
Cu1   Cu2   S    
C10   N1    A    
C1    O1    A    
C10   H2    S    
C23   O10   S    
C28   H14   S    
C13   C14   S    
C8    H1    S    
C32   H23   S    
C30   H28   S    
C21   C23   S    
C25   O14   S    
C27   H18   S    
C28   H15   S    
Cu2   N1    S    
O12   H12   S    
C13   N2    A    
C31   C32   S    
C28   H16   S    
C27   C28   S    
Cu1   O1    S    
C29   O15   D    
C29   O16   S    
C12   O4    A    
C17   O7    A    
C31   H25   S    
Cu2   O2    S    
O10   H11   S    
C11   H3    S    
C1    O2    A    
C24   O11   D    
Cu2   O8    S    
C32   H24   S    
C18   H8    S    
C14   H5    S    
C3    C4    A    
C16   O6    A    
C15   H6    S    
C27   H17   S    
C8    C30   S    
C26   H19   S    
C4    C5    A    
C25   O13   D    
C6    C7    S    
Cu1   O5    S    
C12   O3    A    
C2    C3    A    
C9    C15   S    
C17   O8    A    
C30   C31   S    
C19   C25   S    
C26   C27   S    
Cu1   O3    S    
C7    H10   S    
C15   C24   S    
O16   H21   S    
C10   C11   A    
C7    C29   S    
C20   C21   D    
Cu1   N2    S    
C12   C18   S    
C9    N1    A    
C14   C15   S    
C14   H4    S    
C16   O5    A    
C20   H7    S    
