data_mof_unit_21340.cif
_audit_creation_date              2012-10-26T19:02:56-0400
_audit_creation_method            fapswitch 2.2
_symmetry_space_group_name_H-M    P1
_symmetry_Int_Tables_number       1
_space_group_crystal_system       triclinic
_cell_length_a                    15.081158
_cell_length_b                    11.022848
_cell_length_c                    10.142196
_cell_angle_alpha                 111.577878
_cell_angle_beta                  99.465411
_cell_angle_gamma                 92.781369
_cell_volume                      1535.5480234

loop_
_atom_site_label
_atom_site_type_symbol
_atom_type_description
_atom_site_fract_x
_atom_site_fract_y
_atom_site_fract_z
_atom_type_partial_charge
C1    C     C_R   0.492526 0.254313 0.440300 0.578851
C2    C     C_2   0.492260 0.489130 0.919339 0.217081
C3    C     C_R   0.329573 0.499697 0.499365 0.582403
C4    C     C_R   0.670490 0.500663 0.500893 0.579535
C5    C     C_R   0.822550 0.624405 0.556157 0.097609
C6    C     C_R   0.177856 0.378867 0.453085 0.085977
C7    C     C_R   0.767457 0.503071 0.503637 0.015424
C8    C     C_R   0.232991 0.499142 0.498912 0.017618
C9    C     C_R   0.803938 0.383525 0.456449 0.043540
C10   C     C_R   0.197581 0.619393 0.549678 0.046811
C11   C     C_R   0.897709 0.383892 0.464891 -0.021575
C12   C     C_R   0.507398 0.745685 0.559692 0.580040
C13   C     C_R   0.104540 0.620257 0.549956 -0.012222
C14   C     C_R   0.954208 0.503926 0.510304 -0.033602
C15   C     C_R   0.048220 0.501113 0.509010 -0.032279
C16   C     C_R   0.916916 0.626023 0.555571 0.045119
C17   C     C_R   0.085539 0.379276 0.465638 0.030580
C18   C     C_R   0.936320 0.265989 0.431414 -0.078999
C19   C     C_R   0.066890 0.738687 0.590369 -0.081809
C20   C     C_3   0.075232 0.124917 0.547629 -0.070630
C21   C     C_3   0.981522 0.946169 0.779062 -0.091198
C22   C     C_R   0.028856 0.262966 0.437800 0.279619
C23   C     C_R   0.975751 0.744223 0.598698 0.288075
C24   C     C_2   0.486798 0.113412 0.407380 -0.066043
C25   C     C_2   0.513088 0.886606 0.592607 -0.064867
C26   C     C_2   0.503484 0.069905 0.515018 -0.113271
C27   C     C_2   0.496195 0.930111 0.484995 -0.111304
C28   C     C_2   0.507527 0.510884 0.080464 0.216269
Cu1   Cu    Cu3+1 0.515770 0.521810 0.644910 1.102333
Cu2   Cu    Cu3+1 0.484230 0.478190 0.355090 1.106150
H1    H     H_    0.896144 0.173267 0.403929 0.181598
H2    H     H_    0.052758 0.985816 0.790799 0.115239
H3    H     H_    0.976882 0.893838 0.853549 0.152301
H4    H     H_    0.942550 0.031508 0.812859 0.172460
H5    H     H_    0.107233 0.830176 0.613808 0.149485
H6    H     H_    0.476537 0.862251 0.372934 0.180498
H7    H     H_    0.522982 0.137763 0.627107 0.181271
H8    H     H_    0.531329 0.954886 0.704667 0.141361
H9    H     H_    0.468692 0.045135 0.295306 0.141374
H10   H     H_    0.010007 0.115793 0.582911 0.136856
H11   H     H_    0.123506 0.205440 0.634007 0.141515
H12   H     H_    0.105181 0.031763 0.531362 0.179439
I1    I     I_    0.755795 0.798645 0.635735 -0.225739
I2    I     I_    0.237904 0.202170 0.353597 -0.225822
I3    I     I_    0.714870 0.202328 0.371297 -0.305962
I4    I     I_    0.286998 0.799564 0.626744 -0.340818
I5    I     I_    0.386344 0.342649 0.770757 -0.250336
I6    I     I_    0.612611 0.658281 0.228936 -0.205756
I7    I     I_    0.647931 0.705865 0.941559 -0.124701
I8    I     I_    0.353811 0.291576 0.057493 -0.153381
N1    N     N_2   0.460520 0.445420 0.137370 -0.153995
N2    N     N_2   0.539480 0.554580 0.862630 -0.155101
O1    O     O_R   0.508410 0.332340 0.577400 -0.494884
O2    O     O_3   0.943743 0.865404 0.633662 -0.543610
O3    O     O_R   0.491590 0.667660 0.422600 -0.495540
O4    O     O_R   0.481780 0.295500 0.332650 -0.460238
O5    O     O_R   0.518220 0.704500 0.667350 -0.461084
O6    O     O_R   0.383570 0.518390 0.622380 -0.472564
O7    O     O_R   0.616430 0.481610 0.377620 -0.471067
O8    O     O_R   0.356940 0.481550 0.377630 -0.466895
O9    O     O_R   0.643060 0.518450 0.622370 -0.471537
O10   O     O_3   0.061816 0.143848 0.415776 -0.529601

loop_
_geom_bond_atom_site_label_1
_geom_bond_atom_site_label_2
_ccdc_geom_bond_type
C10   I4    S    
C19   C23   A    
Cu2   N1    S    
C10   C13   A    
C26   H7    S    
C9    I3    S    
Cu1   Cu2   S    
C18   H1    S    
C25   H8    S    
C22   O10   S    
C5    C7    A    
Cu2   O3    S    
C20   H12   S    
C17   C22   A    
C12   C25   S    
Cu1   N2    S    
I7    N2    S    
C3    O8    A    
C18   C22   A    
I8    N1    S    
C5    I1    S    
C11   C18   A    
C6    I2    S    
Cu2   O7    S    
C9    C11   A    
C26   C27   S    
C2    N2    D    
C1    C24   S    
C4    C7    S    
C6    C8    A    
C12   O5    A    
C2    I5    S    
C21   H2    S    
C1    O4    A    
Cu1   O5    S    
C20   H11   S    
C16   C23   A    
Cu1   O9    S    
C13   C15   A    
C20   O10   S    
C21   O2    S    
C20   H10   S    
C28   N1    D    
C14   C16   A    
C12   O3    A    
C21   H3    S    
C13   C19   A    
C3    O6    A    
C7    C9    A    
C24   H9    S    
Cu1   O6    S    
C4    O7    A    
C23   O2    S    
C8    C10   A    
C3    C8    S    
C11   C14   A    
C19   H5    S    
C6    C17   A    
C1    O1    A    
C14   C15   A    
C28   I6    S    
C5    C16   A    
C2    C28   S    
C21   H4    S    
C15   C17   A    
Cu2   O4    S    
C4    O9    A    
C27   H6    S    
C24   C26   D    
Cu1   O1    S    
C25   C27   D    
Cu2   O8    S    
