data_mof_unit_65841.cif
_audit_creation_date              2012-12-10T16:50:07-0500
_audit_creation_method            fapswitch 2.2
_symmetry_space_group_name_H-M    P1
_symmetry_Int_Tables_number       1
_space_group_crystal_system       triclinic
_cell_length_a                    26.246621
_cell_length_b                    26.244973
_cell_length_c                    22.299224
_cell_angle_alpha                 90.000142
_cell_angle_beta                  53.953786
_cell_angle_gamma                 89.999812
_cell_volume                      12419.73142

loop_
_atom_site_label
_atom_site_type_symbol
_atom_type_description
_atom_site_fract_x
_atom_site_fract_y
_atom_site_fract_z
_atom_type_partial_charge
C1    C     C_R   0.650537 0.750050 0.699006 0.819456
C2    C     C_3   0.033884 0.248950 0.042786 -0.349855
C3    C     C_2   0.556400 0.748030 0.499462 -0.293577
C4    C     C_2   0.993521 0.720920 0.456892 -0.160013
C5    C     C_2   0.993513 0.279090 0.456908 -0.158170
C6    C     C_2   0.493520 0.220918 0.456895 -0.159619
C7    C     C_2   0.493514 0.779090 0.456907 -0.157588
C8    C     C_3   0.978383 0.850844 0.079567 -0.376870
C9    C     C_3   0.036188 0.848227 0.080256 -0.846991
C10   C     C_3   0.946967 0.147976 0.076702 -0.354087
C11   C     C_3   0.008502 0.117499 0.038686 -0.860777
C12   C     C_3   0.470277 0.351971 0.079557 -0.376936
C13   C     C_3   0.530780 0.232144 0.042477 -0.346503
C14   C     C_3   0.528113 0.354016 0.080231 -0.846429
C15   C     C_3   0.442601 0.648711 0.076705 -0.354218
C16   C     C_3   0.502787 0.616433 0.038686 -0.860296
C17   C     C_3   0.533788 0.746592 0.042782 -0.349546
C18   C     C_3   0.968863 0.805558 0.042125 -0.021258
C19   C     C_3   0.949502 0.200715 0.042209 -0.020967
C20   C     C_3   0.464457 0.304573 0.042123 -0.021417
C21   C     C_3   0.447412 0.702033 0.042213 -0.021041
C22   C     C_3   0.016725 0.805625 0.956035 -0.418237
C23   C     C_3   0.992605 0.201913 0.955498 -0.389271
C24   C     C_3   0.512294 0.305021 0.956033 -0.417947
C25   C     C_R   0.650544 0.249954 0.699008 0.820036
C26   C     C_3   0.490562 0.703241 0.955502 -0.389250
C27   C     C_1   0.110892 0.750014 0.778356 -0.136645
C28   C     C_1   0.110877 0.249954 0.778351 -0.135777
C29   C     C_1   0.610882 0.250009 0.778357 -0.136648
C30   C     C_1   0.610869 0.749960 0.778351 -0.135666
C31   C     C_3   0.963002 0.750394 0.073311 0.224210
C32   C     C_3   0.963414 0.248507 0.073212 0.198497
C33   C     C_3   0.462968 0.250365 0.073313 0.224273
C34   C     C_3   0.463350 0.748520 0.073213 0.198140
C35   C     C_3   0.072055 0.727927 0.956614 -0.394245
C36   C     C_R   0.150537 0.250050 0.699007 0.819496
C37   C     C_3   0.076603 0.247285 0.956799 -0.392012
C38   C     C_3   0.573647 0.232011 0.956613 -0.394380
C39   C     C_3   0.576433 0.744939 0.956795 -0.391834
C40   C     C_3   0.036588 0.750356 0.926624 0.246390
C41   C     C_3   0.036370 0.249175 0.926626 0.237467
C42   C     C_3   0.536549 0.250339 0.926625 0.246355
C43   C     C_3   0.536329 0.749201 0.926627 0.237157
C44   C     C_3   0.976728 0.717717 0.956592 -0.424581
C45   C     C_3   0.995043 0.297794 0.956867 -0.425144
C46   C     C_3   0.479437 0.214223 0.956598 -0.424568
C47   C     C_R   0.150544 0.749954 0.699008 0.820095
C48   C     C_3   0.497113 0.798900 0.956868 -0.424975
C49   C     C_3   0.933789 0.716502 0.042997 0.207459
C50   C     C_3   0.950638 0.296997 0.043068 0.221224
C51   C     C_3   0.436597 0.213037 0.043005 0.207560
C52   C     C_3   0.452678 0.798160 0.043070 0.221284
C53   C     C_R   0.849500 0.750004 0.301005 0.826672
C54   C     C_R   0.849502 0.249989 0.301005 0.824637
C55   C     C_R   0.349501 0.250005 0.301005 0.826211
C56   C     C_R   0.349503 0.749988 0.301006 0.824383
C57   C     C_1   0.077477 0.750137 0.845105 -0.082571
C58   C     C_2   0.942466 0.749671 0.502933 -0.293722
C59   C     C_1   0.077398 0.249700 0.845097 -0.085483
C60   C     C_1   0.577454 0.250128 0.845105 -0.082595
C61   C     C_1   0.577377 0.749713 0.845097 -0.085363
C62   C     C_1   0.922340 0.750110 0.154946 -0.044157
C63   C     C_1   0.922659 0.249278 0.154941 -0.059906
C64   C     C_1   0.422328 0.250095 0.154947 -0.044408
C65   C     C_1   0.422630 0.749285 0.154942 -0.059907
C66   C     C_1   0.889096 0.749999 0.221682 -0.115483
C67   C     C_1   0.889284 0.249751 0.221684 -0.110388
C68   C     C_1   0.389093 0.249995 0.221683 -0.115525
C69   C     C_2   0.942464 0.250331 0.502937 -0.294621
C70   C     C_1   0.389275 0.749755 0.221685 -0.110231
C71   C     C_2   0.740733 0.028050 0.458365 -0.162332
C72   C     C_2   0.742613 0.971950 0.456769 -0.162777
C73   C     C_2   0.240737 0.528049 0.458361 -0.162228
C74   C     C_2   0.242617 0.471949 0.456765 -0.162631
C75   C     C_2   0.752403 0.056082 0.499347 -0.291935
C76   C     C_2   0.748132 0.943918 0.502979 -0.291517
C77   C     C_2   0.252404 0.556083 0.499347 -0.291824
C78   C     C_2   0.248133 0.443918 0.502978 -0.291445
C79   C     C_2   0.800912 0.471942 0.458412 -0.147757
C80   C     C_2   0.442466 0.249670 0.502933 -0.293963
C81   C     C_2   0.800646 0.528058 0.456901 -0.146952
C82   C     C_2   0.300911 0.971941 0.458406 -0.147542
C83   C     C_2   0.300647 0.028058 0.456905 -0.146610
C84   C     C_2   0.748290 0.443884 0.499502 -0.295058
C85   C     C_2   0.748891 0.556116 0.502920 -0.297586
C86   C     C_2   0.248291 0.943884 0.499514 -0.295466
C87   C     C_2   0.248888 0.056116 0.502909 -0.298018
C88   C     C_R   0.749999 0.611396 0.500239 0.861614
C89   C     C_R   0.749936 0.388604 0.499883 0.858998
C90   C     C_R   0.249999 0.111396 0.500238 0.861365
C91   C     C_2   0.442464 0.750331 0.502936 -0.294831
C92   C     C_R   0.249936 0.888604 0.499884 0.858765
C93   C     C_R   0.749811 0.888655 0.500240 0.854680
C94   C     C_R   0.750258 0.111345 0.499860 0.855630
C95   C     C_R   0.249811 0.388655 0.500239 0.854941
C96   C     C_R   0.250258 0.611345 0.499860 0.855850
C97   C     C_R   0.611461 0.749885 0.499879 0.859993
C98   C     C_R   0.611461 0.250116 0.499878 0.858958
C99   C     C_R   0.111461 0.249885 0.499879 0.859724
C100  C     C_R   0.111461 0.750116 0.499878 0.858828
C101  C     C_R   0.888544 0.749940 0.500237 0.852939
C102  C     C_3   0.029194 0.728050 0.042476 -0.346284
C103  C     C_R   0.888543 0.250061 0.500239 0.852945
C104  C     C_R   0.388544 0.249940 0.500237 0.852974
C105  C     C_R   0.388543 0.750061 0.500239 0.853107
C106  C     C_2   0.048861 0.719860 0.458426 -0.160069
C107  C     C_2   0.048853 0.280148 0.458441 -0.158416
C108  C     C_2   0.548860 0.219859 0.458428 -0.159794
C109  C     C_2   0.548854 0.780148 0.458440 -0.157834
C110  C     C_2   0.056402 0.751972 0.499459 -0.293357
C111  C     C_2   0.056400 0.248030 0.499463 -0.293584
C112  C     C_2   0.556401 0.251971 0.499461 -0.293485
Cl1   Cl    Cl    0.920007 0.651990 0.076207 -0.610025
Cl2   Cl    Cl    0.958215 0.355249 0.079629 -0.606413
Cl3   Cl    Cl    0.427956 0.148958 0.076222 -0.609174
Cl4   Cl    Cl    0.462735 0.855247 0.079629 -0.605220
H1    H     H_    0.084912 0.691700 0.423562 0.174937
H2    H     H_    0.901013 0.296021 0.061306 0.107485
H3    H     H_    0.388338 0.225360 0.063285 0.107180
H4    H     H_    0.403047 0.798922 0.061309 0.107378
H5    H     H_    0.990833 0.678448 0.933630 0.224220
H6    H     H_    0.026008 0.332011 0.936304 0.225826
H7    H     H_    0.496669 0.175287 0.933642 0.224397
H8    H     H_    0.529529 0.832196 0.936304 0.225992
H9    H     H_    0.024487 0.688392 0.062667 0.219380
H10   H     H_    0.044715 0.283980 0.061368 0.218923
H11   H     H_    0.529221 0.193043 0.062670 0.219157
H12   H     H_    0.084901 0.308313 0.423584 0.175689
H13   H     H_    0.546105 0.780727 0.061362 0.219064
H14   H     H_    0.087300 0.688229 0.936115 0.194113
H15   H     H_    0.109745 0.280148 0.934893 0.187222
H16   H     H_    0.592040 0.192837 0.936116 0.194007
H17   H     H_    0.610965 0.776820 0.934885 0.187375
H18   H     H_    0.949812 0.733992 0.936911 0.149497
H19   H     H_    0.966251 0.300322 0.935186 0.151254
H20   H     H_    0.451338 0.227509 0.936917 0.149138
H21   H     H_    0.468464 0.803126 0.935188 0.151186
H22   H     H_    0.729922 0.046682 0.423584 0.174326
H23   H     H_    0.584912 0.191700 0.423563 0.175108
H24   H     H_    0.738566 0.953316 0.416240 0.174257
H25   H     H_    0.229929 0.546682 0.423577 0.174225
H26   H     H_    0.238573 0.453316 0.416234 0.174147
H27   H     H_    0.764869 0.039186 0.533289 0.152547
H28   H     H_    0.750734 0.960815 0.545304 0.153088
H29   H     H_    0.264866 0.539186 0.533292 0.152474
H30   H     H_    0.250733 0.460815 0.545304 0.152990
H31   H     H_    0.846490 0.453312 0.423482 0.180752
H32   H     H_    0.845272 0.546687 0.416550 0.181265
H33   H     H_    0.346487 0.953312 0.423455 0.181162
H34   H     H_    0.584902 0.808312 0.423583 0.175937
H35   H     H_    0.345277 0.046687 0.416572 0.181799
H36   H     H_    0.022476 0.781331 0.533556 0.151591
H37   H     H_    0.022478 0.218668 0.533553 0.151402
H38   H     H_    0.522475 0.281330 0.533559 0.151540
H39   H     H_    0.522478 0.718668 0.533553 0.151359
H40   H     H_    0.701894 0.460770 0.533687 0.151143
H41   H     H_    0.703885 0.539231 0.545014 0.150072
H42   H     H_    0.201895 0.960767 0.533729 0.151167
H43   H     H_    0.203874 0.039233 0.544980 0.150121
H44   H     H_    0.995067 0.696491 0.416519 0.176305
H45   H     H_    0.994698 0.823997 0.931454 0.153983
H46   H     H_    0.995055 0.303525 0.416543 0.177636
H47   H     H_    0.495066 0.196488 0.416523 0.176616
H48   H     H_    0.495056 0.803525 0.416542 0.177993
H49   H     H_    0.938293 0.773593 0.545069 0.151802
H50   H     H_    0.938294 0.226403 0.545066 0.151444
H51   H     H_    0.438293 0.273594 0.545068 0.151693
H52   H     H_    0.438295 0.726403 0.545065 0.151353
H53   H     H_    0.115314 0.750595 0.935891 0.168879
H54   H     H_    0.105663 0.212023 0.937276 0.171058
H55   H     H_    0.614994 0.257232 0.935884 0.168854
H56   H     H_    0.962522 0.203368 0.935453 0.146714
H57   H     H_    0.603960 0.708880 0.937271 0.171249
H58   H     H_    0.052584 0.748981 0.063012 0.171152
H59   H     H_    0.044700 0.216832 0.065881 0.169861
H60   H     H_    0.552393 0.255700 0.063008 0.171196
H61   H     H_    0.543207 0.713541 0.065874 0.170124
H62   H     H_    0.922185 0.814219 0.053844 0.101065
H63   H     H_    0.900401 0.206215 0.059597 0.099715
H64   H     H_    0.417217 0.309949 0.053847 0.100939
H65   H     H_    0.398584 0.709263 0.059605 0.099515
H66   H     H_    0.059289 0.828465 0.937600 0.190920
H67   H     H_    0.488905 0.320591 0.931454 0.153967
H68   H     H_    0.021809 0.167188 0.930580 0.197415
H69   H     H_    0.552930 0.330448 0.937592 0.191040
H70   H     H_    0.518262 0.667829 0.930586 0.197542
H71   H     H_    0.027252 0.822009 0.124527 0.249701
H72   H     H_    0.078904 0.836379 0.025659 0.255781
H73   H     H_    0.045160 0.886533 0.093390 0.244349
H74   H     H_    0.981540 0.886459 0.050507 0.203430
H75   H     H_    0.935850 0.854927 0.137736 0.202177
H76   H     H_    0.017856 0.096743 0.989756 0.243988
H77   H     H_    0.049550 0.141611 0.020980 0.259093
H78   H     H_    0.460575 0.706416 0.935461 0.146496
H79   H     H_    0.003765 0.088396 0.077839 0.244431
H80   H     H_    0.927511 0.152538 0.136021 0.204644
H81   H     H_    0.912588 0.123385 0.076417 0.196510
H82   H     H_    0.521238 0.328941 0.124503 0.249662
H83   H     H_    0.571721 0.343435 0.025631 0.255820
H84   H     H_    0.533978 0.393445 0.093353 0.244232
H85   H     H_    0.470618 0.386562 0.050498 0.203401
H86   H     H_    0.427468 0.354969 0.137730 0.202777
H87   H     H_    0.511260 0.596347 0.989756 0.244006
H88   H     H_    0.544841 0.639139 0.020982 0.259161
H89   H     H_    0.886635 0.731827 0.063278 0.107556
H90   H     H_    0.496785 0.586718 0.077839 0.244452
H91   H     H_    0.423334 0.652831 0.136026 0.204994
H92   H     H_    0.407197 0.625627 0.076423 0.196443
O1    O     O_3   0.750030 0.750030 0.500000 -0.487961
O2    O     O_R   0.758570 0.135390 0.542990 -0.641804
O3    O     O_R   0.258570 0.364610 0.542990 -0.641948
O4    O     O_R   0.258570 0.635390 0.542990 -0.641835
O5    O     O_R   0.638020 0.720010 0.663980 -0.639484
O6    O     O_R   0.638020 0.279990 0.663980 -0.638488
O7    O     O_R   0.138020 0.220010 0.663980 -0.639328
O8    O     O_R   0.138020 0.779990 0.663980 -0.638296
O9    O     O_R   0.801960 0.780050 0.336020 -0.644607
O10   O     O_R   0.801960 0.219950 0.336020 -0.648582
O11   O     O_R   0.301960 0.280050 0.336020 -0.645417
O12   O     O_3   0.750030 0.249970 0.500000 -0.488269
O13   O     O_R   0.301960 0.719950 0.336020 -0.648997
O14   O     O_R   0.698090 0.780090 0.663980 -0.634978
O15   O     O_R   0.698090 0.219910 0.663980 -0.635458
O16   O     O_R   0.198090 0.280090 0.663980 -0.635171
O17   O     O_R   0.198090 0.719910 0.663980 -0.635686
O18   O     O_R   0.862050 0.719970 0.336020 -0.629286
O19   O     O_R   0.862050 0.280030 0.336020 -0.622492
O20   O     O_R   0.362050 0.219970 0.336020 -0.628061
O21   O     O_R   0.362050 0.780030 0.336020 -0.621733
O22   O     O_R   0.698510 0.635460 0.542990 -0.644517
O23   O     O_3   0.250030 0.250030 0.500000 -0.487983
O24   O     O_R   0.698510 0.364540 0.542990 -0.645057
O25   O     O_R   0.198510 0.135460 0.542990 -0.644622
O26   O     O_R   0.198510 0.864540 0.542990 -0.645113
O27   O     O_R   0.741470 0.864610 0.457010 -0.645208
O28   O     O_R   0.741470 0.135390 0.457010 -0.645108
O29   O     O_R   0.241470 0.364610 0.457010 -0.645126
O30   O     O_R   0.241470 0.635390 0.457010 -0.645045
O31   O     O_R   0.613960 0.720010 0.542990 -0.643145
O32   O     O_R   0.613960 0.279990 0.542990 -0.642990
O33   O     O_R   0.113960 0.220010 0.542990 -0.643068
O34   O     O_3   0.250030 0.749970 0.500000 -0.488328
O35   O     O_R   0.113960 0.779990 0.542990 -0.642898
O36   O     O_R   0.843120 0.780070 0.542990 -0.643497
O37   O     O_R   0.843120 0.219930 0.542990 -0.644198
O38   O     O_R   0.343120 0.280070 0.542990 -0.643623
O39   O     O_R   0.343120 0.719930 0.542990 -0.644299
O40   O     O_R   0.656940 0.780080 0.457010 -0.641605
O41   O     O_R   0.656940 0.219920 0.457010 -0.642607
O42   O     O_R   0.156940 0.280080 0.457010 -0.641889
O43   O     O_R   0.156940 0.719920 0.457010 -0.642775
O44   O     O_R   0.886110 0.719980 0.457010 -0.644147
O45   O     O_R   0.801570 0.635440 0.457010 -0.638613
O46   O     O_R   0.886110 0.280020 0.457010 -0.643200
O47   O     O_R   0.386110 0.219980 0.457010 -0.643918
O48   O     O_R   0.386110 0.780020 0.457010 -0.642938
O49   O     O_R   0.801570 0.364560 0.457010 -0.637425
O50   O     O_R   0.301570 0.135440 0.457010 -0.638381
O51   O     O_R   0.301570 0.864560 0.457010 -0.637327
O52   O     O_R   0.758570 0.864610 0.542990 -0.641925
Zn1   Zn    Zn3+2 0.823660 0.707100 0.438580 0.979255
Zn2   Zn    Zn3+2 0.737810 0.207050 0.438580 0.965847
Zn3   Zn    Zn3+2 0.237810 0.292950 0.438580 0.968108
Zn4   Zn    Zn3+2 0.237810 0.707050 0.438580 0.965553
Zn5   Zn    Zn3+2 0.762240 0.792950 0.561420 0.974644
Zn6   Zn    Zn3+2 0.762240 0.207050 0.561420 0.974316
Zn7   Zn    Zn3+2 0.262240 0.292950 0.561420 0.974503
Zn8   Zn    Zn3+2 0.262240 0.707050 0.561420 0.974219
Zn9   Zn    Zn3+2 0.823660 0.292900 0.438580 0.983460
Zn10  Zn    Zn3+2 0.323660 0.207100 0.438580 0.980086
Zn11  Zn    Zn3+2 0.323660 0.792900 0.438580 0.984108
Zn12  Zn    Zn3+2 0.676410 0.707120 0.561420 0.975197
Zn13  Zn    Zn3+2 0.676410 0.292880 0.561420 0.974892
Zn14  Zn    Zn3+2 0.176410 0.207120 0.561420 0.975055
Zn15  Zn    Zn3+2 0.176410 0.792880 0.561420 0.974892
Zn16  Zn    Zn3+2 0.737810 0.792950 0.438580 0.968809

loop_
_geom_bond_atom_site_label_1
_geom_bond_atom_site_label_2
_ccdc_geom_bond_type
C44   C49   S    
C55   O20   A    
C13   H60   S    
C49   Cl1   S    
C21   C26   S    
O6    Zn13  S    
C100  C110  S    
C96   O4    A    
O7    Zn14  S    
O23   Zn7   S    
O9    Zn16  S    
C26   H70   S    
C73   C74   S    
C91   C105  S    
O30   Zn4   S    
O37   Zn6   S    
C22   C40   S    
C15   H91   S    
C39   H57   S    
O13   Zn4   S    
O12   Zn6   S    
O16   Zn7   S    
C55   C68   S    
C38   H55   S    
C20   H64   S    
C73   H25   S    
C93   O27   A    
O1    Zn5   S    
C14   H82   S    
C16   H88   S    
C103  O37   A    
C104  O47   A    
O31   Zn12  S    
C80   C104  S    
O28   Zn2   S    
C64   C68   T    
C1    C30   S    
C25   O6    A    
C11   H79   S    
C107  H12   S    
C38   C42   S    
C110  H36   S    
C36   O7    A    
C17   C39   S    
C56   O13   A    
C53   O18   A    
C85   C88   S    
C98   O32   A    
C8    H75   S    
C27   C47   S    
C65   C70   T    
O23   Zn10  S    
C44   H5    S    
C56   C70   S    
C24   C42   S    
O32   Zn13  S    
O5    Zn12  S    
C2    C32   S    
C88   O22   A    
C42   C46   S    
C58   H49   S    
C101  O36   A    
C69   H50   S    
C105  O39   A    
O15   Zn6   S    
C5    C69   D    
C22   H66   S    
O19   Zn9   S    
O1    Zn12  S    
C95   O29   A    
C23   H56   S    
C20   C24   S    
C8    H74   S    
C8    C9    S    
C51   H3    S    
C25   O15   A    
C4    H44   S    
C12   H86   S    
O41   Zn2   S    
C16   H87   S    
C48   H21   S    
C43   C48   S    
C36   O16   A    
C80   H51   S    
C74   C78   D    
C15   H92   S    
C72   C76   D    
O43   Zn4   S    
C9    H72   S    
C69   C103  S    
C74   H26   S    
C35   C102  S    
C7    C91   D    
O2    Zn6   S    
C112  H38   S    
C24   H67   S    
C25   C29   S    
O27   Zn16  S    
C2    H10   S    
C31   C62   S    
C14   H83   S    
C85   H41   S    
C31   C49   S    
C99   O42   A    
C9    H73   S    
C19   C32   S    
C34   C65   S    
O3    Zn7   S    
C26   C43   S    
C54   O10   A    
C71   H22   S    
C83   H35   S    
C52   Cl4   S    
C53   O9    A    
C97   O31   A    
O48   Zn11  S    
C63   C67   T    
C15   C21   S    
C45   H19   S    
C35   H14   S    
C98   C112  S    
C62   C66   T    
C16   H90   S    
C17   H13   S    
C31   C102  S    
C91   H52   S    
C28   C36   S    
C89   O49   A    
C33   C51   S    
C27   C57   T    
C42   C60   S    
C37   H54   S    
C79   C81   S    
C22   H45   S    
C19   C23   S    
C55   O11   A    
C21   C34   S    
C82   C86   D    
C4    C106  S    
C46   C51   S    
C77   C96   S    
C8    C18   S    
O26   Zn15  S    
C37   H15   S    
O23   Zn14  S    
C24   H69   S    
C50   Cl2   S    
C78   C95   S    
C38   H16   S    
O33   Zn14  S    
C99   O33   A    
C21   H65   S    
C13   C33   S    
C11   H76   S    
C10   H80   S    
C76   C93   S    
C98   O41   A    
C93   O52   A    
C111  H37   S    
C3    C97   S    
C6    C80   D    
C47   O17   A    
C29   C60   T    
C40   C44   S    
C10   C19   S    
O17   Zn8   S    
C81   H32   S    
C99   C111  S    
C47   O8    A    
C12   C20   S    
C3    H39   S    
O11   Zn3   S    
O34   Zn8   S    
C58   C101  S    
C12   H85   S    
O1    Zn1   S    
O12   Zn9   S    
C86   H42   S    
C44   H18   S    
C32   C50   S    
C13   C38   S    
C75   C94   S    
C100  O35   A    
C75   H27   S    
O44   Zn1   S    
O39   Zn8   S    
C52   H4    S    
O1    Zn16  S    
C7    C109  S    
C12   C14   S    
C94   O2    A    
C104  O38   A    
C82   C83   S    
C2    H59   S    
C1    O5    A    
C35   H53   S    
C72   H24   S    
C46   H7    S    
O34   Zn4   S    
C101  O44   A    
O49   Zn9   S    
C84   C89   S    
C20   C33   S    
O35   Zn15  S    
O38   Zn7   S    
C26   H78   S    
C10   H81   S    
C19   H63   S    
C84   H40   S    
C92   O51   A    
O51   Zn11  S    
C43   C61   S    
C5    C107  S    
C28   C59   T    
C17   H61   S    
O14   Zn5   S    
O23   Zn3   S    
C6    C108  S    
C40   C57   S    
O46   Zn9   S    
O12   Zn13  S    
C50   H2    S    
C107  C111  D    
O24   Zn13  S    
O12   Zn2   S    
C11   H77   S    
C32   C63   S    
C49   H89   S    
C9    H71   S    
C83   C87   D    
O34   Zn15  S    
C108  H23   S    
C79   H31   S    
O40   Zn16  S    
C88   O45   A    
C54   C67   S    
C18   H62   S    
C45   H6    S    
C102  H58   S    
C39   H17   S    
C7    H48   S    
C102  H9    S    
C34   C52   S    
C23   C41   S    
C41   C45   S    
O36   Zn5   S    
C95   O3    A    
O34   Zn11  S    
C18   C22   S    
C35   C40   S    
C14   H84   S    
C23   H68   S    
C106  H1    S    
C53   C66   S    
C5    H46   S    
C71   C75   D    
O29   Zn3   S    
O21   Zn11  S    
C2    C37   S    
C94   O28   A    
C79   C84   D    
C77   H29   S    
O22   Zn12  S    
C45   C50   S    
C3    C109  D    
C33   C64   S    
O10   Zn2   S    
O25   Zn14  S    
C76   H28   S    
C97   O40   A    
C92   O26   A    
C96   O30   A    
O8    Zn15  S    
C87   H43   S    
C56   O21   A    
C109  H34   S    
O18   Zn1   S    
C89   O24   A    
C37   C41   S    
O50   Zn10  S    
C51   Cl3   S    
O42   Zn3   S    
C82   H33   S    
C10   C11   S    
C78   H30   S    
C86   C92   S    
C46   H20   S    
C13   H11   S    
C108  C112  D    
C48   C52   S    
C71   C72   S    
C6    H47   S    
C90   O25   A    
C106  C110  D    
C48   H8    S    
C17   C34   S    
C87   C90   S    
C4    C58   D    
O20   Zn10  S    
C103  O46   A    
C73   C77   D    
C1    O14   A    
O45   Zn1   S    
C18   C31   S    
C105  O48   A    
O4    Zn8   S    
O52   Zn5   S    
C30   C61   T    
C100  O43   A    
C39   C43   S    
C81   C85   D    
C15   C16   S    
C41   C59   S    
C54   O19   A    
O47   Zn10  S    
C90   O50   A    
