data_mof_unit_52364.cif
_audit_creation_date              2012-12-11T17:19:18-0500
_audit_creation_method            fapswitch 2.2
_symmetry_space_group_name_H-M    P1
_symmetry_Int_Tables_number       1
_space_group_crystal_system       triclinic
_cell_length_a                    14.660399
_cell_length_b                    7.263406
_cell_length_c                    13.473612
_cell_angle_alpha                 89.995239
_cell_angle_beta                  99.861259
_cell_angle_gamma                 90.001699
_cell_volume                      1413.53226071

loop_
_atom_site_label
_atom_site_type_symbol
_atom_type_description
_atom_site_fract_x
_atom_site_fract_y
_atom_site_fract_z
_atom_type_partial_charge
O1    O     O_R   0.648180 0.355050 0.151550 -0.540067
O2    O     O_R   0.351820 0.644950 0.848450 -0.540067
O3    O     O_R   0.851820 0.855050 0.348450 -0.540076
O4    O     O_R   0.148180 0.144950 0.651550 -0.540076
O5    O     O_R   0.835240 0.681980 0.154280 -0.533621
O6    O     O_R   0.164760 0.318020 0.845720 -0.533621
O7    O     O_R   0.664760 0.181980 0.345720 -0.533595
O8    O     O_R   0.335240 0.818020 0.654280 -0.533595
C1    C     C_R   0.863634 0.516211 0.133201 0.673570
C2    C     C_R   0.136366 0.483789 0.866799 0.673571
C3    C     C_R   0.636361 0.016198 0.366791 0.673584
C4    C     C_R   0.363639 0.983802 0.633209 0.673584
O9    O     O_R   0.647870 0.684600 0.139630 -0.525155
O10   O     O_R   0.352130 0.315400 0.860370 -0.525155
O11   O     O_R   0.852130 0.184600 0.360370 -0.525147
O12   O     O_R   0.147870 0.815400 0.639630 -0.525147
O13   O     O_R   0.663110 0.857440 0.333700 -0.538739
O14   O     O_R   0.336890 0.142560 0.666300 -0.538739
O15   O     O_R   0.836890 0.357440 0.166300 -0.538711
O16   O     O_R   0.163110 0.642560 0.833700 -0.538711
C5    C     C_R   0.615068 0.515983 0.113183 0.721936
C6    C     C_R   0.384932 0.484017 0.886817 0.721935
C7    C     C_R   0.884932 0.015975 0.386817 0.721943
C8    C     C_R   0.115068 0.984025 0.613183 0.721944
H1    H     H_    0.506872 0.876509 0.754446 0.155271
H2    H     H_    0.493128 0.123491 0.245554 0.155271
H3    H     H_    0.993160 0.376217 0.745615 0.155295
H4    H     H_    0.006840 0.623783 0.254385 0.155295
O17   O     O_3   0.755220 0.522230 0.313690 -0.373792
O18   O     O_3   0.244780 0.477770 0.686310 -0.373792
O19   O     O_3   0.744780 0.022230 0.186310 -0.373791
O20   O     O_3   0.255220 0.977770 0.813690 -0.373791
V1    V     V_3+5 0.749030 0.796100 0.238190 1.509649
V2    V     V_3+5 0.250970 0.203900 0.761810 1.509649
V3    V     V_3+5 0.750970 0.296100 0.261810 1.509679
V4    V     V_3+5 0.249030 0.703900 0.738190 1.509679
C9    C     C_1   0.966026 0.005347 0.466772 -0.083450
C10   C     C_1   0.033973 0.994653 0.533228 -0.083450
C11   C     C_1   0.533973 0.505358 0.033228 -0.083470
C12   C     C_1   0.466027 0.494642 0.966772 -0.083470
C13   C     C_R   0.555052 0.883908 0.702062 -0.259863
C14   C     C_R   0.444948 0.116092 0.297938 -0.259863
C15   C     C_R   0.944959 0.383797 0.797968 -0.259834
C16   C     C_R   0.055041 0.616203 0.202031 -0.259835
C17   C     C_R   0.646829 0.836078 0.738290 0.580105
C18   C     C_R   0.353171 0.163922 0.261710 0.580105
C19   C     C_R   0.853175 0.336046 0.761726 0.580097
C20   C     C_R   0.146824 0.663954 0.238274 0.580097
C21   C     C_R   0.713238 0.845255 0.674697 0.340389
C22   C     C_R   0.286762 0.154745 0.325302 0.340389
C23   C     C_R   0.786743 0.345457 0.825286 0.340288
C24   C     C_R   0.213257 0.654543 0.174714 0.340288
C25   C     C_R   0.686127 0.901422 0.574871 -0.181053
C26   C     C_R   0.313873 0.098578 0.425129 -0.181053
C27   C     C_R   0.813840 0.401685 0.925103 -0.180952
C28   C     C_R   0.186160 0.598315 0.074897 -0.180952
C29   C     C_R   0.593265 0.949409 0.536237 -0.023531
C30   C     C_R   0.406735 0.050591 0.463763 -0.023531
C31   C     C_R   0.906721 0.449506 0.963755 -0.023589
C32   C     C_R   0.093279 0.550493 0.036245 -0.023589
C33   C     C_R   0.526450 0.941075 0.601175 -0.028085
C34   C     C_R   0.473549 0.058925 0.398825 -0.028085
C35   C     C_R   0.973548 0.441064 0.898836 -0.028076
C36   C     C_R   0.026452 0.558936 0.101164 -0.028076
C37   C     C_R   0.566813 0.007989 0.434964 -0.059271
C38   C     C_R   0.433187 0.992011 0.565035 -0.059271
C39   C     C_R   0.933181 0.508040 0.065025 -0.059266
C40   C     C_R   0.066819 0.491960 0.934975 -0.059266
H5    H     H_    0.739249 0.908250 0.528250 0.156296
H6    H     H_    0.260751 0.091750 0.471750 0.156296
H7    H     H_    0.760702 0.408690 0.971700 0.156293
H8    H     H_    0.239298 0.591310 0.028300 0.156293
F1    F     F_    0.670685 0.782195 0.835785 -0.692875
F2    F     F_    0.329315 0.217805 0.164215 -0.692875
F3    F     F_    0.829346 0.282016 0.664257 -0.692878
F4    F     F_    0.170654 0.717984 0.335743 -0.692878
O21   O     O_3   0.194828 0.198150 0.292755 -0.625362
H9    H     H_    0.185691 0.232830 0.220616 0.327602
O22   O     O_3   0.805172 0.801850 0.707245 -0.625362
H10   H     H_    0.814309 0.767170 0.779384 0.327602
O23   O     O_3   0.305204 0.697754 0.207283 -0.625343
H11   H     H_    0.314300 0.732656 0.279389 0.327596
O24   O     O_3   0.694796 0.302246 0.792717 -0.625343
H12   H     H_    0.685700 0.267344 0.720611 0.327596

loop_
_geom_bond_atom_site_label_1
_geom_bond_atom_site_label_2
_ccdc_geom_bond_type
C30   C34   A    
C16   C20   A    
O1    C5    A    
C27   C31   A    
C20   F4    S    
O3    C7    A    
C13   C33   A    
C25   H5    S    
O23   H11   S    
C15   C35   A    
O21   H9    S    
C16   C36   A    
O7    C3    A    
H2    C14   S    
C22   C26   A    
O8    V4    S    
O4    C8    A    
O3    V1    S    
C17   F1    S    
C14   C18   A    
C31   C39   A    
C33   C38   A    
C30   C38   A    
C2    O16   A    
C28   H8    S    
C5    C11   S    
O2    C6    A    
C8    C10   S    
O19   V1    S    
C14   C34   A    
O11   C7    A    
O12   C8    A    
O13   V1    S    
O11   V3    S    
C1    O15   A    
O4    V2    S    
C36   C39   A    
H1    C13   S    
C11   C12   T    
C25   C29   A    
C19   C23   A    
C7    C9    S    
C4    C38   S    
H4    C16   S    
C21   O22   S    
O5    V1    S    
O20   V2    S    
C3    C37   S    
C1    C39   S    
O5    C1    A    
C9    C10   T    
O24   H12   S    
C26   H6    S    
C17   C21   A    
O8    C4    A    
C6    C12   S    
O9    C5    A    
O14   V2    S    
O6    V2    S    
C22   O21   S    
C23   O24   S    
C18   F2    S    
O1    V3    S    
C26   C30   A    
O2    V4    S    
C18   C22   A    
C35   C40   A    
C3    O13   A    
C34   C37   A    
O7    V3    S    
C29   C37   A    
O10   V2    S    
C29   C33   A    
C2    C40   S    
O17   V3    S    
C31   C35   A    
O18   V4    S    
C32   C36   A    
O10   C6    A    
C19   F3    S    
O15   V3    S    
O12   V4    S    
C21   C25   A    
C23   C27   A    
C24   O23   S    
O6    C2    A    
O22   H10   S    
O16   V4    S    
H3    C15   S    
C20   C24   A    
C28   C32   A    
C32   C40   A    
O9    V1    S    
C4    O14   A    
C13   C17   A    
C15   C19   A    
C27   H7    S    
C24   C28   A    
