data_mof_unit_23385.cif
_audit_creation_date              2013-03-05T15:58:18-0500
_audit_creation_method            fapswitch 2.2
_symmetry_space_group_name_H-M    P1
_symmetry_Int_Tables_number       1
_space_group_crystal_system       triclinic
_cell_length_a                    14.814453
_cell_length_b                    14.927402
_cell_length_c                    15.045586
_cell_angle_alpha                 109.891292
_cell_angle_beta                  109.13845
_cell_angle_gamma                 109.136666
_cell_volume                      2568.95443336

loop_
_atom_site_label
_atom_site_type_symbol
_atom_site_description
_atom_site_fract_x
_atom_site_fract_y
_atom_site_fract_z
_atom_type_partial_charge
C1    C     C_R   0.906327 0.193876 0.992071 -0.066264
C2    C     C_R   0.021467 0.745751 0.932787 -0.115213
H1    H     H_    0.846027 0.165313 0.015506 0.095110
H2    H     H_    0.054965 0.755268 0.880881 0.107316
N1    N     N_R   0.947560 0.293820 0.002910 -0.051962
N2    N     N_R   0.052440 0.706180 0.997090 -0.044964
C3    C     C_R   0.294742 0.806355 0.204467 -0.129982
C4    C     C_R   0.683742 0.240276 0.774557 -0.134809
H3    H     H_    0.341562 0.832811 0.167675 0.097185
H4    H     H_    0.617991 0.223985 0.793663 0.095381
N3    N     N_R   0.208960 0.706170 0.152110 -0.040556
N4    N     N_R   0.791040 0.293830 0.847890 -0.043591
C5    C     C_R   0.224440 0.408239 0.977446 -0.131639
C6    C     C_R   0.787259 0.589327 0.094684 -0.149901
H5    H     H_    0.205528 0.323891 0.943672 0.122974
H6    H     H_    0.815025 0.672765 0.152728 0.104268
N5    N     N_R   0.154330 0.443160 0.946140 -0.041353
N6    N     N_R   0.845670 0.556840 0.053860 -0.038550
C7    C     C_R   0.058219 0.589708 0.314544 -0.104934
C8    C     C_R   0.011159 0.410103 0.704994 -0.162433
H7    H     H_    0.106049 0.673985 0.379802 0.105360
H8    H     H_    0.991664 0.326577 0.658308 0.102670
N7    N     N_R   0.002190 0.556820 0.208880 -0.043730
N8    N     N_R   0.997810 0.443180 0.791120 -0.041157
C9    C     C_R   0.315333 0.591658 0.068829 -0.134499
C10   C     C_R   0.696453 0.406921 0.000219 -0.126726
H9    H     H_    0.379465 0.676126 0.119934 0.117206
H10   H     H_    0.641982 0.322294 0.972033 0.087151
N9    N     N_R   0.210550 0.556810 0.002910 -0.043693
N10   N     N_R   0.789450 0.443190 0.997090 -0.037036
C11   C     C_R   0.975798 0.406865 0.218597 -0.104127
C12   C     C_R   0.099526 0.591611 0.794571 -0.077025
H11   H     H_    0.956489 0.323775 0.191913 0.132349
H12   H     H_    0.159855 0.675668 0.830645 0.094410
N11   N     N_R   0.945970 0.443180 0.152110 -0.047969
N12   N     N_R   0.054030 0.556820 0.847890 -0.048466
C13   C     C_R   0.205733 0.804489 0.297425 -0.150535
C14   C     C_R   0.780024 0.249077 0.686734 -0.116331
H13   H     H_    0.172354 0.825697 0.349367 0.129079
H14   H     H_    0.806547 0.250074 0.628650 0.120485
N13   N     N_R   0.151530 0.706170 0.208880 -0.041585
N14   N     N_R   0.848470 0.293830 0.791120 -0.044601
C15   C     C_R   0.997949 0.197232 0.901917 -0.158599
C16   C     C_R   0.925530 0.741185 0.020354 -0.146087
H15   H     H_    0.017651 0.175016 0.838519 0.121306
H16   H     H_    0.864925 0.738934 0.044257 0.120862
N15   N     N_R   0.004980 0.293810 0.946140 -0.042226
N16   N     N_R   0.995020 0.706190 0.053860 -0.041282
C17   C     C_R   0.936772 0.130630 0.928556 0.087808
C18   C     C_R   0.940288 0.768641 0.944719 0.070656
C19   C     C_R   0.294624 0.872053 0.295605 0.066485
C20   C     C_R   0.674767 0.210758 0.671799 0.055149
C21   C     C_R   0.325582 0.499871 0.055151 0.032419
C22   C     C_R   0.694337 0.496883 0.061854 0.043574
C23   C     C_R   0.041273 0.495299 0.322230 0.051963
C24   C     C_R   0.074300 0.501256 0.703451 0.094835
C25   C     C_R   0.938571 0.862465 0.839123 -0.197047
C26   C     C_R   0.828875 0.957217 0.915985 -0.169097
C27   C     C_R   0.066849 0.062063 0.686103 -0.182482
C28   C     C_R   0.774259 0.893011 0.158476 -0.201241
H17   H     H_    0.035986 0.060109 0.609336 0.128368
H18   H     H_    0.820599 0.938062 0.246182 0.129900
Ni1   Ni    Ni4+2 0.869690 0.369690 0.000000 0.215309
Ni2   Ni    Ni4+2 0.130310 0.630310 0.000000 0.213293
Ni3   Ni    Ni4+2 0.001390 0.369680 0.869810 0.213886
Ni4   Ni    Ni4+2 0.998610 0.630320 0.130190 0.218860
C29   C     C_R   0.993602 0.000213 0.708944 -0.087188
C30   C     C_R   0.830281 0.894576 0.100019 -0.166513
H19   H     H_    0.303767 0.182792 0.924111 0.124975
H20   H     H_    0.511922 0.739722 0.947172 0.129098
H21   H     H_    0.611910 0.079961 0.080492 0.117371
H22   H     H_    0.416692 0.010399 0.935164 0.116613
C31   C     C_R   0.706692 0.238935 0.224359 -0.118005
C32   C     C_R   0.408696 0.854980 0.860299 -0.102123
H23   H     H_    0.637574 0.253079 0.212126 0.117497
H24   H     H_    0.494933 0.886836 0.913064 0.119295
C33   C     C_R   0.810796 0.319227 0.313044 -0.167280
C34   C     C_R   0.342047 0.744845 0.779049 -0.200892
H25   H     H_    0.821476 0.395775 0.368575 0.166554
H26   H     H_    0.377752 0.691902 0.768725 0.128468
C35   C     C_R   0.901288 0.302005 0.329348 -0.084781
C36   C     C_R   0.230618 0.703734 0.708921 -0.052181
C37   C     C_R   0.885902 0.201256 0.256792 0.323179
C38   C     C_R   0.185339 0.774990 0.719896 0.330032
C39   C     C_R   0.781330 0.123274 0.165650 -0.254621
C40   C     C_R   0.254399 0.885392 0.802804 -0.258949
H27   H     H_    0.768744 0.048758 0.105484 0.164896
H28   H     H_    0.222706 0.941342 0.813849 0.180369
C41   C     C_R   0.692167 0.141348 0.150369 -0.138268
C42   C     C_R   0.364861 0.924963 0.872304 -0.149558
C43   C     C_R   0.036278 0.396421 0.519302 -0.154445
C44   C     C_R   0.158755 0.581336 0.518377 -0.202698
H29   H     H_    0.985924 0.322669 0.515388 0.119023
H30   H     H_    0.208248 0.653218 0.518212 0.119194
C45   C     C_R   0.101264 0.497195 0.616627 0.051311
C46   C     C_R   0.073683 0.487334 0.420528 0.075327
C47   C     C_R   0.167194 0.590890 0.616391 0.105010
C48   C     C_R   0.011101 0.392923 0.421215 0.129940
H31   H     H_    0.907178 0.950289 0.649708 0.111134
H32   H     H_    0.919095 0.941769 0.143400 0.175431
H33   H     H_    0.425489 0.363041 0.122552 0.118867
H34   H     H_    0.603757 0.626620 0.028109 0.141492
H35   H     H_    0.173455 0.082600 0.968530 0.136966
H36   H     H_    0.610560 0.741365 0.843262 0.129365
C49   C     C_R   0.031021 0.010066 0.811997 0.151047
C50   C     C_R   0.772252 0.838972 0.985870 0.097952
C51   C     C_R   0.217396 0.132922 0.863965 -0.241264
C52   C     C_R   0.600843 0.782505 0.989936 -0.232909
H37   H     H_    0.982174 0.895029 0.440905 0.119529
H38   H     H_    0.880302 0.990511 0.435779 0.096259
C53   C     C_R   0.079695 0.977140 0.384941 -0.091792
C54   C     C_R   0.752969 0.961751 0.478737 -0.125637
H39   H     H_    0.011227 0.971957 0.324066 0.125006
H40   H     H_    0.759529 0.898218 0.494714 0.109322
C55   C     C_R   0.183581 0.022743 0.394524 -0.087375
C56   C     C_R   0.675650 0.991155 0.490443 -0.116883
H41   H     H_    0.193972 0.049975 0.338612 0.134134
H42   H     H_    0.623969 0.951042 0.517249 0.111466
C57   C     C_R   0.272075 0.027037 0.472065 0.100903
C58   C     C_R   0.662438 0.069329 0.464047 0.107924
C59   C     C_R   0.256788 0.990718 0.543440 -0.195940
C60   C     C_R   0.726609 0.116865 0.424692 -0.177531
H43   H     H_    0.323779 0.992403 0.602993 0.123003
H44   H     H_    0.715541 0.175350 0.401639 0.135009
C61   C     C_R   0.152261 0.942709 0.531433 -0.091891
C62   C     C_R   0.806988 0.090239 0.417489 -0.103027
H45   H     H_    0.140159 0.910598 0.583375 0.178917
H46   H     H_    0.858175 0.127953 0.389543 0.135047
C63   C     C_R   0.063447 0.934411 0.451281 -0.142872
C64   C     C_R   0.819916 0.012674 0.444142 -0.103227
C65   C     C_R   0.474387 0.134060 0.562087 -0.222646
C66   C     C_R   0.475006 0.026466 0.371688 -0.215694
H47   H     H_    0.473377 0.180066 0.634742 0.133592
H48   H     H_    0.478142 0.986010 0.299091 0.136206
C67   C     C_R   0.573950 0.146894 0.565928 0.059767
C68   C     C_R   0.377012 0.989079 0.374487 0.041978
C69   C     C_R   0.573510 0.091744 0.468103 0.015400
C70   C     C_R   0.374752 0.052331 0.467592 0.033124
C71   C     C_R   0.178915 0.128232 0.763244 0.141652
C72   C     C_R   0.659537 0.840695 0.103710 0.153549
C73   C     C_R   0.829381 0.868898 0.928040 0.049241
C74   C     C_R   0.951945 0.960278 0.842946 -0.001768
H49   H     H_    0.977763 0.824438 0.803324 0.175789
H50   H     H_    0.780627 0.989850 0.940834 0.113576
C75   C     C_R   0.143549 0.074968 0.888816 -0.180261
C76   C     C_R   0.656884 0.781290 0.931071 -0.179604
C77   C     C_R   0.894807 0.827076 0.898342 0.038807
C78   C     C_R   0.902566 0.013495 0.890152 0.049507
C79   C     C_3   0.485712 0.396029 0.002740 -0.162924
C80   C     C_3   0.544452 0.597865 0.150441 -0.158035
C81   C     C_3   0.445681 0.471612 0.977523 -0.123777
C82   C     C_3   0.586142 0.522184 0.176036 -0.140889
H51   H     H_    0.387197 0.452009 0.895989 0.127221
H52   H     H_    0.646629 0.542468 0.256920 0.127686
H53   H     H_    0.464484 0.313903 0.942348 0.110045
H54   H     H_    0.567050 0.679738 0.212506 0.128663
C83   C     C_3   0.427988 0.499029 0.076301 0.177409
C84   C     C_3   0.601913 0.494892 0.076335 0.171528
C85   C     C_3   0.466919 0.422907 0.101669 -0.165033
C86   C     C_3   0.561953 0.570061 0.051236 -0.159108
N17   N     N_R   0.977023 0.182175 0.269053 0.216985
O1    O     O_R   0.050049 0.208563 0.364051 -0.435825
O2    O     O_R   0.988521 0.140031 0.185094 -0.448808
N18   N     N_R   0.070984 0.737474 0.650194 0.217548
O3    O     O_R   0.997815 0.633765 0.590503 -0.430052
O4    O     O_R   0.037180 0.807876 0.652035 -0.464813
C87   C     C_1   0.253697 0.191912 0.739094 0.018710
N19   N     N_1   0.313501 0.242785 0.719173 -0.083450
C88   C     C_1   0.602479 0.851336 0.164150 0.007303
N20   N     N_1   0.556909 0.860798 0.213097 -0.105593

loop_
_geom_bond_atom_site_label_1
_geom_bond_atom_site_label_2
_geom_bond_distance
_ccdc_geom_bond_type
C18   C77   1.480872 S    
C24   C45   1.474397 S    
C79   C85   1.546782 S    
C72   C88   1.435418 S    
C80   C83   1.532010 S    
N5    N9    1.386521 A    
C88   N20   1.155749 T    
C6    N6    1.334980 A    
C2    H2    1.076905 S    
C8    C24   1.388599 A    
C54   H40   1.080247 S    
N17   O1    1.300778 A    
H19   C51   1.080801 S    
C3    N3    1.329638 A    
N1    N15   1.389085 A    
N8    N12   1.386396 A    
C32   H24   1.080869 S    
C25   C74   1.385684 A    
C1    N1    1.340571 A    
C81   C83   1.535182 S    
N7    Ni4   1.867935 S    
N15   Ni3   1.867852 S    
N18   O3    1.301360 A    
C7    H7    1.080553 S    
C9    C21   1.381200 A    
C14   N14   1.318624 A    
C65   C67   1.402463 A    
C79   C81   1.533314 S    
C51   C75   1.397452 A    
C34   H26   1.083011 S    
C22   C84   1.447909 S    
C35   C48   1.483394 S    
C62   C64   1.396083 A    
C16   C18   1.390142 A    
C26   H50   1.080533 S    
C44   C46   1.393879 A    
N1    Ni1   1.863490 S    
C28   H18   1.079018 S    
N2    Ni2   1.863489 S    
N16   Ni4   1.867852 S    
N4    N14   1.389208 A    
C2    C18   1.401618 A    
C27   C29   1.396982 A    
C53   C63   1.396823 A    
C8    N8    1.326171 A    
C16   H16   1.066170 S    
C55   H41   1.083136 S    
C46   C48   1.416104 A    
N14   Ni3   1.860978 S    
C11   H11   1.065181 S    
N3    N13   1.389207 A    
N6    N10   1.386520 A    
C6    H6    1.082385 S    
C27   C71   1.400083 A    
C4    N4    1.341567 A    
C79   C84   1.529679 S    
C4    C20   1.401913 A    
C5    C21   1.379252 A    
C38   N18   1.448035 S    
C29   H31   1.078505 S    
C39   H27   1.076872 S    
C37   N17   1.435953 S    
N9    Ni2   1.863434 S    
C83   C85   1.532958 S    
C80   H54   1.108103 S    
N10   Ni1   1.863432 S    
C84   C86   1.526233 S    
C31   H23   1.082387 S    
C2    N2    1.330771 A    
C30   C50   1.404143 A    
C10   C22   1.365117 A    
N17   O2    1.300417 A    
C87   N19   1.157298 T    
C58   C60   1.403780 A    
C44   C47   1.391023 A    
C52   C76   1.398234 A    
C57   C59   1.404834 A    
C9    N9    1.331879 A    
C82   C84   1.532024 S    
C27   H17   1.079819 S    
C25   H49   1.078225 S    
C40   H28   1.076768 S    
H36   C76   1.083116 S    
C68   C70   1.416451 A    
N3    Ni2   1.870957 S    
C40   C42   1.394333 A    
H34   C86   1.102645 S    
C49   C74   1.471011 S    
C52   C72   1.399233 A    
N4    Ni1   1.870958 S    
C39   C41   1.395411 A    
C29   C49   1.400260 A    
C66   C69   1.378806 A    
C43   C45   1.400408 A    
C56   C58   1.404250 A    
C17   C78   1.479036 S    
C1    H1    1.078524 S    
C12   H12   1.072852 S    
C60   C62   1.397598 A    
C7    N7    1.339347 A    
C30   H32   1.081550 S    
C59   C61   1.394632 A    
C74   C78   1.417178 A    
C43   H29   1.077315 S    
H22   C42   1.082384 S    
C19   C68   1.480325 S    
C34   C36   1.402852 A    
H21   C41   1.081253 S    
C33   C35   1.405946 A    
C66   C68   1.394855 A    
C49   C75   1.403294 A    
C3    H3    1.079084 S    
C44   H30   1.084495 S    
C33   H25   1.083474 S    
C53   H39   1.079292 S    
C71   C87   1.439270 S    
C15   H15   1.065732 S    
C28   C30   1.393841 A    
N2    N16   1.389086 A    
N8    Ni3   1.867936 S    
C28   C72   1.396757 A    
C66   H48   1.078307 S    
C21   C83   1.449699 S    
C37   C39   1.404957 A    
C82   H52   1.109920 S    
C10   N10   1.328232 A    
C36   C38   1.424611 A    
C5    H5    1.077974 S    
H37   C63   1.081588 S    
C36   C47   1.472151 S    
C80   C82   1.550351 S    
N6    Ni4   1.860850 S    
C60   H44   1.082579 S    
C12   N12   1.332694 A    
C54   C56   1.394627 A    
H35   C75   1.083141 S    
C50   C73   1.473878 S    
C80   C86   1.539494 S    
C7    C23   1.400155 A    
C67   C69   1.417654 A    
C62   H46   1.076564 S    
C55   C57   1.405358 A    
C6    C22   1.374080 A    
C57   C70   1.472655 S    
N5    Ni3   1.860853 S    
C15   C17   1.374413 A    
C8    H8    1.079963 S    
C23   C46   1.457206 S    
C65   H47   1.083248 S    
C35   C37   1.414329 A    
C53   C55   1.397698 A    
C45   C47   1.421315 A    
N13   Ni4   1.860980 S    
C9    H9    1.076820 S    
C10   H10   1.081457 S    
C50   C76   1.403680 A    
C5    N5    1.331777 A    
C54   C64   1.394924 A    
C81   C86   1.528182 S    
C32   C42   1.392460 A    
C25   C77   1.402771 A    
C79   H53   1.108727 S    
C3    C19   1.389117 A    
C13   H13   1.069187 S    
C65   C70   1.396944 A    
H20   C52   1.081751 S    
C14   H14   1.071688 S    
C26   C73   1.392610 A    
C82   C85   1.558006 S    
C15   N15   1.317309 A    
C13   C19   1.386986 A    
C11   N11   1.313777 A    
N18   O4    1.300130 A    
C56   H42   1.083348 S    
H38   C64   1.079389 S    
C26   C78   1.395595 A    
C81   H51   1.110746 S    
C43   C48   1.376086 A    
C13   N13   1.330024 A    
N7    N11   1.386398 A    
C59   H43   1.083339 S    
C73   C77   1.421167 A    
C31   C41   1.393373 A    
C61   C63   1.397093 A    
C14   C20   1.381001 A    
H33   C85   1.109922 S    
C4    H4    1.080021 S    
C32   C34   1.396007 A    
C61   H45   1.078455 S    
C20   C67   1.466289 S    
C31   C33   1.394972 A    
C38   C40   1.406245 A    
N11   Ni1   1.871119 S    
C58   C69   1.476179 S    
C11   C23   1.372162 A    
N12   Ni2   1.871120 S    
C1    C17   1.398518 A    
C12   C24   1.383356 A    
C51   C71   1.400533 A    
C16   N16   1.333530 A    
