data_mof_unit_21551.cif
_audit_creation_date              2013-03-05T16:04:27-0500
_audit_creation_method            fapswitch 2.2
_symmetry_space_group_name_H-M    P1
_symmetry_Int_Tables_number       1
_space_group_crystal_system       triclinic
_cell_length_a                    14.928606
_cell_length_b                    14.133855
_cell_length_c                    27.489128
_cell_angle_alpha                 90.127603
_cell_angle_beta                  89.921671
_cell_angle_gamma                 90.165061
_cell_volume                      5800.12789446

loop_
_atom_site_label
_atom_site_type_symbol
_atom_site_description
_atom_site_fract_x
_atom_site_fract_y
_atom_site_fract_z
_atom_type_partial_charge
O1    O     O_R   0.367850 0.580280 0.500010 -0.584674
O2    O     O_R   0.632150 0.419720 0.499990 -0.599599
O3    O     O_R   0.632150 0.580280 0.499990 -0.583968
O4    O     O_R   0.367850 0.419720 0.500010 -0.601015
C1    C     C_R   0.327258 0.500139 0.500686 1.006676
C2    C     C_R   0.672722 0.500392 0.499652 1.010300
O5    O     O_R   0.500010 0.580260 0.428760 -0.587770
O6    O     O_R   0.499990 0.419740 0.571240 -0.589135
O7    O     O_R   0.499990 0.580260 0.571240 -0.587286
O8    O     O_R   0.500010 0.419740 0.428760 -0.584277
C3    C     C_R   0.500670 0.500106 0.405988 1.013809
C4    C     C_R   0.498530 0.500334 0.593958 1.017790
Zn1   Zn    Zn3+2 0.500000 0.607200 0.500000 1.068996
Zn2   Zn    Zn3+2 0.500000 0.392800 0.500000 1.056762
C5    C     C_R   0.429792 0.566020 0.180518 0.595956
C6    C     C_R   0.550824 0.579607 0.818919 0.594543
O9    O     O_2   0.360079 0.587315 0.209827 -0.481401
O10   O     O_2   0.620307 0.604598 0.790189 -0.480296
N1    N     N_R   0.508355 0.536876 0.200812 -0.334493
N2    N     N_R   0.473957 0.546604 0.798021 -0.331825
C7    C     C_R   0.583200 0.520158 0.173613 0.638235
C8    C     C_R   0.398673 0.528362 0.824626 0.636536
C9    C     C_R   0.563639 0.583350 0.281334 0.596354
C10   C     C_R   0.420142 0.583064 0.716015 0.578685
C11   C     C_R   0.559072 0.573354 0.331864 -0.395055
C12   C     C_R   0.429504 0.571361 0.665789 -0.393373
C13   C     C_R   0.456367 0.439041 0.324054 0.537199
C14   C     C_R   0.538056 0.444185 0.677294 0.534162
C15   C     C_R   0.459979 0.450868 0.273124 -0.325529
C16   C     C_R   0.530450 0.458563 0.727938 -0.329898
C17   C     C_R   0.511731 0.522984 0.252315 0.152832
C18   C     C_R   0.473646 0.528420 0.746804 0.155281
C19   C     C_R   0.499533 0.560249 0.101066 -0.157591
C20   C     C_R   0.479207 0.571486 0.897780 -0.159122
C21   C     C_R   0.422207 0.575310 0.129805 -0.163508
C22   C     C_R   0.557289 0.587477 0.869739 -0.165718
C23   C     C_R   0.340637 0.602151 0.107322 0.414820
C24   C     C_R   0.638756 0.612358 0.893073 0.418119
C25   C     C_R   0.581182 0.531935 0.122783 -0.193154
C26   C     C_R   0.397573 0.546041 0.875036 -0.192326
C27   C     C_R   0.506115 0.502415 0.353021 -0.198471
C28   C     C_R   0.488125 0.503473 0.646624 -0.198910
H1    H     H_    0.420789 0.407170 0.248785 0.157388
H2    H     H_    0.570550 0.418938 0.753454 0.155842
C29   C     C_R   0.404896 0.570314 0.977112 -0.028116
C30   C     C_R   0.573119 0.567409 0.021727 -0.025913
C31   C     C_R   0.567030 0.590879 0.971793 -0.064466
C32   C     C_R   0.411260 0.587650 0.027826 -0.065365
C33   C     C_R   0.483464 0.578503 0.948761 -0.014207
C34   C     C_R   0.494752 0.572156 0.050343 -0.015527
C35   C     C_R   0.324630 0.539273 0.954505 0.443839
C36   C     C_R   0.652490 0.531275 0.042738 0.455571
C37   C     C_R   0.319574 0.532734 0.903672 0.249603
C38   C     C_R   0.657115 0.515093 0.092951 0.242170
O11   O     O_2   0.326681 0.490255 0.802284 -0.524049
O12   O     O_2   0.658945 0.492845 0.196182 -0.502472
C39   C     C_R   0.337527 0.616245 0.056643 0.217327
C40   C     C_R   0.641433 0.621722 0.944069 0.221103
H3    H     H_    0.392667 0.616869 0.641340 0.228501
H4    H     H_    0.595209 0.622343 0.355018 0.221470
C41   C     C_R   0.813157 0.510057 0.455442 0.401357
C42   C     C_R   0.187115 0.509199 0.545503 0.421744
C43   C     C_R   0.768124 0.503031 0.499928 -0.309625
C44   C     C_R   0.231788 0.502082 0.500836 -0.317601
C45   C     C_R   0.812620 0.507075 0.544540 0.208679
C46   C     C_R   0.186928 0.505185 0.456381 0.210036
C47   C     C_R   0.905727 0.515883 0.544869 -0.028094
C48   C     C_R   0.094061 0.514612 0.456294 -0.042894
C49   C     C_R   0.953060 0.517283 0.500379 -0.063060
C50   C     C_R   0.046910 0.516876 0.500975 -0.072197
C51   C     C_R   0.906632 0.519470 0.455326 -0.095752
C52   C     C_R   0.093459 0.518206 0.546053 -0.078358
C53   C     C_R   0.951797 0.527186 0.588799 -0.261480
C54   C     C_R   0.047859 0.525398 0.412384 -0.229566
C55   C     C_R   0.045481 0.527991 0.590229 0.532976
C56   C     C_R   0.955183 0.531777 0.411679 0.510296
H5    H     H_    0.914867 0.537606 0.622198 0.202964
H6    H     H_    0.083039 0.530842 0.378041 0.217050
C57   C     C_R   0.565420 0.798617 0.475022 0.499875
C58   C     C_R   0.445916 0.201323 0.531820 0.504796
C59   C     C_R   0.434630 0.798498 0.524975 0.498710
C60   C     C_R   0.554538 0.201537 0.468333 0.503872
N3    N     N_R   0.500000 0.750030 0.500000 -0.184625
N4    N     N_R   0.500000 0.249970 0.500000 -0.178875
C61   C     C_R   0.437422 0.899082 0.528142 -0.088001
C62   C     C_R   0.559629 0.100923 0.469911 -0.088910
C63   C     C_R   0.562735 0.899180 0.471847 -0.085989
C64   C     C_R   0.440710 0.100757 0.530121 -0.087788
C65   C     C_R   0.500056 0.949487 0.499965 0.020991
C66   C     C_R   0.500080 0.050459 0.499962 0.015484
C67   C     C_R   0.378376 0.950394 0.558148 -0.160884
C68   C     C_R   0.621713 0.049637 0.441779 -0.164219
C69   C     C_R   0.622041 0.950597 0.441986 -0.163032
C70   C     C_R   0.378833 0.049403 0.558407 -0.165004
H7    H     H_    0.331524 0.914383 0.581857 0.177752
H8    H     H_    0.671282 0.085588 0.419769 0.172210
H9    H     H_    0.669087 0.914645 0.418399 0.172349
H10   H     H_    0.329681 0.085335 0.580674 0.173612
O13   O     O_3   0.400033 0.374654 0.347666 -0.564948
C71   C     C_3   0.369503 0.300211 0.317639 -0.238955
H11   H     H_    0.425674 0.265744 0.297753 0.123663
H12   H     H_    0.316787 0.325614 0.292376 0.198145
H13   H     H_    0.338268 0.245473 0.341077 0.195962
O14   O     O_3   0.598980 0.382018 0.655753 -0.560458
C72   C     C_3   0.625442 0.307379 0.686510 -0.246665
H14   H     H_    0.567009 0.273167 0.704612 0.122924
H15   H     H_    0.675614 0.332546 0.713440 0.191451
H16   H     H_    0.658567 0.252465 0.663961 0.197149
N5    N     N_R   0.763030 0.500081 0.589244 0.205931
O15   O     O_R   0.777453 0.429967 0.618770 -0.369163
O16   O     O_R   0.706287 0.565712 0.601384 -0.394048
N6    N     N_R   0.236046 0.497862 0.411541 0.206107
O17   O     O_R   0.221854 0.426799 0.382375 -0.359028
O18   O     O_R   0.292050 0.564091 0.398915 -0.397666
O19   O     O_3   0.091176 0.547201 0.633319 -0.573990
C73   C     C_3   0.057375 0.493834 0.672761 -0.280441
H17   H     H_    0.036406 0.421041 0.661914 0.152550
H18   H     H_    0.001228 0.531889 0.690607 0.190532
H19   H     H_    0.111258 0.486220 0.700186 0.202316
O20   O     O_3   0.913151 0.545816 0.367524 -0.571564
C74   C     C_3   0.909670 0.643958 0.358651 -0.227151
H20   H     H_    0.977938 0.675711 0.356896 0.150979
H21   H     H_    0.868440 0.680768 0.386623 0.158010
H22   H     H_    0.877606 0.655556 0.322829 0.183493
O21   O     O_3   0.632474 0.748477 0.451802 -0.582366
C75   C     C_3   0.712540 0.757555 0.479036 -0.251869
H23   H     H_    0.762569 0.707403 0.464165 0.189761
H24   H     H_    0.702402 0.740173 0.518181 0.186448
H25   H     H_    0.742244 0.829284 0.476101 0.133171
O22   O     O_3   0.396073 0.251505 0.565336 -0.611583
C76   C     C_3   0.436464 0.242667 0.611631 -0.285760
H26   H     H_    0.411814 0.300534 0.635356 0.177527
H27   H     H_    0.510801 0.248246 0.609948 0.202439
H28   H     H_    0.417631 0.175256 0.629482 0.150540
O23   O     O_3   0.367590 0.748240 0.548259 -0.581032
C77   C     C_3   0.287362 0.756921 0.521186 -0.235235
H29   H     H_    0.237209 0.706891 0.536214 0.202064
H30   H     H_    0.297159 0.739119 0.482034 0.179551
H31   H     H_    0.257977 0.828643 0.524107 0.133606
O24   O     O_3   0.605233 0.252077 0.435288 -0.609641
C78   C     C_3   0.566530 0.242525 0.388572 -0.276328
H32   H     H_    0.588816 0.302687 0.365740 0.178807
H33   H     H_    0.492000 0.243285 0.389570 0.198446
H34   H     H_    0.589412 0.177156 0.370110 0.149718
O25   O     O_3   0.264621 0.618562 0.134845 -0.518240
C79   C     C_3   0.215481 0.533137 0.137702 -0.085302
H35   H     H_    0.194135 0.507943 0.101113 0.154291
H36   H     H_    0.154092 0.545921 0.159490 0.211337
H37   H     H_    0.254414 0.476697 0.156229 0.123942
O26   O     O_3   0.715403 0.629947 0.866219 -0.516897
C80   C     C_3   0.763347 0.544286 0.861652 -0.092128
H38   H     H_    0.723886 0.489684 0.841736 0.119846
H39   H     H_    0.783806 0.516115 0.897725 0.158390
H40   H     H_    0.825223 0.558061 0.840406 0.208439
O27   O     O_3   0.367403 0.654059 0.736023 -0.596846
C81   C     C_3   0.279861 0.651202 0.716611 -0.122732
H41   H     H_    0.254137 0.577566 0.712305 0.174799
H42   H     H_    0.277063 0.689562 0.681434 0.169103
H43   H     H_    0.234247 0.688127 0.742209 0.209165
O28   O     O_3   0.610014 0.657146 0.259309 -0.586937
C82   C     C_3   0.698321 0.663880 0.277377 -0.200217
H44   H     H_    0.729854 0.593236 0.282676 0.189030
H45   H     H_    0.699778 0.705439 0.311704 0.154224
H46   H     H_    0.739710 0.702618 0.250396 0.205397
N7    N     N_R   0.233677 0.516491 0.881743 0.282083
O29   O     O_R   0.197103 0.582429 0.855522 -0.307585
O30   O     O_R   0.187969 0.440554 0.891895 -0.335525
N8    N     N_R   0.738785 0.477681 0.112323 0.267495
O31   O     O_R   0.741875 0.389693 0.126035 -0.347546
O32   O     O_R   0.813156 0.524859 0.107251 -0.274218
O33   O     O_3   0.250319 0.513076 0.981554 -0.542869
C83   C     C_3   0.263360 0.420433 0.999255 -0.235070
H47   H     H_    0.277102 0.369415 0.969256 0.181966
H48   H     H_    0.201069 0.397086 0.017759 0.212501
H49   H     H_    0.318273 0.418000 0.026491 0.113356
O34   O     O_3   0.724960 0.505529 0.014168 -0.547190
C84   C     C_3   0.709855 0.413625 0.995721 -0.263996
H50   H     H_    0.650188 0.411301 0.971507 0.120549
H51   H     H_    0.702456 0.361086 0.025586 0.194531
H52   H     H_    0.768776 0.392609 0.973600 0.209409
N9    N     N_R   0.265526 0.670285 0.035380 0.273867
O35   O     O_R   0.282144 0.728123 0.999681 -0.329557
O36   O     O_R   0.184933 0.667881 0.053403 -0.271712
N10   N     N_R   0.714273 0.672183 0.967186 0.272988
O37   O     O_R   0.698608 0.725137 0.005042 -0.331416
O38   O     O_R   0.794650 0.671968 0.948847 -0.270478
O39   O     O_3   0.764251 0.512882 0.412655 -0.593525
C85   C     C_3   0.756985 0.420152 0.394006 -0.209546
H53   H     H_    0.725624 0.371633 0.420724 0.199914
H54   H     H_    0.823350 0.391699 0.382996 0.193409
H55   H     H_    0.713902 0.421835 0.361183 0.175222
O40   O     O_3   0.236502 0.512193 0.588132 -0.580802
C86   C     C_3   0.245668 0.419178 0.605845 -0.257933
H56   H     H_    0.282796 0.374343 0.579737 0.215345
H57   H     H_    0.179655 0.385911 0.613675 0.168168
H58   H     H_    0.284135 0.421637 0.640317 0.175943

loop_
_geom_bond_atom_site_label_1
_geom_bond_atom_site_label_2
_geom_bond_distance
_ccdc_geom_bond_type
C46   C48   1.393143 A    
O33   C83   1.412005 S    
C43   C45   1.396453 A    
N7    O29   1.301235 A    
C13   C15   1.411276 A    
Zn2   N4    2.018740 S    
C58   N4    1.373785 A    
C76   H28   1.108051 S    
N1    C17   1.430729 S    
C39   N9    1.445269 S    
O25   C79   1.413260 S    
C61   C67   1.407959 A    
O23   C77   1.416712 S    
C31   C33   1.410028 A    
N9    O35   1.301773 A    
O20   C74   1.410060 S    
O5    C3    1.293157 A    
C72   H15   1.111015 S    
C13   O13   1.397657 S    
C56   O20   1.382100 S    
C54   C56   1.386885 A    
C85   H55   1.109092 S    
O1    C1    1.283237 A    
C40   N10   1.445793 S    
C81   H41   1.114427 S    
C21   C23   1.419339 A    
C10   C12   1.397034 A    
C79   H35   1.112925 S    
C86   H57   1.111656 S    
C26   C37   1.416958 A    
N5    O16   1.300700 A    
C51   C56   1.411733 A    
C38   N8    1.434029 S    
C25   C38   1.418545 A    
C31   C40   1.414535 A    
C29   C35   1.418541 A    
C48   C54   1.399882 A    
O19   C73   1.413887 S    
C30   C36   1.416006 A    
C68   H8    1.081587 S    
C58   C64   1.423960 A    
N10   O37   1.301783 A    
C85   H54   1.111676 S    
C80   H40   1.109168 S    
C5    C21   1.405253 A    
C49   C51   1.420482 A    
O7    Zn1   1.995831 S    
O14   C72   1.411053 S    
C74   H22   1.108216 S    
C60   O24   1.380597 S    
C59   N3    1.375825 A    
C24   C40   1.408387 A    
C81   H42   1.110552 S    
C83   H48   1.109087 S    
C13   C27   1.408009 A    
C84   H51   1.113366 S    
C42   C44   1.400045 A    
C80   H38   1.112973 S    
C47   C53   1.399150 A    
C11   H4    1.082769 S    
C12   H3    1.082955 S    
C36   O34   1.385049 S    
O3    Zn1   2.010246 S    
C10   O27   1.389302 S    
C6    N2    1.364528 A    
C84   H52   1.109472 S    
N8    O32   1.300936 A    
C57   O21   1.382756 S    
N7    O30   1.300774 A    
C57   C63   1.424897 A    
C15   H1    1.080995 S    
C53   C55   1.399189 A    
C16   H2    1.081125 S    
O2    C2    1.289597 A    
C52   C55   1.415734 A    
N6    O18   1.300717 A    
N6    O17   1.300830 A    
C82   H45   1.110594 S    
C36   C38   1.401473 A    
C59   O23   1.382772 S    
C79   H36   1.109158 S    
N9    O36   1.300912 A    
C72   H16   1.109231 S    
C64   C70   1.407628 A    
C58   O22   1.379790 S    
C4    C28   1.456443 S    
C32   C39   1.414649 A    
O24   C78   1.414943 S    
C77   H30   1.114263 S    
O8    Zn2   1.995834 S    
C78   H34   1.107753 S    
C11   C27   1.401904 A    
C61   C65   1.406559 A    
O4    C1    1.289701 A    
C42   O40   1.385836 S    
O6    Zn2   1.994166 S    
C75   H25   1.108436 S    
C45   C47   1.395207 A    
C19   C34   1.406750 A    
C60   C62   1.425069 A    
C71   H13   1.109232 S    
C1    C44   1.425566 S    
C85   H53   1.108317 S    
C35   C37   1.402322 A    
C78   H33   1.112999 S    
C77   H31   1.108413 S    
C2    C43   1.424624 S    
C5    N1    1.364568 A    
C10   C18   1.399680 A    
C23   O25   1.382881 S    
C79   H37   1.113024 S    
C14   O14   1.396672 S    
O13   C71   1.410844 S    
C7    C25   1.407875 A    
C29   C33   1.411947 A    
O6    C4    1.298068 A    
C86   H58   1.109138 S    
C8    C26   1.407614 A    
C9    O28   1.389701 S    
C41   C43   1.398292 A    
C42   C52   1.404369 A    
C19   C25   1.417085 A    
C32   C34   1.410289 A    
C45   N5    1.437216 S    
C74   H20   1.113439 S    
C73   H18   1.110329 S    
C37   N7    1.435352 S    
N8    O31   1.301247 A    
C64   C66   1.406135 A    
C84   H50   1.113062 S    
C60   N4    1.374007 A    
O8    C3    1.298173 A    
C63   C65   1.406397 A    
C62   C66   1.406553 A    
O21   C75   1.416598 S    
C20   C26   1.415616 A    
O1    Zn1   2.008096 S    
C76   H26   1.108328 S    
C69   H9    1.082226 S    
C82   H46   1.109170 S    
C83   H47   1.113468 S    
C12   C28   1.401935 A    
C71   H12   1.111196 S    
N2    C18   1.430641 S    
C29   C32   1.418185 A    
C5    O9    1.349539 S    
C30   C34   1.410574 A    
C30   C31   1.415973 A    
O34   C84   1.411025 S    
C20   C33   1.406223 A    
C75   H24   1.114300 S    
C14   C28   1.406083 A    
N1    C7    1.364463 A    
C81   H43   1.109186 S    
N2    C8    1.364320 A    
C77   H29   1.108439 S    
C76   H27   1.113221 S    
C7    O12   1.348356 S    
C50   C52   1.421579 A    
C83   H49   1.111635 S    
C8    O11   1.348833 S    
C72   H14   1.113477 S    
Zn1   N3    2.018739 S    
C73   H19   1.108838 S    
C46   N6    1.437057 S    
O40   C86   1.410024 S    
C14   C16   1.410924 A    
O22   C76   1.414901 S    
O39   C85   1.410202 S    
C15   C17   1.399949 A    
C62   C68   1.407805 A    
C78   H32   1.108070 S    
C6    C22   1.404584 A    
C22   C24   1.418768 A    
C16   C18   1.401532 A    
C41   C51   1.401400 A    
C82   H44   1.115036 S    
C75   H23   1.108279 S    
C63   C69   1.408105 A    
C35   O33   1.384647 S    
C68   C69   1.399863 A    
C19   C21   1.414289 A    
N10   O38   1.300878 A    
C73   H17   1.114657 S    
C3    C27   1.458625 S    
C20   C22   1.414506 A    
C80   H39   1.112857 S    
O4    Zn2   2.010248 S    
C49   C50   1.401204 A    
O2    Zn2   2.008094 S    
O28   C82   1.412272 S    
C23   C39   1.408577 A    
C74   H21   1.113330 S    
O7    C4    1.292111 A    
C67   H7    1.082225 S    
C9    C17   1.399881 A    
C57   N3    1.375949 A    
C41   O39   1.385914 S    
O5    Zn1   1.994169 S    
C9    C11   1.398042 A    
C55   O19   1.393474 S    
C53   H5    1.080310 S    
C6    O10   1.349563 S    
C86   H56   1.105792 S    
C54   H6    1.082451 S    
O3    C2    1.282868 A    
O27   C81   1.412738 S    
C48   C50   1.415158 A    
C70   H10   1.081901 S    
O26   C80   1.413488 S    
C71   H11   1.113206 S    
C47   C49   1.411757 A    
C65   C66   1.427127 A    
N5    O15   1.300947 A    
C24   O26   1.383067 S    
C59   C61   1.424600 A    
C44   C46   1.395128 A    
C67   C70   1.399375 A    
