data_mof_unit_31973.cif
_audit_creation_date              2013-03-05T15:53:04-0500
_audit_creation_method            fapswitch 2.2
_symmetry_space_group_name_H-M    P1
_symmetry_Int_Tables_number       1
_space_group_crystal_system       triclinic
_cell_length_a                    19.750877
_cell_length_b                    17.0092
_cell_length_c                    15.3926
_cell_angle_alpha                 89.999903
_cell_angle_beta                  52.720398
_cell_angle_gamma                 89.999973
_cell_volume                      4114.58181887

loop_
_atom_site_label
_atom_site_type_symbol
_atom_site_description
_atom_site_fract_x
_atom_site_fract_y
_atom_site_fract_z
_atom_type_partial_charge
C1    C     C_R   0.839087 0.672432 0.047416 -0.059407
C2    C     C_R   0.160912 0.672433 0.952584 -0.059448
C3    C     C_R   0.339087 0.172432 0.047416 -0.059419
C4    C     C_R   0.660912 0.172433 0.952585 -0.059444
H1    H     H_    0.828225 0.722722 0.096231 0.158791
H2    H     H_    0.171775 0.722723 0.903769 0.158796
H3    H     H_    0.328225 0.222722 0.096231 0.158794
H4    H     H_    0.671774 0.222724 0.903771 0.158797
N1    N     N_R   0.908660 0.628630 0.995840 -0.053094
N2    N     N_R   0.091340 0.628630 0.004160 -0.053095
N3    N     N_R   0.408660 0.128630 0.995840 -0.053094
N4    N     N_R   0.591340 0.128630 0.004160 -0.053095
C5    C     C_R   0.849467 0.330110 0.217177 -0.125001
C6    C     C_R   0.150533 0.330110 0.782824 -0.124999
C7    C     C_R   0.349467 0.830109 0.217177 -0.125000
C8    C     C_R   0.650533 0.830110 0.782824 -0.125000
H5    H     H_    0.827071 0.285318 0.191017 0.122471
H6    H     H_    0.172929 0.285318 0.808984 0.122472
H7    H     H_    0.327071 0.785318 0.191017 0.122471
H8    H     H_    0.672929 0.785318 0.808984 0.122472
N5    N     N_R   0.922310 0.368460 0.151950 -0.047136
N6    N     N_R   0.077690 0.368460 0.848050 -0.047136
N7    N     N_R   0.422310 0.868460 0.151950 -0.047136
N8    N     N_R   0.577690 0.868460 0.848050 -0.047136
C9    C     C_R   0.866845 0.387910 0.895315 -0.119496
C10   C     C_R   0.133155 0.387910 0.104685 -0.119498
C11   C     C_R   0.366845 0.887910 0.895315 -0.119498
C12   C     C_R   0.633155 0.887910 0.104685 -0.119497
H9    H     H_    0.862771 0.414408 0.834734 0.133948
H10   H     H_    0.137230 0.414408 0.165265 0.133946
H11   H     H_    0.362770 0.914408 0.834734 0.133947
H12   H     H_    0.637230 0.914408 0.165265 0.133946
N9    N     N_R   0.903470 0.421430 0.936420 -0.049475
N10   N     N_R   0.096530 0.421430 0.063580 -0.049475
N11   N     N_R   0.403470 0.921430 0.936420 -0.049475
N12   N     N_R   0.596530 0.921430 0.063580 -0.049475
C13   C     C_R   0.908726 0.606952 0.302320 -0.092901
C14   C     C_R   0.091271 0.606954 0.697682 -0.092872
C15   C     C_R   0.408727 0.106952 0.302320 -0.092900
C16   C     C_R   0.591272 0.106953 0.697681 -0.092878
H13   H     H_    0.923902 0.578698 0.351289 0.150466
H14   H     H_    0.076094 0.578700 0.648715 0.150483
H15   H     H_    0.423902 0.078698 0.351289 0.150467
H16   H     H_    0.576095 0.078700 0.648714 0.150480
N13   N     N_R   0.927500 0.575670 0.211370 -0.078096
N14   N     N_R   0.072500 0.575670 0.788630 -0.078101
N15   N     N_R   0.427500 0.075670 0.211370 -0.078097
N16   N     N_R   0.572500 0.075670 0.788630 -0.078100
C17   C     C_R   0.877819 0.298130 0.990585 -0.132916
C18   C     C_R   0.122181 0.298130 0.009415 -0.132915
C19   C     C_R   0.377819 0.798130 0.990586 -0.132916
C20   C     C_R   0.622181 0.798130 0.009415 -0.132914
H17   H     H_    0.886887 0.242529 0.016168 0.098267
H18   H     H_    0.113114 0.242529 0.983832 0.098266
H19   H     H_    0.386887 0.742529 0.016168 0.098267
H20   H     H_    0.613114 0.742529 0.983832 0.098266
N17   N     N_R   0.908660 0.365680 0.995820 -0.049093
N18   N     N_R   0.091340 0.365680 0.004180 -0.049093
N19   N     N_R   0.408660 0.865680 0.995820 -0.049092
N20   N     N_R   0.591340 0.865680 0.004180 -0.049093
C21   C     C_R   0.897796 0.698724 0.210084 0.298501
C22   C     C_R   0.102198 0.698726 0.789920 0.298492
C23   C     C_R   0.397797 0.198724 0.210084 0.298509
C24   C     C_R   0.602200 0.198726 0.789918 0.298496
N21   N     N_R   0.922310 0.631420 0.151980 -0.100767
N22   N     N_R   0.077690 0.631420 0.848020 -0.100766
N23   N     N_R   0.422310 0.131420 0.151980 -0.100767
N24   N     N_R   0.577690 0.131420 0.848020 -0.100765
C25   C     C_R   0.857809 0.420958 0.315661 -0.080833
C26   C     C_R   0.142192 0.420959 0.684339 -0.080831
C27   C     C_R   0.357809 0.920958 0.315661 -0.080835
C28   C     C_R   0.642192 0.920959 0.684339 -0.080831
H21   H     H_    0.843972 0.457765 0.381715 0.173710
H22   H     H_    0.156029 0.457765 0.618285 0.173726
H23   H     H_    0.343972 0.957765 0.381714 0.173710
H24   H     H_    0.656029 0.957765 0.618285 0.173724
N25   N     N_R   0.927500 0.426330 0.211360 -0.049237
N26   N     N_R   0.072500 0.426330 0.788640 -0.049237
N27   N     N_R   0.427500 0.926330 0.211360 -0.049237
N28   N     N_R   0.572500 0.926330 0.788640 -0.049237
C29   C     C_R   0.829927 0.580205 0.950810 -0.115498
C30   C     C_R   0.170072 0.580205 0.049191 -0.115490
C31   C     C_R   0.329927 0.080205 0.950809 -0.115499
C32   C     C_R   0.670072 0.080205 0.049191 -0.115490
H25   H     H_    0.809412 0.546062 0.911360 0.127057
H26   H     H_    0.190588 0.546062 0.088641 0.127054
H27   H     H_    0.309412 0.046062 0.911360 0.127057
H28   H     H_    0.690587 0.046062 0.088641 0.127055
N29   N     N_R   0.903470 0.570760 0.936440 -0.055850
N30   N     N_R   0.096530 0.570760 0.063560 -0.055848
N31   N     N_R   0.403470 0.070760 0.936440 -0.055849
N32   N     N_R   0.596530 0.070760 0.063560 -0.055848
C33   C     C_R   0.787931 0.643309 0.021640 0.107577
C34   C     C_R   0.212068 0.643310 0.978361 0.107583
C35   C     C_R   0.287932 0.143309 0.021640 0.107579
C36   C     C_R   0.712068 0.143310 0.978361 0.107582
C37   C     C_R   0.807598 0.360661 0.320810 0.060171
C38   C     C_R   0.192402 0.360662 0.679191 0.060160
C39   C     C_R   0.307598 0.860661 0.320810 0.060171
C40   C     C_R   0.692402 0.860662 0.679191 0.060162
C41   C     C_R   0.850147 0.310276 0.928762 0.150377
C42   C     C_R   0.149853 0.310276 0.071237 0.150378
C43   C     C_R   0.350147 0.810276 0.928762 0.150378
C44   C     C_R   0.649853 0.810276 0.071238 0.150378
C45   C     C_R   0.889064 0.684762 0.305811 -0.024666
C46   C     C_R   0.110930 0.684764 0.694192 -0.024686
C47   C     C_R   0.389065 0.184762 0.305811 -0.024671
C48   C     C_R   0.610932 0.184764 0.694191 -0.024684
Ni1   Ni    Ni4+2 1.000000 0.630300 0.000000 0.319622
Ni2   Ni    Ni4+2 0.500000 0.130300 0.000000 0.319622
Ni3   Ni    Ni4+2 1.000000 0.369700 0.000000 0.215931
Ni4   Ni    Ni4+2 0.500000 0.869700 0.000000 0.215931
Ni5   Ni    Ni4+2 0.988090 0.497570 0.863760 0.241118
Ni6   Ni    Ni4+2 0.011910 0.497570 0.136240 0.241115
Ni7   Ni    Ni4+2 0.488090 0.997570 0.863760 0.241117
Ni8   Ni    Ni4+2 0.511910 0.997570 0.136240 0.241115
C49   C     C_R   0.845323 0.707488 0.492360 -0.049378
C50   C     C_R   0.154660 0.707496 0.507648 -0.049402
C51   C     C_R   0.345325 0.207488 0.492359 -0.049380
C52   C     C_R   0.654662 0.207495 0.507646 -0.049399
C53   C     C_R   0.871082 0.738599 0.392067 0.053027
C54   C     C_R   0.128910 0.738604 0.607939 0.053027
C55   C     C_R   0.371083 0.238600 0.392066 0.053031
C56   C     C_R   0.628911 0.238603 0.607938 0.053024
C57   C     C_R   0.366425 0.320909 0.385270 -0.088961
C58   C     C_R   0.633577 0.320912 0.614732 -0.088967
C59   C     C_R   0.866426 0.820909 0.385271 -0.088958
C60   C     C_R   0.133578 0.820913 0.614732 -0.088971
H29   H     H_    0.395028 0.350535 0.308714 0.203928
H30   H     H_    0.604980 0.350538 0.691287 0.203937
H31   H     H_    0.895031 0.850535 0.308714 0.203925
H32   H     H_    0.104983 0.850539 0.691287 0.203941
C61   C     C_R   0.314891 0.365449 0.481021 -0.167971
C62   C     C_R   0.685112 0.365451 0.518981 -0.167956
C63   C     C_R   0.814892 0.865449 0.481021 -0.167965
C64   C     C_R   0.185113 0.865452 0.518981 -0.167962
H33   H     H_    0.302884 0.426548 0.474902 0.190945
H34   H     H_    0.697124 0.426548 0.525099 0.190962
H35   H     H_    0.802886 0.926548 0.474902 0.190946
H36   H     H_    0.197126 0.926548 0.525099 0.190962
C65   C     C_R   0.270634 0.327848 0.582861 0.088271
C66   C     C_R   0.729364 0.327850 0.417141 0.088260
C67   C     C_R   0.770634 0.827848 0.582861 0.088269
C68   C     C_R   0.229363 0.827851 0.417141 0.088261
C69   C     C_R   0.795409 0.751542 0.586442 0.055380
C70   C     C_R   0.204577 0.751549 0.413564 0.055401
C71   C     C_R   0.295410 0.251542 0.586442 0.055381
C72   C     C_R   0.704579 0.251548 0.413563 0.055397
C73   C     C_3   0.743640 0.682003 0.654926 -0.663431
C74   C     C_3   0.256332 0.682007 0.345077 -0.663449
C75   C     C_3   0.243642 0.182003 0.654926 -0.663431
C76   C     C_3   0.756336 0.182006 0.345076 -0.663445
C77   C     C_3   0.798342 0.633276 0.552656 0.930995
C78   C     C_3   0.201626 0.633281 0.447348 0.930991
C79   C     C_3   0.298345 0.133277 0.552656 0.930995
C80   C     C_3   0.701630 0.133280 0.447347 0.930994
H37   H     H_    0.752355 0.668361 0.718263 0.196677
H38   H     H_    0.247610 0.668375 0.281743 0.196683
H39   H     H_    0.252358 0.168362 0.718263 0.196677
H40   H     H_    0.747615 0.168373 0.281742 0.196682
H41   H     H_    0.676217 0.685106 0.685593 0.229194
H42   H     H_    0.323757 0.685098 0.314405 0.229192
H43   H     H_    0.176220 0.185106 0.685593 0.229194
H44   H     H_    0.823760 0.185099 0.314404 0.229193
C81   C     C_2   0.786302 0.182705 0.955569 -0.171415
C82   C     C_2   0.213697 0.182705 0.044433 -0.171418
C83   C     C_2   0.286303 0.682705 0.955569 -0.171416
C84   C     C_2   0.713697 0.682705 0.044433 -0.171419
H45   H     H_    0.808398 0.162049 0.001042 0.137506
H46   H     H_    0.191599 0.162048 0.998962 0.137507
H47   H     H_    0.308399 0.662049 0.001041 0.137506
H48   H     H_    0.691599 0.662048 0.998962 0.137508
C85   C     C_2   0.311775 0.751745 0.902595 -0.160799
C86   C     C_2   0.688226 0.751745 0.097404 -0.160796
C87   C     C_2   0.811775 0.251745 0.902595 -0.160799
C88   C     C_2   0.188226 0.251745 0.097404 -0.160798
H49   H     H_    0.291591 0.771551 0.854647 0.157966
H50   H     H_    0.708410 0.771552 0.145351 0.157972
H51   H     H_    0.791592 0.271551 0.854646 0.157968
H52   H     H_    0.208410 0.271552 0.145351 0.157972
N33   N     N_R   0.850712 0.575983 0.558811 0.208768
O1    O     O_R   0.903887 0.598758 0.577266 -0.384816
O2    O     O_R   0.840517 0.501176 0.552646 -0.369744
N34   N     N_R   0.149239 0.576002 0.441201 0.208781
O3    O     O_R   0.096082 0.598792 0.422722 -0.384836
O4    O     O_R   0.159390 0.501192 0.447422 -0.369735
N35   N     N_R   0.350716 0.075984 0.558810 0.208768
O5    O     O_R   0.403890 0.098761 0.577266 -0.384818
O6    O     O_R   0.340522 0.001178 0.552643 -0.369747
N36   N     N_R   0.649246 0.075999 0.441199 0.208778
O7    O     O_R   0.596085 0.098788 0.422726 -0.384835
O8    O     O_R   0.659404 0.001190 0.447409 -0.369731
F1    F     F_    0.752190 0.600427 0.520793 -0.707983
F2    F     F_    0.247778 0.600415 0.479201 -0.707991
F3    F     F_    0.252192 0.100426 0.520793 -0.707983
F4    F     F_    0.747783 0.100417 0.479201 -0.707989
N37   N     N_R   0.914654 0.774027 0.160075 0.217887
O9    O     O_R   0.852106 0.821650 0.191404 -0.402823
O10   O     O_R   0.992495 0.799778 0.096571 -0.359986
N38   N     N_R   0.085321 0.774026 0.839940 0.217906
O11   O     O_R   0.147856 0.821653 0.808649 -0.402817
O12   O     O_R   0.007477 0.799772 0.903413 -0.360009
N39   N     N_R   0.414656 0.274026 0.160074 0.217891
O13   O     O_R   0.352110 0.321648 0.191396 -0.402829
O14   O     O_R   0.492496 0.299779 0.096579 -0.359991
N40   N     N_R   0.585329 0.274026 0.839935 0.217899
O15   O     O_R   0.647867 0.321651 0.808634 -0.402818
O16   O     O_R   0.507486 0.299772 0.903420 -0.360003

loop_
_geom_bond_atom_site_label_1
_geom_bond_atom_site_label_2
_geom_bond_distance
_ccdc_geom_bond_type
C31   H27   1.080861 S    
N39   O13   1.301202 A    
C76   H40   1.112316 S    
C7    H7    1.074260 S    
C61   H33   1.082674 S    
N36   O7    1.302013 A    
C30   C34   1.390416 A    
C13   N13   1.323502 A    
C26   N26   1.342931 A    
C54   C60   1.411071 A    
C6    H6    1.074260 S    
C25   N25   1.342928 A    
N8    Ni4   1.864883 S    
C3    N3    1.323643 A    
C47   C55   1.468416 S    
C4    H4    1.071001 S    
C9    C41   1.382683 A    
N4    Ni2   1.843752 S    
C80   N36   1.465361 S    
N17   Ni3   1.844997 S    
N33   O1    1.302005 A    
C84   C86   1.341653 D    
N7    Ni4   1.864882 S    
N39   O14   1.300175 A    
C18   H18   1.080268 S    
C23   N39   1.425983 S    
C1    H1    1.070997 S    
C24   N24   1.349189 A    
N11   N19   1.363536 A    
C80   F4    1.387539 S    
C59   C63   1.401742 A    
N14   N22   1.363426 A    
C56   C58   1.411070 A    
C3    H3    1.070995 S    
C60   C64   1.401740 A    
C32   C36   1.390415 A    
N40   O16   1.300178 A    
C55   C57   1.411068 A    
C58   H30   1.074824 S    
C42   C88   1.448309 S    
C73   H37   1.112313 S    
C43   C85   1.448307 S    
C17   N17   1.325564 A    
N34   O3    1.302017 A    
N2    Ni1   1.843752 S    
C49   C69   1.378799 A    
C50   C54   1.403802 A    
N37   O10   1.300192 A    
C49   C53   1.403796 A    
N22   Ni1   1.865210 S    
C73   C77   1.507304 S    
C20   N20   1.325566 A    
C4    C36   1.381768 A    
C20   H20   1.080268 S    
N13   Ni6   1.883068 S    
C10   N10   1.342802 A    
C2    N2    1.323644 A    
C88   H52   1.083299 S    
C76   C80   1.507308 S    
C33   C84   1.448682 S    
N31   Ni7   1.824723 S    
N38   O11   1.301201 A    
C78   N34   1.465364 S    
C26   H22   1.078787 S    
N9    N17   1.363536 A    
N28   Ni7   1.802636 S    
N11   Ni7   1.859298 S    
C75   C79   1.507303 S    
C4    N4    1.323644 A    
C21   C45   1.396231 A    
C86   H50   1.083300 S    
C64   H36   1.082674 S    
C83   C85   1.341655 D    
C29   N29   1.339915 A    
C7    N7    1.324221 A    
C8    N8    1.324216 A    
C70   C74   1.499991 S    
N27   Ni8   1.802636 S    
N3    Ni2   1.843754 S    
C13   H13   1.078248 S    
C2    H2    1.071001 S    
C26   C38   1.395139 A    
C48   C56   1.468428 S    
C60   H32   1.074823 S    
N15   N23   1.363424 A    
N5    Ni3   1.864882 S    
N8    N28   1.388963 A    
C29   H25   1.080862 S    
C6    C38   1.378577 A    
C23   N23   1.349188 A    
N33   O2    1.300656 A    
C81   H45   1.083449 S    
N15   Ni8   1.883068 S    
C74   H42   1.112395 S    
N29   Ni5   1.824723 S    
C27   H23   1.078783 S    
C14   N14   1.323503 A    
C22   N22   1.349190 A    
C11   H11   1.081706 S    
N18   Ni3   1.844993 S    
C18   N18   1.325566 A    
C66   C72   1.399896 A    
C39   C68   1.456765 S    
C12   H12   1.081706 S    
C1    N1    1.323643 A    
N6    N26   1.388963 A    
C68   C70   1.399897 A    
C21   N37   1.425996 S    
N40   O15   1.301200 A    
C8    C40   1.378578 A    
C50   C70   1.378803 A    
C44   C86   1.448308 S    
C11   N11   1.342801 A    
C30   H26   1.080863 S    
C27   C39   1.395140 A    
C27   N27   1.342929 A    
C28   N28   1.342932 A    
N1    Ni1   1.843754 S    
C75   H39   1.112316 S    
C14   C46   1.371142 A    
C15   C47   1.371137 A    
C13   C45   1.371138 A    
N20   Ni4   1.844993 S    
C57   H29   1.074828 S    
C62   C66   1.403751 A    
C29   C33   1.390417 A    
C12   C44   1.382682 A    
N23   Ni2   1.865210 S    
C52   C80   1.507475 S    
C2    C34   1.381770 A    
C8    H8    1.074260 S    
N10   Ni6   1.859299 S    
C31   C35   1.390418 A    
C46   C54   1.468430 S    
N19   Ni4   1.844997 S    
C45   C53   1.468417 S    
C28   H24   1.078784 S    
N24   Ni2   1.865210 S    
N16   N24   1.363426 A    
C25   H21   1.078783 S    
N32   Ni8   1.824720 S    
C12   N12   1.342802 A    
C76   H44   1.112395 S    
N16   Ni7   1.883064 S    
N38   O12   1.300183 A    
C77   N33   1.465356 S    
C52   C72   1.378803 A    
C75   H43   1.112394 S    
C38   C65   1.456759 S    
N13   N21   1.363424 A    
C51   C79   1.507474 S    
C41   C87   1.448308 S    
N26   Ni5   1.802636 S    
C19   N19   1.325564 A    
C23   C47   1.396232 A    
N25   Ni6   1.802636 S    
N12   Ni8   1.859299 S    
C35   C82   1.448681 S    
C15   N15   1.323501 A    
C17   C41   1.370045 A    
C28   C40   1.395140 A    
C84   H48   1.083446 S    
C57   C61   1.401742 A    
C67   C69   1.399894 A    
C16   N16   1.323502 A    
C20   C44   1.370046 A    
N36   O8    1.300670 A    
C74   H38   1.112317 S    
N14   Ni5   1.883064 S    
N9    Ni5   1.859298 S    
N4    N32   1.388854 A    
C72   C76   1.499990 S    
C7    C39   1.378582 A    
N12   N20   1.363538 A    
C40   C67   1.456760 S    
C34   C83   1.448680 S    
C62   H34   1.082673 S    
C15   H15   1.078248 S    
N1    N29   1.388855 A    
C53   C59   1.411067 A    
C18   C42   1.370045 A    
C22   C46   1.396237 A    
C51   C55   1.403796 A    
C81   C87   1.341655 D    
C31   N31   1.339916 A    
C87   H51   1.083301 S    
C82   C88   1.341653 D    
C30   N30   1.339913 A    
C83   H47   1.083448 S    
C63   H35   1.082674 S    
C6    N6    1.324217 A    
C51   C71   1.378799 A    
C22   N38   1.425988 S    
N35   O5    1.302004 A    
C64   C68   1.403750 A    
C79   N35   1.465355 S    
C5    N5    1.324220 A    
C49   C77   1.507474 S    
C9    H9    1.081707 S    
N21   Ni1   1.865210 S    
C32   H28   1.080864 S    
C24   N40   1.425986 S    
C17   H17   1.080269 S    
C71   C75   1.499992 S    
C11   C43   1.382683 A    
C63   C67   1.403751 A    
C82   H46   1.083448 S    
N34   O4    1.300676 A    
C50   C78   1.507478 S    
C19   H19   1.080267 S    
N30   Ni6   1.824720 S    
C21   N21   1.349188 A    
C5    C37   1.378581 A    
N37   O9    1.301216 A    
C59   H31   1.074829 S    
C37   C66   1.456766 S    
N35   O6    1.300658 A    
C77   F1    1.387532 S    
C79   F3    1.387534 S    
C65   C71   1.399897 A    
C5    H5    1.074260 S    
C78   F2    1.387540 S    
C14   H14   1.078245 S    
N3    N31   1.388855 A    
C16   C48   1.371141 A    
C16   H16   1.078247 S    
N2    N30   1.388854 A    
C73   H41   1.112394 S    
C58   C62   1.401741 A    
C1    C33   1.381769 A    
N6    Ni3   1.864883 S    
C74   C78   1.507309 S    
N5    N25   1.388966 A    
N10   N18   1.363538 A    
C69   C73   1.499992 S    
C36   C81   1.448680 S    
C3    C35   1.381769 A    
C61   C65   1.403751 A    
C32   N32   1.339913 A    
N7    N27   1.388966 A    
C85   H49   1.083302 S    
C19   C43   1.370047 A    
C10   C42   1.382683 A    
C52   C56   1.403801 A    
C24   C48   1.396234 A    
C9    N9    1.342800 A    
C10   H10   1.081705 S    
C25   C37   1.395140 A    
