data_mof_unit_31613.cif
_audit_creation_date              2012-12-10T17:39:20-0500
_audit_creation_method            fapswitch 2.2
_symmetry_space_group_name_H-M    P1
_symmetry_Int_Tables_number       1
_space_group_crystal_system       triclinic
_cell_length_a                    12.386722
_cell_length_b                    13.211976
_cell_length_c                    27.7052
_cell_angle_alpha                 75.978771
_cell_angle_beta                  102.416031
_cell_angle_gamma                 117.278335
_cell_volume                      3881.22721049

loop_
_atom_site_label
_atom_site_type_symbol
_atom_type_description
_atom_site_fract_x
_atom_site_fract_y
_atom_site_fract_z
_atom_type_partial_charge
C1    C     C_R   0.854663 0.286081 0.505943 0.834110
C2    C     C_R   0.085669 0.479343 0.732456 -0.196504
C3    C     C_R   0.027062 0.537430 0.744318 0.269673
C4    C     C_R   0.025034 0.515927 0.898356 -0.059476
C5    C     C_R   0.917779 0.452604 0.868898 -0.061854
C6    C     C_R   0.813637 0.373259 0.891886 -0.151384
C7    C     C_R   0.131714 0.591007 0.875610 -0.085597
C8    C     C_R   0.010931 0.514248 0.644691 -0.082654
C9    C     C_R   0.999763 0.497105 0.354780 -0.100738
C10   C     C_R   0.913080 0.444944 0.021728 0.081713
C11   C     C_R   0.136591 0.539307 0.033485 -0.115512
C12   C     C_R   0.002405 0.502565 0.592364 0.797900
C13   C     C_R   0.024538 0.492327 0.053062 0.016106
C14   C     C_R   0.803432 0.418614 0.039386 -0.247369
C15   C     C_R   0.801661 0.421555 0.088924 -0.154501
C16   C     C_R   0.910494 0.455907 0.121763 0.021100
C17   C     C_R   0.023463 0.493439 0.103877 -0.092508
C18   C     C_R   0.134422 0.533534 0.136357 -0.133642
C19   C     C_R   0.126823 0.541616 0.185679 0.622627
C20   C     C_R   0.908580 0.455142 0.172061 0.508421
C21   C     C_R   0.061333 0.435072 0.293382 0.488662
C22   C     C_R   0.058158 0.437988 0.343232 -0.317184
C23   C     C_R   0.144787 0.713317 0.493440 0.809991
C24   C     C_R   0.947142 0.556232 0.315853 -0.248266
C25   C     C_R   0.953365 0.557162 0.266083 -0.180918
C26   C     C_R   0.010691 0.497225 0.254438 0.270915
C27   C     C_R   0.915786 0.433115 0.972510 0.019917
C28   C     C_R   0.025552 0.504090 0.950502 -0.015495
C29   C     C_R   0.135839 0.563037 0.980527 -0.064981
C30   C     C_R   0.814208 0.355915 0.943892 0.131731
C31   C     C_R   0.237358 0.656312 0.904727 -0.254984
C32   C     C_R   0.244187 0.556315 0.067548 0.427019
C33   C     C_R   0.246217 0.560194 0.118387 0.041200
C34   C     C_R   0.999447 0.499726 0.407522 0.855754
C35   C     C_R   0.239133 0.646806 0.956158 0.487538
C36   C     C_R   0.283024 0.012228 0.424508 -0.201130
C37   C     C_R   0.225493 0.835784 0.484175 -0.050468
C38   C     C_R   0.810103 0.085348 0.547164 -0.211167
C39   C     C_R   0.727617 0.971738 0.560480 -0.145009
C40   C     C_R   0.604224 0.936362 0.542516 -0.192791
C41   C     C_R   0.560871 0.013717 0.509718 0.024302
C42   C     C_R   0.649357 0.122207 0.489059 -0.022169
C43   C     C_R   0.434358 0.982185 0.492399 0.018691
C44   C     C_R   0.402830 0.050316 0.448447 0.062667
C45   C     C_R   0.919600 0.464439 0.817297 0.599713
C46   C     C_R   0.492260 0.150674 0.425698 -0.318519
C47   C     C_R   0.615306 0.183258 0.443635 0.461776
C48   C     C_R   0.337269 0.882719 0.514788 0.093590
C49   C     C_R   0.197205 0.902356 0.440388 -0.256799
C50   C     C_R   0.771800 0.162264 0.512272 -0.093150
C51   C     C_R   0.322372 0.295066 0.559156 0.362673
C52   C     C_R   0.767797 0.656372 0.435979 0.653480
C53   C     C_R   0.693063 0.712214 0.433234 -0.397878
C54   C     C_R   0.593030 0.662693 0.460471 0.112983
C55   C     C_R   0.560780 0.548902 0.488321 -0.015486
C56   C     C_R   0.129644 0.599884 0.823881 0.554049
C57   C     C_R   0.652394 0.505685 0.497069 0.163690
C58   C     C_R   0.447346 0.477726 0.510118 -0.065029
C59   C     C_R   0.432668 0.369713 0.539918 0.015491
C60   C     C_R   0.528511 0.337309 0.551862 -0.231687
C61   C     C_R   0.637917 0.406930 0.532843 -0.147981
C62   C     C_R   0.343017 0.502076 0.501135 -0.069066
C63   C     C_R   0.240220 0.338869 0.560637 0.258994
C64   C     C_R   0.965258 0.590037 0.706000 0.519919
C65   C     C_R   0.953048 0.573555 0.656498 -0.317330
C66   C     C_R   0.079214 0.469406 0.682940 -0.231397
Cu1   Cu    Cu3+1 0.098270 0.475420 0.511360 0.916469
Cu2   Cu    Cu3+1 0.901730 0.524580 0.488640 0.985264
H1    H     H_    0.124675 0.423900 0.674774 0.175822
H2    H     H_    0.318864 0.717881 0.887535 0.201779
H3    H     H_    0.904756 0.604493 0.323938 0.180854
H4    H     H_    0.914422 0.605455 0.236423 0.166225
H5    H     H_    0.109578 0.868109 0.417679 0.184354
H6    H     H_    0.467660 0.200050 0.391443 0.152612
H7    H     H_    0.258915 0.062671 0.390582 0.151468
H8    H     H_    0.134323 0.439794 0.761912 0.161848
H9    H     H_    0.903358 0.113344 0.564805 0.131492
H10   H     H_    0.545235 0.846343 0.552848 0.129114
H11   H     H_    0.758746 0.911555 0.586013 0.137572
H12   H     H_    0.520411 0.258530 0.577554 0.190061
H13   H     H_    0.334949 0.568738 0.471807 0.182831
H14   H     H_    0.733233 0.319583 0.869702 0.189276
H15   H     H_    0.715861 0.797966 0.411874 0.161962
H16   H     H_    0.709900 0.380987 0.547696 0.195423
H17   H     H_    0.101646 0.393708 0.372908 0.166745
H18   H     H_    0.714581 0.397665 0.101253 0.183010
H19   H     H_    0.718397 0.397424 0.014710 0.143627
H20   H     H_    0.898706 0.607247 0.627289 0.164837
N1    N     N_R   0.024777 0.536425 0.795998 -0.443406
N2    N     N_R   0.015539 0.498028 0.202847 -0.450571
N3    N     N_R   0.246290 0.438210 0.528570 -0.222985
N4    N     N_R   0.754320 0.561170 0.471730 -0.233414
O1    O     O_R   0.972510 0.318140 0.514280 -0.619318
O2    O     O_2   0.800352 0.411399 0.190219 -0.567450
O3    O     O_2   0.231565 0.670694 0.801655 -0.562510
O4    O     O_2   0.228449 0.594678 0.216204 -0.535676
O5    O     O_R   0.806530 0.359640 0.495100 -0.559461
O6    O     O_R   0.082990 0.479270 0.579320 -0.586644
O7    O     O_R   0.917010 0.520770 0.560140 -0.607093
O8    O     O_R   0.193470 0.640360 0.504900 -0.583599
O9    O     O_R   0.027490 0.681860 0.485720 -0.552964
O10   O     O_R   0.082990 0.479230 0.439860 -0.596288
O11   O     O_R   0.917010 0.520730 0.420680 -0.510802
O12   O     O_2   0.817870 0.402465 0.788778 -0.531416
O13   O     O_3   0.909457 0.648870 0.718429 -0.591123
C67   C     C_3   0.957127 0.765761 0.694368 0.017766
H21   H     H_    0.894990 0.802149 0.698210 0.178964
H22   H     H_    0.957593 0.775387 0.653394 0.124805
C68   C     C_3   0.085511 0.837072 0.719168 -0.347522
H23   H     H_    0.082403 0.829626 0.759729 0.238532
H24   H     H_    0.150172 0.803510 0.715327 0.236406
C69   C     C_3   0.133173 0.964082 0.694934 -0.886735
H25   H     H_    0.140632 0.973453 0.654700 0.266259
H26   H     H_    0.225321 0.013611 0.713962 0.270949
H27   H     H_    0.070961 0.000810 0.698311 0.251001
O14   O     O_3   0.345994 0.560091 0.052528 -0.576688
C70   C     C_3   0.322266 0.447623 0.047327 0.072431
H28   H     H_    0.256286 0.421851 0.013366 0.148239
H29   H     H_    0.284225 0.383093 0.080786 0.126443
C71   C     C_3   0.441645 0.446552 0.041607 -0.307287
H30   H     H_    0.480560 0.509899 0.008205 0.236383
H31   H     H_    0.508602 0.472258 0.075282 0.223035
C72   C     C_3   0.420845 0.326902 0.035525 -0.943734
H32   H     H_    0.383960 0.262527 0.068954 0.260299
H33   H     H_    0.508819 0.328594 0.031460 0.249783
H34   H     H_    0.355666 0.300235 0.001571 0.261354
C73   C     C_3   0.367846 0.586869 0.152046 -0.306589
C74   C     C_3   0.368728 0.479669 0.188426 -0.772775
H35   H     H_    0.292903 0.440319 0.211931 0.291223
H36   H     H_    0.359885 0.414182 0.167361 0.227093
H37   H     H_    0.456653 0.503803 0.213461 0.237054
H38   H     H_    0.445520 0.620027 0.129888 0.221571
H39   H     H_    0.391906 0.659000 0.171958 0.230274
O15   O     O_3   0.342695 0.722774 0.981391 -0.570925
C75   C     C_3   0.321118 0.813049 0.989901 0.065048
H40   H     H_    0.383049 0.845177 0.023777 0.174319
H41   H     H_    0.226174 0.784212 0.998259 0.121439
C76   C     C_3   0.351211 0.912601 0.945404 -0.373252
H42   H     H_    0.442226 0.934686 0.935105 0.236028
H43   H     H_    0.281746 0.885495 0.912584 0.215415
C77   C     C_3   0.352585 0.019637 0.957820 -0.905954
H44   H     H_    0.261701 0.999878 0.967499 0.257922
H45   H     H_    0.374144 0.089742 0.924821 0.261315
H46   H     H_    0.423460 0.050367 0.989813 0.256179
C78   C     C_3   0.346444 0.830638 0.570549 -0.427017
C79   C     C_3   0.244051 0.817421 0.597854 -0.825102
H47   H     H_    0.255958 0.902747 0.602821 0.255644
H48   H     H_    0.151652 0.772222 0.578222 0.235749
H49   H     H_    0.248826 0.766131 0.635823 0.253367
H50   H     H_    0.345920 0.744674 0.574747 0.221521
H51   H     H_    0.431908 0.886603 0.591395 0.222776
O16   O     O_3   0.703150 0.268472 0.414286 -0.602933
C80   C     C_3   0.704760 0.225873 0.372212 0.045564
H52   H     H_    0.750583 0.301414 0.343709 0.182620
H53   H     H_    0.611304 0.176709 0.353695 0.144052
C81   C     C_3   0.777359 0.152605 0.385994 -0.376356
H54   H     H_    0.875166 0.208189 0.397097 0.213606
H55   H     H_    0.742162 0.082556 0.418000 0.224311
C82   C     C_3   0.766550 0.096642 0.341998 -0.936067
H56   H     H_    0.670808 0.032285 0.333857 0.262753
H57   H     H_    0.827125 0.051674 0.351397 0.248286
H58   H     H_    0.793232 0.163051 0.308076 0.259240
C83   C     C_3   0.152737 0.275731 0.599992 -0.358400
C84   C     C_3   0.222242 0.290833 0.652395 -0.852575
H59   H     H_    0.275986 0.383975 0.654957 0.252781
H60   H     H_    0.156542 0.249599 0.680661 0.233514
H61   H     H_    0.285728 0.249001 0.661272 0.282596
H62   H     H_    0.079565 0.302745 0.595252 0.240597
H63   H     H_    0.106001 0.182252 0.598709 0.190067
O17   O     O_3   0.293232 0.178762 0.575622 -0.630661
C85   C     C_3   0.239826 0.119864 0.533708 0.048871
H64   H     H_    0.265455 0.047346 0.540318 0.193042
H65   H     H_    0.275458 0.173692 0.497783 0.139174
C86   C     C_3   0.099639 0.071925 0.527505 -0.399134
H66   H     H_    0.065008 0.021990 0.563782 0.216788
H67   H     H_    0.073059 0.144751 0.515743 0.218083
C87   C     C_3   0.038086 0.992973 0.488181 -0.876248
H68   H     H_    0.074123 0.038391 0.451740 0.255528
H69   H     H_    0.937937 0.967057 0.482820 0.250590
H70   H     H_    0.053256 0.913682 0.500987 0.273615
O18   O     O_3   0.865568 0.702246 0.407943 -0.588044
C88   C     C_3   0.847819 0.764290 0.359641 -0.022188
H71   H     H_    0.929464 0.788984 0.341069 0.178332
H72   H     H_    0.849148 0.847641 0.361817 0.132451
C89   C     C_3   0.732985 0.692471 0.326613 -0.376026
H73   H     H_    0.723415 0.602920 0.331551 0.231532
H74   H     H_    0.649532 0.687492 0.337691 0.221313
C90   C     C_3   0.739044 0.746258 0.271336 -0.886367
H75   H     H_    0.747830 0.835765 0.265664 0.257087
H76   H     H_    0.654030 0.694351 0.248749 0.260895
H77   H     H_    0.818357 0.747868 0.258040 0.249229
C91   C     C_3   0.542417 0.744691 0.464881 -0.388885
C92   C     C_3   0.467869 0.772839 0.416247 -0.811036
H78   H     H_    0.529284 0.828855 0.387191 0.246662
H79   H     H_    0.399470 0.693377 0.401480 0.253325
H80   H     H_    0.419532 0.819927 0.423252 0.248291
H81   H     H_    0.490711 0.714633 0.497392 0.192234
H82   H     H_    0.620676 0.827091 0.473162 0.212591
O19   O     O_3   0.123544 0.380495 0.282562 -0.599954
C93   C     C_3   0.054005 0.259803 0.292747 0.016470
H83   H     H_    0.968149 0.233907 0.266227 0.153928
H84   H     H_    0.031596 0.230912 0.332075 0.150158
C94   C     C_3   0.127850 0.199465 0.285609 -0.299504
H85   H     H_    0.146333 0.222402 0.245933 0.218087
H86   H     H_    0.216892 0.229264 0.309925 0.219926
C95   C     C_3   0.059202 0.068438 0.299062 -0.971621
H87   H     H_    0.042801 0.043588 0.339029 0.245869
H88   H     H_    0.114555 0.026941 0.293197 0.259186
H89   H     H_    0.970034 0.036294 0.275039 0.264685
C96   C     C_3   0.713549 0.245910 0.967543 -0.439654
C97   C     C_3   0.705532 0.137506 0.953301 -0.811758
H90   H     H_    0.668064 0.131698 0.913397 0.250813
H91   H     H_    0.797323 0.137624 0.960126 0.259138
H92   H     H_    0.643611 0.059619 0.976648 0.245842
H93   H     H_    0.730522 0.232694 0.008962 0.221856
H94   H     H_    0.624077 0.250501 0.955784 0.205123

loop_
_geom_bond_atom_site_label_1
_geom_bond_atom_site_label_2
_ccdc_geom_bond_type
C10   C27   A    
C58   C62   A    
C56   O3    S    
C6    C30   A    
C94   H85   S    
C8    C66   A    
C6    H14   S    
C57   N4    A    
C75   C76   S    
C41   C42   A    
C54   C55   A    
C83   C84   S    
Cu2   O11   S    
C21   C26   A    
C74   H35   S    
C89   H74   S    
C69   H26   S    
C78   C79   S    
C72   H32   S    
C89   C90   S    
O18   C88   S    
C52   C53   A    
C63   C83   S    
C94   H86   S    
C34   O10   A    
C54   C91   S    
C90   H77   S    
C20   N2    A    
C84   H59   S    
C36   H7    S    
C14   H19   S    
C70   H29   S    
C5    C6    A    
C86   H66   S    
C95   H88   S    
C9    C22   A    
C72   H33   S    
C66   H1    S    
C67   H21   S    
C23   O9    A    
C96   H93   S    
C33   C73   S    
O14   C70   S    
C90   H76   S    
C18   C19   A    
C22   H17   S    
Cu2   O5    S    
C12   O7    A    
Cu1   O6    S    
C73   H38   S    
C77   H44   S    
C81   H55   S    
C31   H2    S    
C60   H12   S    
C82   H56   S    
C44   C46   A    
C93   H83   S    
C87   H69   S    
C82   H57   S    
C91   H82   S    
C80   H53   S    
C45   N1    A    
C43   C48   A    
C12   O6    A    
C78   H50   S    
C92   H78   S    
C71   C72   S    
C8    C12   S    
C92   H80   S    
C23   O8    A    
O19   C93   S    
C10   C13   A    
C21   C22   A    
C62   N3    A    
C27   C30   A    
C41   C43   A    
C7    C56   A    
C21   O19   S    
C4    C7    A    
C35   O15   S    
C69   H25   S    
C4    C28   A    
C71   H31   S    
C79   H48   S    
C51   O17   S    
C85   C86   S    
C7    C31   A    
C15   C16   A    
Cu1   Cu2   S    
C94   C95   S    
C75   H40   S    
C51   C63   A    
C24   C25   A    
C10   C14   A    
C70   C71   S    
C1    O5    A    
C39   C40   A    
C95   H87   S    
C16   C17   A    
C72   H34   S    
C92   H79   S    
C58   C59   A    
C53   C54   A    
C5    C45   A    
C76   C77   S    
C32   O14   S    
C68   C69   S    
C32   C33   A    
C90   H75   S    
C37   C48   A    
C77   H45   S    
C81   H54   S    
C43   C44   A    
C59   C60   A    
C45   O12   S    
C79   H49   S    
C37   C49   A    
C97   H90   S    
C86   C87   S    
C26   N2    S    
C16   C20   A    
C87   H70   S    
C48   C78   S    
Cu1   N3    S    
C17   C18   A    
C82   H58   S    
C25   H4    S    
C91   H81   S    
Cu2   O9    S    
C80   C81   S    
C85   H64   S    
C78   H51   S    
C76   H43   S    
Cu1   O8    S    
C42   C50   A    
C15   H18   S    
C38   C50   A    
C1    O1    A    
C56   N1    A    
C97   H91   S    
C62   H13   S    
C11   C32   A    
C87   H68   S    
C55   C57   A    
C9    C34   S    
C49   H5    S    
C36   C44   A    
C51   C59   A    
C24   H3    S    
C73   C74   S    
C74   H37   S    
C46   H6    S    
C2    H8    S    
C71   H30   S    
C65   H20   S    
C79   H47   S    
C1    C50   S    
C75   H41   S    
C20   O2    S    
C46   C47   A    
C28   C29   A    
C88   H72   S    
C64   O13   S    
C81   C82   S    
C73   H39   S    
C4    C5    A    
C2    C66   A    
C61   H16   S    
C74   H36   S    
C30   C96   S    
C9    C24   A    
C57   C61   A    
O15   C75   S    
C77   H46   S    
C38   H9    S    
C85   H65   S    
O13   C67   S    
C29   C35   A    
C34   O11   A    
C13   C17   A    
C53   H15   S    
C91   C92   S    
C68   H24   S    
C83   H62   S    
C25   C26   A    
Cu2   O7    S    
C19   N2    A    
C23   C37   S    
C70   H28   S    
C64   C65   A    
C11   C13   A    
C95   H89   S    
C89   H73   S    
C38   C39   A    
C67   H22   S    
C52   O18   S    
C93   C94   S    
C96   H94   S    
C31   C35   A    
C84   H60   S    
Cu2   N4    S    
C2    C3    A    
C40   H10   S    
C42   C47   A    
C84   H61   S    
C3    C64   A    
C83   H63   S    
C18   C33   A    
C86   H67   S    
C52   N4    A    
C76   H42   S    
C36   C49   A    
C8    C65   A    
C97   H92   S    
C47   O16   S    
C11   C29   A    
C93   H84   S    
C96   C97   S    
O17   C85   S    
C55   C58   A    
C63   N3    A    
C27   C28   A    
Cu1   O1    S    
C14   C15   A    
C60   C61   A    
C40   C41   A    
O16   C80   S    
C80   H52   S    
C68   H23   S    
C3    N1    S    
C88   C89   S    
C69   H27   S    
C19   O4    S    
C88   H71   S    
Cu1   O10   S    
C39   H11   S    
C67   C68   S    
