data_mof_unit_25014.cif
_audit_creation_date              2012-10-26T20:50:47-0400
_audit_creation_method            fapswitch 2.2
_symmetry_space_group_name_H-M    P1
_symmetry_Int_Tables_number       1
_space_group_crystal_system       triclinic
_cell_length_a                    11.064963
_cell_length_b                    10.82316
_cell_length_c                    9.541779
_cell_angle_alpha                 89.930683
_cell_angle_beta                  103.097609
_cell_angle_gamma                 90.137308
_cell_volume                      1112.9726888

loop_
_atom_site_label
_atom_site_type_symbol
_atom_type_description
_atom_site_fract_x
_atom_site_fract_y
_atom_site_fract_z
_atom_type_partial_charge
C1    C     C_R   0.502217 0.262284 0.500603 0.545989
C2    C     C_R   0.443326 0.408409 0.059644 -0.002712
C3    C     C_R   0.443159 0.408511 0.910716 -0.000226
C4    C     C_R   0.262695 0.498361 0.441227 0.558098
C5    C     C_R   0.544841 0.599333 0.937844 0.160824
C6    C     C_3   0.672853 0.651190 0.964906 -0.274166
C7    C     C_3   0.673156 0.651132 0.124149 -0.277508
C8    C     C_R   0.502336 0.737688 0.500490 0.554123
C9    C     C_R   0.737744 0.499429 0.559187 0.522088
C10   C     C_2   0.127492 0.497653 0.407824 -0.140112
C11   C     C_2   0.068789 0.477434 0.513510 -0.124430
C12   C     C_R   0.514647 0.129198 0.503545 0.009546
C13   C     C_2   0.873912 0.499471 0.595852 -0.001103
C14   C     C_2   0.934283 0.488874 0.488504 -0.135194
C15   C     C_R   0.518074 0.063359 0.630263 0.023931
C16   C     C_2   0.938023 0.512532 0.750327 0.202240
C17   C     C_R   0.529112 0.064605 0.380588 -0.159996
C18   C     C_R   0.529134 0.935805 0.380493 -0.157713
C19   C     C_R   0.514765 0.870773 0.503375 0.009235
C20   C     C_R   0.518077 0.936191 0.630139 0.016524
C21   C     C_3   0.434156 0.929118 0.732452 -0.258662
C22   C     C_3   0.434281 0.069415 0.732763 -0.273745
C23   C     C_R   0.544880 0.599384 0.085147 0.162912
Cu1   Cu    Cu3+1 0.499990 0.499980 0.640670 0.949610
Cu2   Cu    Cu3+1 0.500010 0.500020 0.359330 0.947622
H1    H     H_    0.882769 0.485039 0.377271 0.127480
H2    H     H_    0.076296 0.517649 0.298865 0.108668
H3    H     H_    0.534208 0.112836 0.282553 0.130585
H4    H     H_    0.534088 0.887922 0.282376 0.130772
H5    H     H_    0.342101 0.888237 0.682882 0.155325
H6    H     H_    0.481129 0.888589 0.837758 0.135562
H7    H     H_    0.342264 0.110243 0.683613 0.135139
H8    H     H_    0.895658 0.474387 0.832898 0.109001
H9    H     H_    0.481617 0.109439 0.838225 0.129383
H10   H     H_    0.399283 0.333117 0.103776 0.115046
H11   H     H_    0.398638 0.333578 0.843483 0.110716
H12   H     H_    0.740765 0.585598 0.937023 0.148938
H13   H     H_    0.674609 0.745546 0.919313 0.130960
H14   H     H_    0.741337 0.585514 0.187119 0.146304
H15   H     H_    0.675442 0.745489 0.170470 0.122635
H16   H     H_    0.121326 0.452723 0.620151 0.202209
N1    N     N_R   0.500780 0.500930 0.148120 -0.230358
N2    N     N_R   0.500790 0.500890 0.852210 -0.229954
O1    O     O_R   0.500000 0.319640 0.618810 -0.508746
O2    O     O_R   0.500010 0.319680 0.381230 -0.516439
O3    O     O_R   0.320680 0.500000 0.575130 -0.490297
O4    O     O_R   0.320690 0.500040 0.337550 -0.487201
O5    O     O_R   0.499990 0.680320 0.618770 -0.494242
O6    O     O_R   0.500000 0.680360 0.381190 -0.502592
O7    O     O_R   0.679310 0.499960 0.662450 -0.514445
O8    O     O_R   0.679320 0.500000 0.424870 -0.506439
O9    O     O_2   0.034392 0.571169 0.787205 -0.515185

loop_
_geom_bond_atom_site_label_1
_geom_bond_atom_site_label_2
_ccdc_geom_bond_type
C10   H2    S    
C12   C17   A    
C7    H15   S    
C8    O5    A    
C6    C7    S    
C16   H8    S    
C21   H5    S    
Cu2   O4    S    
C1    O1    A    
C19   C20   A    
C5    C23   A    
C12   C15   A    
Cu1   O3    S    
C20   C21   S    
C6    H13   S    
C2    C3    A    
C5    N2    A    
C6    H12   S    
C18   H4    S    
C4    O3    A    
C21   C22   S    
C14   H1    S    
C21   H6    S    
C1    O2    A    
C5    C6    S    
C23   N1    A    
C22   H7    S    
C3    H11   S    
C2    N1    A    
Cu1   O1    S    
Cu2   N1    S    
C3    N2    A    
C11   H16   S    
Cu1   O7    S    
C15   C20   A    
C22   H9    S    
C11   C14   S    
Cu2   O6    S    
Cu2   O8    S    
C8    C19   S    
C10   C11   D    
C4    C10   S    
Cu1   O5    S    
Cu2   O2    S    
Cu1   Cu2   S    
C17   C18   A    
C18   C19   A    
C13   C16   S    
Cu1   N2    S    
C2    H10   S    
C7    H14   S    
C9    C13   S    
C13   C14   D    
C17   H3    S    
C8    O6    A    
C15   C22   S    
C1    C12   S    
C9    O7    A    
C16   O9    D    
C7    C23   S    
C4    O4    A    
C9    O8    A    
