data_mof_unit_50648.cif
_audit_creation_date              2012-12-10T17:51:34-0500
_audit_creation_method            fapswitch 2.2
_symmetry_space_group_name_H-M    P1
_symmetry_Int_Tables_number       1
_space_group_crystal_system       triclinic
_cell_length_a                    9.915628
_cell_length_b                    10.631262
_cell_length_c                    16.720436
_cell_angle_alpha                 91.335707
_cell_angle_beta                  85.443582
_cell_angle_gamma                 89.760694
_cell_volume                      1756.51536542

loop_
_atom_site_label
_atom_site_type_symbol
_atom_type_description
_atom_site_fract_x
_atom_site_fract_y
_atom_site_fract_z
_atom_type_partial_charge
C1    C     C_R   0.499995 0.739245 0.497821 0.858093
C2    C     C_R   0.528042 0.475310 0.260544 -0.032155
C3    C     C_R   0.399897 0.864529 0.361548 -0.176105
C4    C     C_R   0.481943 0.490984 0.652784 0.850362
C5    C     C_R   0.352141 0.928304 0.297417 -0.138133
C6    C     C_R   0.353399 0.059218 0.297198 -0.134043
C7    C     C_R   0.402230 0.126838 0.361167 -0.186435
C8    C     C_R   0.449696 0.063618 0.427106 0.092891
C9    C     C_R   0.448691 0.931712 0.427260 0.099667
C10   C     C_R   0.500434 0.871310 0.492654 -0.089789
C11   C     C_R   0.555788 0.937177 0.554777 -0.213393
C12   C     C_R   0.349638 0.471784 0.782801 -0.247687
C13   C     C_R   0.556165 0.065637 0.554775 -0.199447
C14   C     C_R   0.501833 0.127981 0.492497 -0.096673
C15   C     C_R   0.845553 0.664778 0.604968 -0.159385
C16   C     C_R   0.500535 0.260525 0.497964 0.865882
C17   C     C_R   0.908619 0.745656 0.656674 -0.197079
C18   C     C_R   0.048158 0.745277 0.656781 -0.196081
C19   C     C_R   0.125474 0.664149 0.605091 -0.155994
C20   C     C_R   0.065109 0.580948 0.551770 0.169594
C21   C     C_R   0.920540 0.581053 0.551730 0.168956
C22   C     C_R   0.935498 0.422509 0.450484 -0.116034
C23   C     C_R   0.414313 0.453018 0.138912 -0.154242
C24   C     C_R   0.078601 0.422573 0.450475 -0.113423
C25   C     C_R   0.518450 0.497755 0.346793 0.831535
C26   C     C_R   0.471087 0.448299 0.735636 -0.046683
C27   C     C_R   0.572277 0.370540 0.765299 0.169567
C28   C     C_R   0.549107 0.321335 0.841593 -0.158461
C29   C     C_R   0.432420 0.353807 0.890246 0.157160
C30   C     C_R   0.330775 0.425388 0.859792 -0.173494
C31   C     C_3   0.705522 0.338750 0.718766 -0.876786
C32   C     C_R   0.413234 0.492653 0.218368 -0.227485
C33   C     C_R   0.645813 0.421824 0.221711 -0.193713
C34   C     C_R   0.646758 0.381792 0.142006 -0.181710
C35   C     C_R   0.530132 0.394345 0.100870 0.205016
C36   C     C_2   0.426812 0.335192 0.976707 -0.235083
C37   C     C_2   0.537227 0.359482 0.015709 -0.233307
H1    H     H_    0.737990 0.339870 0.112614 0.124790
H2    H     H_    0.848633 0.809041 0.696917 0.144884
H3    H     H_    0.321875 0.535254 0.247132 0.153581
H4    H     H_    0.097003 0.808301 0.697139 0.147953
H5    H     H_    0.231899 0.669519 0.608727 0.202536
H6    H     H_    0.138079 0.359267 0.410006 0.145746
H7    H     H_    0.735312 0.406950 0.253534 0.150967
H8    H     H_    0.635500 0.369513 0.982913 0.150034
H9    H     H_    0.240027 0.451088 0.897100 0.132164
H10   H     H_    0.325274 0.470874 0.107433 0.124395
H11   H     H_    0.270171 0.528519 0.760657 0.160521
H12   H     H_    0.596183 0.888844 0.604166 0.135817
H13   H     H_    0.328151 0.326531 0.009142 0.144939
H14   H     H_    0.625412 0.262220 0.864965 0.130068
H15   H     H_    0.766967 0.271712 0.750900 0.217560
H16   H     H_    0.688142 0.294249 0.659984 0.253565
H17   H     H_    0.766437 0.425395 0.709783 0.258145
H18   H     H_    0.399852 0.762868 0.358470 0.146534
H19   H     H_    0.315237 0.875928 0.247403 0.135072
H20   H     H_    0.317547 0.108547 0.247006 0.138150
H21   H     H_    0.404111 0.228263 0.357788 0.144269
H22   H     H_    0.596109 0.116512 0.604383 0.144740
H23   H     H_    0.887478 0.359191 0.410015 0.143623
H24   H     H_    0.738212 0.670921 0.608664 0.201270
N1    N     N_R   0.857140 0.501200 0.500750 -0.119183
N2    N     N_R   0.142740 0.501280 0.500770 -0.119737
O1    O     O_R   0.385310 0.683220 0.500000 -0.636010
O2    O     O_R   0.614640 0.683250 0.500010 -0.623877
O3    O     O_R   0.371780 0.500010 0.615800 -0.631557
O4    O     O_R   0.601110 0.500030 0.615800 -0.632701
O5    O     O_R   0.385360 0.316750 0.499990 -0.610222
O6    O     O_R   0.614690 0.316780 0.500000 -0.617132
O7    O     O_R   0.398890 0.499970 0.384200 -0.628526
O8    O     O_R   0.628220 0.499990 0.384200 -0.610702
Zn1   Zn    Zn3+2 0.346870 0.499980 0.499990 0.931849
Zn2   Zn    Zn3+2 0.653130 0.500020 0.500010 0.930573

loop_
_geom_bond_atom_site_label_1
_geom_bond_atom_site_label_2
_ccdc_geom_bond_type
C4    O4    A    
C4    C26   S    
N1    Zn2   S    
O6    Zn2   S    
C6    C7    A    
C3    C9    A    
C14   C16   S    
C22   N1    A    
N2    Zn1   S    
C9    C10   A    
C7    H21   S    
C1    O2    A    
C19   C20   A    
C6    H20   S    
C19   H5    S    
C12   H11   S    
C31   H15   S    
O5    Zn1   S    
C22   H23   S    
C23   C32   A    
C20   N2    A    
O1    Zn1   S    
C33   C34   A    
C15   H24   S    
O2    Zn2   S    
C7    C8    A    
C13   C14   A    
C31   H16   S    
C4    O3    A    
C11   C13   A    
C29   C36   S    
C28   C29   A    
C21   N1    A    
C29   C30   A    
C3    H18   S    
C25   O8    A    
O4    Zn2   S    
C2    C33   A    
C36   C37   D    
C35   C37   S    
C17   C18   A    
C2    C25   S    
C23   C35   A    
C16   O5    A    
C32   H3    S    
C31   H17   S    
C26   C27   A    
C5    C6    A    
C28   H14   S    
C22   C24   A    
C24   N2    A    
O7    Zn1   S    
C10   C11   A    
C1    C10   S    
C37   H8    S    
C1    O1    A    
C15   C21   A    
C36   H13   S    
C20   C21   A    
C2    C32   A    
C34   C35   A    
C17   H2    S    
C18   H4    S    
O8    Zn2   S    
C27   C28   A    
C15   C17   A    
C24   H6    S    
C11   H12   S    
C18   C19   A    
C8    C14   A    
C25   O7    A    
C5    H19   S    
C12   C30   A    
C13   H22   S    
C34   H1    S    
C33   H7    S    
C27   C31   S    
C30   H9    S    
O3    Zn1   S    
C16   O6    A    
C12   C26   A    
C8    C9    A    
C3    C5    A    
C23   H10   S    
