data_mof_unit_46435.cif
_audit_creation_date              2012-12-11T15:41:14-0500
_audit_creation_method            fapswitch 2.2
_symmetry_space_group_name_H-M    P1
_symmetry_Int_Tables_number       1
_space_group_crystal_system       triclinic
_cell_length_a                    19.280643
_cell_length_b                    11.090579
_cell_length_c                    18.816785
_cell_angle_alpha                 89.841588
_cell_angle_beta                  90.710864
_cell_angle_gamma                 90.115157
_cell_volume                      4023.32597894

loop_
_atom_site_label
_atom_site_type_symbol
_atom_type_description
_atom_site_fract_x
_atom_site_fract_y
_atom_site_fract_z
_atom_type_partial_charge
C1    C     C_R   0.725639 0.958745 0.854587 0.547486
C2    C     C_R   0.274357 0.958997 0.145402 0.549936
C3    C     C_R   0.225640 0.458738 0.854584 0.547132
C4    C     C_R   0.774345 0.458961 0.145419 0.545303
C5    C     C_R   0.695663 0.443368 0.038655 0.005118
C6    C     C_R   0.304463 0.441766 0.961083 0.005222
C7    C     C_R   0.195703 0.943589 0.038604 0.005906
C8    C     C_R   0.804460 0.941814 0.961090 0.005602
C9    C     C_R   0.689616 0.433613 0.965324 0.036651
C10   C     C_R   0.310644 0.432491 0.034425 0.036298
C11   C     C_R   0.189664 0.933838 0.965270 0.037206
C12   C     C_R   0.810637 0.932537 0.034432 0.036149
C13   C     C_R   0.810823 0.382039 0.958710 -0.165168
C14   C     C_R   0.188821 0.384859 0.041827 -0.166063
C15   C     C_R   0.310845 0.882068 0.958687 -0.165032
C16   C     C_R   0.688830 0.884762 0.041815 -0.166206
C17   C     C_R   0.815520 0.383286 0.031940 -0.158836
C18   C     C_R   0.183901 0.385484 0.968603 -0.158971
C19   C     C_R   0.315531 0.883316 0.031919 -0.159327
C20   C     C_R   0.683918 0.885393 0.968591 -0.158897
C21   C     C_3   0.649069 0.550296 0.041203 -0.271964
C22   C     C_3   0.352446 0.547099 0.957657 -0.274261
C23   C     C_3   0.149201 0.050645 0.041121 -0.271306
C24   C     C_3   0.852408 0.047196 0.957674 -0.274277
C25   C     C_3   0.642589 0.540461 0.961027 -0.279508
C26   C     C_3   0.359057 0.537833 0.037875 -0.277552
C27   C     C_3   0.142733 0.040807 0.960946 -0.280678
C28   C     C_3   0.859012 0.037929 0.037893 -0.277764
C29   C     C_R   0.747846 0.408400 0.924093 0.020787
C30   C     C_R   0.252262 0.409460 0.076015 0.018200
C31   C     C_R   0.247883 0.908498 0.924056 0.020619
C32   C     C_R   0.752258 0.909441 0.076012 0.017975
C33   C     C_R   0.505148 0.171546 0.422264 0.009086
C34   C     C_R   0.511193 0.164790 0.570266 0.023841
C35   C     C_R   0.007138 0.671995 0.420861 0.007148
C36   C     C_R   0.016690 0.670268 0.568361 0.018481
C37   C     C_R   0.504336 0.276462 0.462181 0.039764
C38   C     C_R   0.506895 0.271119 0.534105 0.047513
C39   C     C_R   0.013461 0.778400 0.459147 0.006749
C40   C     C_R   0.022273 0.776934 0.530779 0.053146
C41   C     C_R   0.520288 0.058941 0.531023 -0.167177
C42   C     C_R   0.521369 0.063281 0.456359 -0.176159
C43   C     C_R   0.016905 0.561901 0.530592 -0.177750
C44   C     C_R   0.018273 0.563449 0.456186 -0.177113
C45   C     C_R   0.530655 0.177651 0.850763 0.552635
C46   C     C_R   0.469234 0.177956 0.149167 0.551513
C47   C     C_R   0.030655 0.677651 0.850762 0.554259
C48   C     C_R   0.969224 0.677956 0.149160 0.551431
C49   C     C_3   0.450344 0.372345 0.464273 -0.248603
C50   C     C_3   0.453941 0.363219 0.543296 -0.286415
C51   C     C_3   0.967186 0.885425 0.461258 -0.257750
C52   C     C_3   0.978693 0.884478 0.539836 -0.268981
C53   C     C_R   0.762186 0.438255 0.429401 0.003033
C54   C     C_R   0.252787 0.415504 0.578532 -0.013124
C55   C     C_R   0.274600 0.975825 0.437602 0.000259
C56   C     C_R   0.755817 0.910443 0.580751 -0.006112
C57   C     C_R   0.818461 0.441721 0.476173 0.004786
C58   C     C_R   0.208862 0.334942 0.542363 -0.017276
C59   C     C_R   0.330859 0.961776 0.483840 -0.016699
C60   C     C_R   0.714540 0.825762 0.545641 -0.033084
C61   C     C_R   0.810829 0.438237 0.548582 -0.026916
C62   C     C_R   0.214687 0.314951 0.470097 0.008936
C63   C     C_R   0.322274 0.948797 0.556495 -0.022870
C64   C     C_R   0.720794 0.801751 0.473799 0.000614
C65   C     C_R   0.686694 0.449366 0.532446 0.144917
C66   C     C_R   0.297992 0.477281 0.463094 0.101195
C67   C     C_R   0.201639 0.996880 0.544402 0.140554
C68   C     C_R   0.800666 0.969893 0.465036 0.099576
C69   C     C_R   0.695179 0.446710 0.457336 0.105451
C70   C     C_R   0.302891 0.483104 0.538559 0.148505
C71   C     C_R   0.207989 0.993187 0.468177 0.126219
C72   C     C_R   0.806076 0.976387 0.540458 0.146458
C73   C     C_3   0.881196 0.364215 0.479973 -0.274378
C74   C     C_3   0.132524 0.354152 0.531684 -0.265324
C75   C     C_3   0.386188 0.867973 0.483835 -0.271491
C76   C     C_3   0.638138 0.836589 0.536759 -0.269251
C77   C     C_3   0.876088 0.369849 0.559957 -0.282738
C78   C     C_3   0.138811 0.316731 0.456461 -0.259343
C79   C     C_3   0.382032 0.866063 0.563870 -0.282850
C80   C     C_3   0.644309 0.789451 0.463260 -0.263551
C81   C     C_R   0.745678 0.425243 0.577789 0.010833
C82   C     C_R   0.257777 0.386883 0.430010 -0.006011
C83   C     C_R   0.256029 0.944384 0.585583 0.005806
C84   C     C_R   0.760337 0.878693 0.432270 0.002621
C85   C     C_R   0.738202 0.363416 0.852411 0.543705
C86   C     C_R   0.261802 0.363847 0.147650 0.543797
C87   C     C_R   0.238215 0.863455 0.852392 0.540393
C88   C     C_R   0.761800 0.863846 0.147650 0.544385
C89   C     C_R   0.728845 0.955879 0.648127 0.557649
C90   C     C_R   0.288183 0.995773 0.360833 0.558284
C91   C     C_R   0.228325 0.456747 0.647650 0.555280
C92   C     C_R   0.775775 0.463224 0.355160 0.544155
C93   C     C_R   0.531588 0.175375 0.643804 0.549041
C94   C     C_R   0.471336 0.176416 0.353891 0.525963
C95   C     C_R   0.032871 0.676446 0.643032 0.542837
C96   C     C_R   0.971364 0.676736 0.353732 0.541027
C97   C     C_R   0.738113 0.363053 0.646341 0.567928
C98   C     C_R   0.262458 0.357065 0.355139 0.538172
C99   C     C_R   0.240251 0.867232 0.648201 0.558465
C100  C     C_R   0.763551 0.852723 0.356591 0.549276
C101  C     C_2   0.498563 0.168974 0.920744 -0.108902
C102  C     C_2   0.501145 0.169655 0.079098 -0.109810
C103  C     C_2   0.998558 0.668974 0.920740 -0.108740
C104  C     C_2   0.001129 0.669652 0.079088 -0.108992
C105  C     C_2   0.491770 0.071472 0.038265 -0.162717
C106  C     C_2   0.508186 0.071259 0.962097 -0.163101
C107  C     C_2   0.991753 0.571467 0.038258 -0.162730
C108  C     C_2   0.008166 0.571251 0.962089 -0.163016
C109  C     C_R   0.759117 0.421450 0.073035 0.021039
C110  C     C_R   0.240636 0.421456 0.927095 0.022160
C111  C     C_R   0.259135 0.921543 0.073003 0.020378
C112  C     C_R   0.740643 0.921445 0.927094 0.022535
Cr1   Cr    Cr6+3 0.769260 0.163750 0.750730 0.985821
Cr2   Cr    Cr6+3 0.230740 0.163750 0.249270 1.016361
Cr3   Cr    Cr6+3 0.269260 0.663750 0.750730 0.981074
Cr4   Cr    Cr6+3 0.730740 0.663750 0.249270 0.998005
Cr5   Cr    Cr6+3 0.612640 0.009910 0.748780 0.995810
Cr6   Cr    Cr6+3 0.387360 0.009910 0.251220 0.994019
Cr7   Cr    Cr6+3 0.112640 0.509910 0.748780 0.991893
Cr8   Cr    Cr6+3 0.887360 0.509910 0.251220 1.000299
Cr9   Cr    Cr6+3 0.614190 0.322400 0.747710 0.998171
Cr10  Cr    Cr6+3 0.385810 0.322400 0.252290 0.989970
Cr11  Cr    Cr6+3 0.114190 0.822400 0.747710 0.999909
Cr12  Cr    Cr6+3 0.885810 0.822400 0.252290 0.998737
H1    H     H_    0.471064 0.988825 0.060661 0.143398
H2    H     H_    0.529064 0.988784 0.940133 0.142004
H3    H     H_    0.971051 0.488820 0.060657 0.143413
H4    H     H_    0.029033 0.488769 0.940122 0.141968
H5    H     H_    0.913550 0.860139 0.446332 0.174479
H6    H     H_    0.010303 0.961399 0.558706 0.154348
H7    H     H_    0.400221 0.339182 0.442801 0.172602
H8    H     H_    0.478649 0.441446 0.567731 0.158931
H9    H     H_    0.469399 0.459911 0.443139 0.134884
H10   H     H_    0.406463 0.325616 0.567984 0.136817
H11   H     H_    0.988491 0.966012 0.434094 0.122384
H12   H     H_    0.931516 0.859737 0.569414 0.149062
H13   H     H_    0.926074 0.408200 0.457815 0.155732
H14   H     H_    0.124704 0.451922 0.536475 0.162595
H15   H     H_    0.435720 0.897731 0.463322 0.148107
H16   H     H_    0.627153 0.933834 0.536162 0.157961
H17   H     H_    0.872459 0.273056 0.458550 0.166063
H18   H     H_    0.095322 0.297683 0.560735 0.126200
H19   H     H_    0.368498 0.782947 0.459408 0.171390
H20   H     H_    0.606980 0.784006 0.573891 0.142841
H21   H     H_    0.870014 0.281365 0.584671 0.190489
H22   H     H_    0.117593 0.225823 0.445182 0.150006
H23   H     H_    0.369102 0.778714 0.585658 0.195750
H24   H     H_    0.627688 0.694082 0.458625 0.148467
H25   H     H_    0.914672 0.427125 0.587404 0.133553
H26   H     H_    0.122546 0.387220 0.417751 0.136327
H27   H     H_    0.425235 0.910216 0.592721 0.130895
H28   H     H_    0.622034 0.851018 0.422341 0.138956
H29   H     H_    0.524162 0.250827 0.056993 0.107919
H30   H     H_    0.475315 0.249907 0.942439 0.107854
H31   H     H_    0.024144 0.750825 0.056981 0.108283
H32   H     H_    0.975316 0.749913 0.942436 0.107757
H33   H     H_    0.856384 0.356025 0.929313 0.133471
H34   H     H_    0.143113 0.360290 0.071592 0.134734
H35   H     H_    0.356399 0.855982 0.929299 0.133415
H36   H     H_    0.643126 0.860141 0.071571 0.134601
H37   H     H_    0.865645 0.362817 0.055510 0.135126
H38   H     H_    0.133508 0.366186 0.945276 0.134495
H39   H     H_    0.365641 0.862779 0.055502 0.134991
H40   H     H_    0.633533 0.866047 0.945259 0.134570
H41   H     H_    0.176652 0.133560 0.058725 0.174234
H42   H     H_    0.826081 0.130905 0.939625 0.174601
H43   H     H_    0.676445 0.633289 0.058806 0.174863
H44   H     H_    0.326146 0.630836 0.939609 0.174945
H45   H     H_    0.599848 0.530338 0.069078 0.129739
H46   H     H_    0.401296 0.525213 0.929752 0.127213
H47   H     H_    0.099955 0.030837 0.068984 0.130859
H48   H     H_    0.901270 0.025365 0.929774 0.127335
H49   H     H_    0.589488 0.515329 0.942644 0.140445
H50   H     H_    0.411879 0.511159 0.056247 0.142178
H51   H     H_    0.089616 0.015808 0.942548 0.140238
H52   H     H_    0.911842 0.011309 0.056270 0.142364
H53   H     H_    0.666155 0.617771 0.932228 0.138791
H54   H     H_    0.336586 0.616144 0.066258 0.139357
H55   H     H_    0.166375 0.118040 0.932141 0.137407
H56   H     H_    0.836511 0.116213 0.066276 0.138962
H57   H     H_    0.525039 0.974022 0.558252 0.117980
H58   H     H_    0.527905 0.982057 0.425646 0.110682
H59   H     H_    0.017670 0.477126 0.558578 0.119029
H60   H     H_    0.020547 0.480690 0.426404 0.113581
O1    O     O_R   0.784290 0.290360 0.830540 -0.538815
O2    O     O_R   0.215710 0.290360 0.169460 -0.533763
O3    O     O_R   0.284290 0.790360 0.830540 -0.539528
O4    O     O_R   0.715710 0.790360 0.169460 -0.533358
O5    O     O_R   0.554690 0.080440 0.673480 -0.514372
O6    O     O_R   0.445310 0.080440 0.326520 -0.511695
O7    O     O_R   0.054690 0.580440 0.673480 -0.512414
O8    O     O_R   0.945310 0.580440 0.326520 -0.504600
O9    O     O_R   0.543980 0.282110 0.666770 -0.513908
O10   O     O_R   0.456020 0.282110 0.333230 -0.542493
O11   O     O_R   0.043980 0.782110 0.666770 -0.515951
O12   O     O_R   0.956020 0.782110 0.333230 -0.538459
O13   O     O_R   0.679070 0.374030 0.674430 -0.486488
O14   O     O_R   0.320930 0.374030 0.325570 -0.517537
O15   O     O_R   0.179070 0.874030 0.674430 -0.481550
O16   O     O_R   0.820930 0.874030 0.325570 -0.512473
O17   O     O_3   0.665360 0.165350 0.749070 -0.248090
O18   O     O_3   0.334640 0.165350 0.250930 -0.268004
O19   O     O_3   0.165360 0.665350 0.749070 -0.246914
O20   O     O_3   0.834640 0.665350 0.250930 -0.252655
O21   O     O_R   0.762610 0.041070 0.825230 -0.510063
O22   O     O_R   0.237390 0.041070 0.174770 -0.500541
O23   O     O_R   0.262610 0.541070 0.825230 -0.509399
O24   O     O_R   0.737390 0.541070 0.174770 -0.503650
O25   O     O_R   0.667390 0.924160 0.829970 -0.533416
O26   O     O_R   0.332610 0.924160 0.170030 -0.530710
O27   O     O_R   0.167390 0.424160 0.829970 -0.535269
O28   O     O_R   0.832610 0.424160 0.170030 -0.532577
O29   O     O_R   0.553980 0.081420 0.821780 -0.499980
O30   O     O_R   0.446020 0.081420 0.178220 -0.499160
O31   O     O_R   0.053980 0.581420 0.821780 -0.499004
O32   O     O_R   0.946020 0.581420 0.178220 -0.500177
O33   O     O_R   0.543210 0.283170 0.826740 -0.525383
O34   O     O_R   0.456790 0.283170 0.173260 -0.520830
O35   O     O_R   0.043210 0.783170 0.826740 -0.523710
O36   O     O_R   0.956790 0.783170 0.173260 -0.520114
O37   O     O_R   0.678350 0.375000 0.822720 -0.503085
O38   O     O_R   0.321650 0.375000 0.177280 -0.494358
O39   O     O_R   0.178350 0.875000 0.822720 -0.505965
O40   O     O_R   0.821650 0.875000 0.177280 -0.495428
O41   O     O_R   0.785060 0.289300 0.670580 -0.530860
O42   O     O_R   0.214940 0.289300 0.329420 -0.516817
O43   O     O_R   0.285060 0.789300 0.670580 -0.535453
O44   O     O_R   0.714940 0.789300 0.329420 -0.526359
O45   O     O_R   0.763330 0.040090 0.676940 -0.489291
O46   O     O_R   0.236670 0.040090 0.323060 -0.470158
O47   O     O_R   0.263330 0.540090 0.676940 -0.491524
O48   O     O_R   0.736670 0.540090 0.323060 -0.501747
O49   O     O_R   0.668160 0.923110 0.670000 -0.529977
O50   O     O_R   0.331840 0.923110 0.330000 -0.542342
O51   O     O_R   0.168160 0.423110 0.670000 -0.534747
O52   O     O_R   0.831840 0.423110 0.330000 -0.534926
N1    N     N_2   0.618323 0.462165 0.559918 -0.471594
H61   H     H_    0.580626 0.464231 0.521175 0.269969
C113  C     C_3   0.605846 0.555383 0.612094 -0.274539
H62   H     H_    0.563063 0.614149 0.593080 0.075048
H63   H     H_    0.653341 0.608909 0.624117 0.149096
H64   H     H_    0.586229 0.514773 0.661818 0.185419
N2    N     N_2   0.328387 0.569560 0.420906 -0.548633
H65   H     H_    0.367522 0.542056 0.388056 0.266117
C114  C     C_3   0.278630 0.648601 0.386508 -0.312853
H66   H     H_    0.306212 0.711800 0.351226 0.176719
H67   H     H_    0.250374 0.700346 0.427349 0.157976
H68   H     H_    0.240960 0.597502 0.353155 0.138682
N3    N     N_2   0.141080 0.045243 0.578160 -0.502948
H69   H     H_    0.104849 0.086792 0.546188 0.219390
C115  C     C_3   0.148376 0.103845 0.647422 -0.252438
H70   H     H_    0.130597 0.197604 0.646420 0.130068
H71   H     H_    0.202805 0.106032 0.667309 0.140309
H72   H     H_    0.114574 0.057991 0.686437 0.161428
N4    N     N_2   0.829472 0.063706 0.422841 -0.547395
H73   H     H_    0.869606 0.038759 0.390523 0.264886
C116  C     C_3   0.778560 0.140328 0.388237 -0.310661
H74   H     H_    0.805399 0.208374 0.355513 0.164766
H75   H     H_    0.747012 0.186204 0.428958 0.162551
H76   H     H_    0.743807 0.088368 0.352247 0.139566
N5    N     N_2   0.635937 0.446070 0.410977 -0.536254
H77   H     H_    0.625541 0.527544 0.386793 0.260820
C117  C     C_3   0.629094 0.343686 0.363608 -0.296411
H78   H     H_    0.578506 0.348734 0.335619 0.171676
H79   H     H_    0.632898 0.258176 0.394057 0.144602
H80   H     H_    0.668871 0.343381 0.321829 0.141659
N6    N     N_2   0.351145 0.569367 0.569188 -0.490654
H81   H     H_    0.383310 0.608350 0.532383 0.257855
C118  C     C_3   0.388829 0.553143 0.636570 -0.268503
H82   H     H_    0.444109 0.578352 0.631418 0.062570
H83   H     H_    0.383373 0.460445 0.658252 0.146280
H84   H     H_    0.372254 0.620496 0.676053 0.197965
N7    N     N_2   0.147987 0.986484 0.423004 -0.490824
H85   H     H_    0.102315 0.015988 0.443923 0.230873
C119  C     C_3   0.139324 0.872264 0.386194 -0.276980
H86   H     H_    0.090423 0.873485 0.354517 0.156554
H87   H     H_    0.139563 0.796900 0.424989 0.131776
H88   H     H_    0.181329 0.853720 0.348443 0.163395
N8    N     N_2   0.853720 0.063303 0.571096 -0.492880
H89   H     H_    0.885329 0.105029 0.534836 0.256705
C120  C     C_3   0.890946 0.043594 0.638238 -0.272182
H90   H     H_    0.947334 0.056784 0.632031 0.081875
H91   H     H_    0.880696 0.952923 0.661116 0.146216
H92   H     H_    0.877198 0.114587 0.676863 0.188709

loop_
_geom_bond_atom_site_label_1
_geom_bond_atom_site_label_2
_ccdc_geom_bond_type
Cr8   O28   S    
C117  H80   S    
C97   O41   A    
C4    C109  S    
N4    C116  S    
C67   C83   A    
C46   O34   A    
Cr3   O23   S    
C16   C32   A    
C16   H36   S    
C45   O33   A    
C41   C42   A    
C14   C18   A    
C39   C51   S    
C119  H86   S    
C36   C95   S    
C34   C93   S    
C23   H47   S    
C53   C69   A    
C33   C94   S    
C49   C50   S    
C75   H19   S    
Cr12  O36   S    
C51   H5    S    
Cr5   O49   S    
C9    C25   S    
C115  H70   S    
C73   H17   S    
C35   C96   S    
C42   H58   S    
C120  H92   S    
Cr7   O31   S    
C74   H14   S    
C78   H26   S    
N3    H69   S    
C37   C38   A    
C21   C25   S    
Cr1   O45   S    
C14   H34   S    
C33   C42   A    
C90   O46   A    
C13   C29   A    
C119  H87   S    
C113  H62   S    
Cr7   O7    S    
C55   C90   S    
C55   C59   A    
Cr8   O8    S    
C1    C112  S    
C54   C58   A    
N5    H77   S    
C25   H53   S    
C115  H71   S    
C66   C82   A    
C66   N2    S    
C26   H50   S    
C3    C110  S    
C89   O49   A    
N2    H65   S    
C20   H40   S    
N1    C113  S    
C91   O51   A    
C65   C69   A    
N1    H61   S    
Cr3   O3    S    
Cr7   O27   S    
C90   O50   A    
C102  C105  D    
C80   H28   S    
C116  H74   S    
C57   C73   S    
C57   C61   A    
C100  O44   A    
C10   C30   A    
Cr10  O14   S    
C64   C84   A    
C36   C40   A    
Cr11  O35   S    
C81   C97   S    
C71   N7    S    
C15   C19   A    
C51   H11   S    
C47   O35   A    
C73   C77   S    
Cr12  O40   S    
C61   C77   S    
C56   C72   A    
Cr3   O19   S    
C45   O29   A    
C107  C108  S    
Cr2   O18   S    
Cr9   O37   S    
C103  C108  D    
C2    O22   A    
C7    C11   A    
Cr1   O17   S    
C48   O32   A    
C30   C86   S    
C1    O21   A    
C44   H60   S    
Cr3   O47   S    
C7    C23   S    
C95   O7    A    
C17   H37   S    
C22   H44   S    
C19   C111  A    
C10   C26   S    
C26   H54   S    
C74   H18   S    
C11   C31   A    
C20   C112  A    
C114  H66   S    
C12   C32   A    
C85   O1    A    
C64   C80   S    
C48   C104  S    
C41   H57   S    
Cr6   O18   S    
C34   C41   A    
Cr9   O33   S    
C14   C30   A    
Cr5   O17   S    
C73   H13   S    
Cr11  O11   S    
Cr2   O2    S    
Cr4   O20   S    
C4    O24   A    
C76   H16   S    
C3    O27   A    
C8    C12   A    
C2    C111  S    
C2    O26   A    
C47   C103  S    
C38   C50   S    
C98   O14   A    
C1    O25   A    
C51   C52   S    
C68   C84   A    
C97   O13   A    
C74   C78   S    
C117  H78   S    
C119  H88   S    
C31   C87   S    
C113  H63   S    
C50   H10   S    
C94   O10   A    
C27   H51   S    
C39   C40   A    
N5    C117  S    
C85   O37   A    
C53   C57   A    
C28   H52   S    
C115  H72   S    
C69   N5    S    
C7    C111  A    
C52   H12   S    
N2    C114  S    
C120  H90   S    
C40   C52   S    
C106  H2    S    
Cr11  O39   S    
C92   O52   A    
C33   C37   A    
C99   O43   A    
Cr2   O22   S    
C91   O47   A    
C68   C72   A    
C116  H75   S    
C87   O39   A    
C6    C110  A    
C80   H24   S    
C35   C39   A    
C43   C44   A    
C94   O6    A    
Cr3   O43   S    
Cr10  O10   S    
Cr2   O42   S    
C49   H7    S    
C63   C83   A    
Cr6   O50   S    
Cr6   O26   S    
Cr1   O41   S    
C54   C70   A    
C67   N3    S    
C11   C27   S    
C16   C20   A    
C43   H59   S    
Cr1   O1    S    
Cr12  O12   S    
C53   C92   S    
C88   O40   A    
N7    H85   S    
Cr7   O19   S    
C103  H32   S    
Cr6   O30   S    
C22   H46   S    
C50   H8    S    
Cr5   O29   S    
C35   C44   A    
C28   H56   S    
C102  H29   S    
Cr9   O13   S    
C37   C49   S    
Cr4   O24   S    
Cr5   O5    S    
C58   C62   A    
C79   H23   S    
C76   H20   S    
Cr7   O51   S    
C56   C89   S    
Cr4   O44   S    
C86   O2    A    
N3    C115  S    
C23   C27   S    
C114  H67   S    
Cr10  O38   S    
Cr8   O20   S    
C82   C98   S    
C114  H68   S    
C32   C88   S    
C120  H91   S    
C88   O4    A    
C77   H25   S    
Cr4   O4    S    
Cr9   O9    S    
C59   C75   S    
C45   C101  S    
N6    C118  S    
C58   C74   S    
C24   C28   S    
C79   H27   S    
C48   O36   A    
C65   N1    S    
Cr11  O15   S    
C101  C106  D    
C117  H79   S    
C49   H9    S    
C19   H39   S    
C95   O11   A    
Cr10  O34   S    
C34   C38   A    
C29   C85   S    
C62   C78   S    
C93   O9    A    
C76   C80   S    
C27   H55   S    
C17   C109  A    
C15   H35   S    
Cr2   O46   S    
C84   C100  S    
C87   O3    A    
N6    H81   S    
C47   O31   A    
C15   C31   A    
C96   O8    A    
C63   C79   S    
C93   O5    A    
Cr8   O32   S    
C105  C106  S    
Cr12  O16   S    
C59   C63   A    
C21   H43   S    
C105  H1    S    
C60   C64   A    
C116  H76   S    
C3    O23   A    
C72   N8    S    
C118  H83   S    
N8    H89   S    
C107  H3    S    
C54   C91   S    
C61   C81   A    
Cr8   O52   S    
C9    C29   A    
C18   H38   S    
C68   N4    S    
C70   N6    S    
C66   C70   A    
C77   H21   S    
C5    C109  A    
C101  H30   S    
C21   H45   S    
C4    O28   A    
Cr6   O6    S    
Cr5   O25   S    
N7    C119  S    
C8    C112  A    
C60   C76   S    
C56   C60   A    
C113  H64   S    
C67   C71   A    
N8    C120  S    
C104  H31   S    
C62   C82   A    
C24   H42   S    
C24   H48   S    
C98   O42   A    
C55   C71   A    
C6    C10   A    
C78   H22   S    
Cr9   O17   S    
C13   C17   A    
C25   H49   S    
Cr10  O18   S    
C96   O12   A    
C5    C21   S    
C8    C24   S    
C12   C28   S    
C46   O30   A    
C18   C110  A    
Cr12  O20   S    
C22   C26   S    
C118  H84   S    
C99   O15   A    
C23   H41   S    
C92   O48   A    
C65   C81   A    
C100  O16   A    
C36   C43   A    
C75   H15   S    
C5    C9    A    
C86   O38   A    
Cr11  O19   S    
C89   O45   A    
C13   H33   S    
C118  H82   S    
C75   C79   S    
C104  C107  D    
Cr4   O48   S    
C108  H4    S    
N4    H73   S    
Cr1   O21   S    
C83   C99   S    
C46   C102  S    
C52   H6    S    
C6    C22   S    
