data_mof_unit_34120.cif
_audit_creation_date              2012-12-10T19:02:45-0500
_audit_creation_method            fapswitch 2.2
_symmetry_space_group_name_H-M    P1
_symmetry_Int_Tables_number       1
_space_group_crystal_system       triclinic
_cell_length_a                    9.542049
_cell_length_b                    10.822412
_cell_length_c                    13.870722
_cell_angle_alpha                 90.204127
_cell_angle_beta                  84.824327
_cell_angle_gamma                 90.067644
_cell_volume                      1426.55173387

loop_
_atom_site_label
_atom_site_type_symbol
_atom_type_description
_atom_site_fract_x
_atom_site_fract_y
_atom_site_fract_z
_atom_type_partial_charge
C1    C     C_R   0.500287 0.737658 0.497841 0.787118
C2    C     C_1   0.462737 0.498251 0.786134 -0.198345
C3    C     C_R   0.377360 0.935926 0.479596 -0.020285
C4    C     C_R   0.501986 0.870594 0.487618 -0.125524
C5    C     C_R   0.630005 0.935584 0.482515 -0.190537
C6    C     C_R   0.630059 0.064223 0.482818 -0.210429
C7    C     C_R   0.501905 0.128989 0.489463 -0.073739
C8    C     C_R   0.377252 0.063273 0.482283 0.035782
C9    C     C_3   0.240571 0.069438 0.543969 -0.479108
C10   C     C_3   0.238203 0.928981 0.540625 0.302753
C11   C     C_R   0.937194 0.472188 0.417671 0.264382
C12   C     C_R   0.477186 0.499885 0.682992 0.838508
C13   C     C_R   0.915542 0.540887 0.578090 -0.078177
C14   C     C_R   0.064270 0.540843 0.578102 -0.056882
C15   C     C_R   0.084410 0.472922 0.417485 0.261371
C16   C     C_3   0.098517 0.356786 0.359427 -0.500352
C17   C     C_3   0.939060 0.355175 0.360573 -0.502368
C18   C     C_R   0.500178 0.262230 0.498635 0.800915
C19   C     C_R   0.522712 0.500301 0.317003 0.810127
C20   C     C_1   0.535857 0.501362 0.213836 -0.178099
C21   C     C_2   0.550287 0.502897 0.023247 -0.245166
C22   C     C_2   0.432752 0.493594 0.977763 0.492735
C23   C     C_1   0.449062 0.496303 0.873005 -0.154780
C24   C     C_1   0.544288 0.502271 0.126974 0.068870
Cu1   Cu    Cu3+1 0.359330 0.500020 0.500000 0.939729
Cu2   Cu    Cu3+1 0.640670 0.499980 0.500000 0.938543
H1    H     H_    0.111157 0.572545 0.641817 0.148110
H2    H     H_    0.152526 0.372721 0.286111 0.209526
H3    H     H_    0.141275 0.279121 0.399680 0.209833
H4    H     H_    0.901611 0.369078 0.287799 0.198562
H5    H     H_    0.889098 0.276898 0.402450 0.208040
H6    H     H_    0.652864 0.509992 0.982640 0.112898
H7    H     H_    0.729307 0.887705 0.483781 0.170936
H8    H     H_    0.729683 0.112108 0.483276 0.160469
H9    H     H_    0.252418 0.107312 0.617435 0.162787
H10   H     H_    0.156061 0.113007 0.505806 0.205341
H11   H     H_    0.247861 0.886441 0.612599 0.106533
H12   H     H_    0.852244 0.572664 0.641861 0.150331
N1    N     N_R   0.852140 0.499070 0.499400 -0.191562
N2    N     N_R   0.148050 0.499110 0.499400 -0.188507
O1    O     O_R   0.381190 0.680360 0.500000 -0.587992
O2    O     O_R   0.618770 0.680320 0.499990 -0.580802
O3    O     O_R   0.364410 0.500000 0.637850 -0.584383
O4    O     O_R   0.602000 0.499960 0.637840 -0.579046
O5    O     O_R   0.381230 0.319680 0.500010 -0.575697
O6    O     O_R   0.618810 0.319640 0.500000 -0.584299
O7    O     O_R   0.398000 0.500040 0.362160 -0.574058
O8    O     O_R   0.635590 0.500000 0.362150 -0.577190
O9    O     O_3   0.302384 0.487901 0.032811 -0.608275
C25   C     C_3   0.189929 0.450468 0.979301 0.071757
H13   H     H_    0.110921 0.403488 0.030403 0.155796
H14   H     H_    0.221809 0.380459 0.922430 0.135956
C26   C     C_3   0.118799 0.562793 0.937457 -0.337082
H15   H     H_    0.076119 0.623782 0.997740 0.223135
H16   H     H_    0.196466 0.616838 0.890372 0.220676
C27   C     C_3   0.999122 0.523318 0.878127 -0.939749
H17   H     H_    0.040239 0.464640 0.816051 0.257798
H18   H     H_    0.948860 0.606368 0.849526 0.253006
H19   H     H_    0.918367 0.470844 0.923962 0.254124
O10   O     O_3   0.116806 0.884514 0.498060 -0.597725
C28   C     C_3   0.140860 0.852521 0.398979 0.092957
H20   H     H_    0.216472 0.774544 0.389435 0.177972
H21   H     H_    0.181620 0.933342 0.355543 0.137866
C29   C     C_3   0.001798 0.812195 0.361990 -0.348810
H22   H     H_    0.950655 0.741548 0.411337 0.233382
H23   H     H_    0.930568 0.893282 0.361374 0.213706
C30   C     C_3   0.023949 0.758179 0.259955 -0.920891
H24   H     H_    0.073173 0.827907 0.208940 0.256521
H25   H     H_    0.920835 0.730542 0.235350 0.259248
H26   H     H_    0.092448 0.675164 0.259164 0.261761

loop_
_geom_bond_atom_site_label_1
_geom_bond_atom_site_label_2
_ccdc_geom_bond_type
C16   H2    S    
C28   C29   S    
C10   O10   S    
C30   H24   S    
C18   O5    A    
C15   N2    A    
C26   H15   S    
C6    C7    A    
C14   H1    S    
C9    H10   S    
C9    C10   S    
Cu1   O7    S    
C25   H14   S    
C19   C20   S    
C27   H19   S    
Cu2   O8    S    
C7    C18   S    
C2    C12   S    
C29   H22   S    
C30   H26   S    
C25   H13   S    
C16   H3    S    
C21   C24   S    
Cu2   O4    S    
C7    C8    A    
C12   O4    A    
C3    C10   S    
Cu1   O1    S    
C13   C14   A    
C11   N1    A    
C17   H4    S    
Cu1   O3    S    
C13   H12   S    
C5    C6    A    
O10   C28   S    
C10   H11   S    
C18   O6    A    
C1    O1    A    
C27   H18   S    
C3    C8    A    
C12   O3    A    
C26   H16   S    
Cu1   N2    S    
C28   H20   S    
C17   H5    S    
C21   H6    S    
C19   O7    A    
Cu2   N1    S    
C13   N1    A    
C1    C4    S    
Cu2   O6    S    
C14   N2    A    
C15   C16   S    
C25   C26   S    
C29   C30   S    
Cu1   O5    S    
C1    O2    A    
C4    C5    A    
C27   H17   S    
Cu2   O2    S    
C9    H9    S    
O9    C25   S    
C26   C27   S    
C22   O9    S    
C2    C23   T    
C28   H21   S    
C20   C24   T    
C19   O8    A    
C16   C17   S    
Cu1   Cu2   S    
C21   C22   D    
C11   C15   A    
C22   C23   S    
C11   C17   S    
C3    C4    A    
C6    H8    S    
C5    H7    S    
C8    C9    S    
C30   H25   S    
C29   H23   S    
