data_mof_unit_20899.cif
_audit_creation_date              2012-12-10T17:10:22-0500
_audit_creation_method            fapswitch 2.2
_symmetry_space_group_name_H-M    P1
_symmetry_Int_Tables_number       1
_space_group_crystal_system       triclinic
_cell_length_a                    15.716656
_cell_length_b                    10.613505
_cell_length_c                    10.105946
_cell_angle_alpha                 87.675549
_cell_angle_beta                  88.928507
_cell_angle_gamma                 90.245379
_cell_volume                      1684.05774384

loop_
_atom_site_label
_atom_site_type_symbol
_atom_type_description
_atom_site_fract_x
_atom_site_fract_y
_atom_site_fract_z
_atom_type_partial_charge
C1    C     C_R   0.508552 0.262695 0.502522 0.806243
C2    C     C_2   0.485699 0.873074 0.487862 0.345933
C3    C     C_2   0.540714 0.069098 0.398076 -0.191701
C4    C     C_R   0.338269 0.495743 0.501119 0.900183
C5    C     C_2   0.538394 0.133582 0.508947 0.370648
C6    C     C_2   0.548096 0.570720 0.923481 -0.037722
C7    C     C_2   0.533976 0.588781 0.068838 0.197144
C8    C     C_R   0.493034 0.737620 0.497657 0.784802
C9    C     C_R   0.661832 0.501256 0.498911 0.903986
C10   C     C_3   0.967248 0.389502 0.554867 -0.330759
C11   C     C_3   0.025743 0.400543 0.430506 0.520866
C12   C     C_3   0.083372 0.491998 0.500692 0.042524
C13   C     C_1   0.249416 0.490273 0.502905 -0.179199
C14   C     C_1   0.750746 0.503915 0.496661 -0.189449
C15   C     C_3   0.025718 0.483120 0.625790 -0.267138
C16   C     C_3   0.991130 0.222968 0.315034 0.091506
C17   C     C_3   0.990383 0.095526 0.391343 -0.340488
C18   C     C_3   0.915186 0.014747 0.351512 -0.976303
C19   C     C_3   0.526867 0.069589 0.732466 0.144841
C20   C     C_3   0.568553 0.127900 0.851217 -0.328293
C21   C     C_3   0.519487 0.094439 0.979725 -1.013197
C22   C     C_3   0.423614 0.441098 0.906198 -0.640913
C23   C     C_3   0.974008 0.595486 0.567932 0.228643
C24   C     C_3   0.561461 0.712420 0.121180 -0.825016
C25   C     C_3   0.945385 0.532476 0.230961 -0.910187
C26   C     C_3   0.071948 0.724765 0.381465 -0.914609
C27   C     C_3   0.942845 0.705246 0.647560 -0.900746
C28   C     C_3   0.365794 0.883371 0.634853 0.033468
C29   C     C_3   0.287010 0.817007 0.584596 -0.309977
C30   C     C_3   0.235912 0.753653 0.699058 -0.958030
C31   C     C_3   0.916914 0.503159 0.497130 0.071397
C32   C     C_3   0.032813 0.604693 0.444265 0.166716
C33   C     C_3   0.975025 0.512629 0.372895 0.091390
C34   C     C_1   0.174157 0.488387 0.502448 0.012163
C35   C     C_1   0.826038 0.505105 0.496240 -0.015630
C36   C     C_2   0.545011 0.933467 0.412107 -0.195015
H1    H     H_    0.597161 0.627334 0.872451 0.133151
H2    H     H_    0.985625 0.110302 0.499375 0.221376
H3    H     H_    0.854235 0.064172 0.370282 0.271861
H4    H     H_    0.914348 0.924714 0.410930 0.268204
H5    H     H_    0.920577 0.993666 0.244920 0.263914
H6    H     H_    0.519676 0.966681 0.754303 0.151186
H7    H     H_    0.461830 0.109391 0.720051 0.133194
H8    H     H_    0.634804 0.092737 0.860388 0.230321
H9    H     H_    0.571166 0.232079 0.835761 0.243918
H10   H     H_    0.451745 0.122419 0.971360 0.264085
H11   H     H_    0.548143 0.144890 0.062177 0.266192
H12   H     H_    0.504311 0.411244 0.115457 0.168528
H13   H     H_    0.522615 0.991394 0.002840 0.270763
H14   H     H_    0.380687 0.417858 0.826121 0.244778
H15   H     H_    0.437939 0.348036 0.953460 0.177463
H16   H     H_    0.387125 0.503733 0.971795 0.195360
H17   H     H_    0.592686 0.773326 0.042417 0.191591
H18   H     H_    0.505027 0.764062 0.157475 0.250632
H19   H     H_    0.608272 0.696323 0.200811 0.259702
H20   H     H_    0.000929 0.529066 0.161815 0.255418
H21   H     H_    0.898903 0.458311 0.207018 0.231260
H22   H     H_    0.914340 0.625871 0.219200 0.250390
H23   H     H_    0.938124 0.302196 0.600078 0.161259
H24   H     H_    0.021428 0.783660 0.336073 0.255785
H25   H     H_    0.104290 0.778723 0.457746 0.244152
H26   H     H_    0.118837 0.700261 0.303290 0.249797
H27   H     H_    0.998139 0.759644 0.681816 0.242210
H28   H     H_    0.902301 0.767641 0.585094 0.241559
H29   H     H_    0.904910 0.668856 0.734727 0.244981
H30   H     H_    0.343280 0.960706 0.697327 0.151132
H31   H     H_    0.403306 0.821575 0.702472 0.154840
H32   H     H_    0.246132 0.887293 0.532083 0.223738
H33   H     H_    0.306416 0.745916 0.512893 0.209495
H34   H     H_    0.048383 0.472006 0.728979 0.168270
H35   H     H_    0.274554 0.679583 0.749906 0.279692
H36   H     H_    0.177751 0.709213 0.661056 0.267336
H37   H     H_    0.216276 0.824394 0.771549 0.259018
H38   H     H_    0.596837 0.884526 0.363640 0.120982
H39   H     H_    0.521058 0.109581 0.303205 0.139683
H40   H     H_    0.002644 0.206866 0.208263 0.162169
H41   H     H_    0.926831 0.266437 0.323174 0.130394
H42   H     H_    0.050707 0.044917 0.370978 0.231697
N1    N     N_2   0.500900 0.501330 0.852150 -0.069076
N2    N     N_2   0.500930 0.501360 0.147810 -0.191579
O1    O     O_R   0.499990 0.319060 0.613040 -0.607839
O2    O     O_3   0.581186 0.086018 0.619742 -0.650303
O3    O     O_3   0.413276 0.939778 0.527776 -0.669447
O4    O     O_R   0.500010 0.319100 0.386900 -0.638629
O5    O     O_R   0.376760 0.499970 0.613050 -0.623299
O6    O     O_R   0.376790 0.500010 0.386910 -0.591215
O7    O     O_R   0.499990 0.680900 0.613100 -0.623998
O8    O     O_R   0.500010 0.680940 0.386960 -0.623600
O9    O     O_R   0.623210 0.499990 0.613090 -0.605006
O10   O     O_R   0.623240 0.500030 0.386950 -0.613226
O11   O     O_3   0.058280 0.299200 0.359015 -0.638018
Zn1   Zn    Zn3+2 0.499980 0.499970 0.650990 0.937329
Zn2   Zn    Zn3+2 0.500020 0.500030 0.349010 0.938349

loop_
_geom_bond_atom_site_label_1
_geom_bond_atom_site_label_2
_ccdc_geom_bond_type
C26   C32   S    
C19   C20   S    
C25   H20   S    
C9    C14   S    
C21   H13   S    
C30   H35   S    
C24   H19   S    
C1    C5    S    
C28   C29   S    
C26   H25   S    
C22   N1    S    
C10   C15   S    
C4    O6    A    
C24   H18   S    
C7    C24   S    
C16   H41   S    
C17   H2    S    
C4    C13   S    
C18   H4    S    
O1    Zn1   S    
C10   C31   S    
C16   C17   S    
C31   C33   S    
C23   C27   S    
C19   O2    S    
C3    H39   S    
C20   H9    S    
C19   H6    S    
C22   H14   S    
C15   C23   S    
O7    Zn1   S    
C12   C32   S    
C28   O3    S    
C2    O3    S    
C25   H21   S    
C20   H8    S    
O5    Zn1   S    
C19   H7    S    
C29   H33   S    
C11   C33   S    
C28   H31   S    
C27   H28   S    
C18   H5    S    
C9    O9    A    
C14   C35   T    
C30   H37   S    
C4    O5    A    
C24   H17   S    
C1    O4    A    
C23   C31   S    
C28   H30   S    
C18   H3    S    
C29   C30   S    
C27   H29   S    
O6    Zn2   S    
C29   H32   S    
C12   C15   S    
C17   C18   S    
C6    H1    S    
O9    Zn1   S    
N1    Zn1   S    
C27   H27   S    
C31   C35   S    
C25   H22   S    
C12   C34   S    
O10   Zn2   S    
C22   H16   S    
C21   H10   S    
C2    C36   D    
C15   H34   S    
O8    Zn2   S    
C36   H38   S    
C16   H40   S    
C2    C8    S    
C3    C5    D    
C9    O10   A    
C30   H36   S    
C11   C12   S    
C6    C7    S    
C8    O7    A    
C23   C32   S    
H12   N2    S    
C10   H23   S    
C26   H26   S    
C13   C34   T    
C32   C33   S    
C5    O2    S    
C6    N1    D    
C26   H24   S    
C3    C36   S    
C17   H42   S    
O4    Zn2   S    
C10   C11   S    
C11   O11   S    
C20   C21   S    
C16   O11   S    
C7    N2    D    
C8    O8    A    
N2    Zn2   S    
C1    O1    A    
C25   C33   S    
C22   H15   S    
C21   H11   S    
