data_mof_unit_42991.cif
_audit_creation_date              2013-03-05T15:56:49-0500
_audit_creation_method            fapswitch 2.2
_symmetry_space_group_name_H-M    P1
_symmetry_Int_Tables_number       1
_space_group_crystal_system       triclinic
_cell_length_a                    20.595719
_cell_length_b                    22.100111
_cell_length_c                    13.948593
_cell_angle_alpha                 89.941888
_cell_angle_beta                  87.631927
_cell_angle_gamma                 89.716973
_cell_volume                      6343.44723732

loop_
_atom_site_label
_atom_site_type_symbol
_atom_site_description
_atom_site_fract_x
_atom_site_fract_y
_atom_site_fract_z
_atom_type_partial_charge
O1    O     O_R   0.064880 0.435140 0.582280 -0.562885
O2    O     O_R   0.935120 0.564860 0.417720 -0.557550
O3    O     O_R   0.935120 0.564860 0.582280 -0.584437
O4    O     O_R   0.064880 0.435140 0.417720 -0.551236
O5    O     O_R   0.935120 0.435140 0.417720 -0.554126
O6    O     O_R   0.064880 0.564860 0.582280 -0.558451
O7    O     O_R   0.064880 0.564860 0.417720 -0.591120
O8    O     O_R   0.935120 0.435140 0.582280 -0.548104
O9    O     O_R   0.564880 0.935140 0.582280 -0.554779
O10   O     O_R   0.435120 0.064860 0.417720 -0.556531
O11   O     O_R   0.435120 0.064860 0.582280 -0.584248
O12   O     O_R   0.564880 0.935140 0.417720 -0.552680
O13   O     O_R   0.435120 0.935140 0.417720 -0.560079
O14   O     O_R   0.564880 0.064860 0.582280 -0.560994
O15   O     O_R   0.564880 0.064860 0.417720 -0.587468
O16   O     O_R   0.435120 0.935140 0.582280 -0.543496
C1    C     C_R   0.086131 0.415252 0.499234 0.835623
C2    C     C_R   0.916360 0.587454 0.501212 0.825186
C3    C     C_R   0.913141 0.416015 0.500892 0.835444
C4    C     C_R   0.084255 0.586861 0.498826 0.819055
C5    C     C_R   0.588114 0.916769 0.498104 0.823249
C6    C     C_R   0.417742 0.088302 0.501020 0.819301
C7    C     C_R   0.412537 0.916437 0.501179 0.837967
C8    C     C_R   0.583731 0.087569 0.498593 0.811227
Cu1   Cu    Cu3+1 1.000000 0.500000 0.597420 0.982846
Cu2   Cu    Cu3+1 0.000000 0.500000 0.402580 0.981736
Cu3   Cu    Cu3+1 0.500000 0.000000 0.597420 0.990414
Cu4   Cu    Cu3+1 0.500000 0.000000 0.402580 0.984064
C9    C     C_R   0.124505 0.685341 0.565753 0.078182
C10   C     C_R   0.876819 0.313925 0.455068 0.092319
C11   C     C_R   0.887322 0.693749 0.451074 0.078305
C12   C     C_R   0.128432 0.315808 0.549897 0.055338
C13   C     C_R   0.624279 0.186778 0.565306 0.082605
C14   C     C_R   0.378647 0.811455 0.467152 0.104278
C15   C     C_R   0.389611 0.194362 0.446302 0.113006
C16   C     C_R   0.628386 0.812608 0.482263 0.048213
C17   C     C_R   0.129814 0.638484 0.495973 -0.090277
C18   C     C_R   0.862624 0.369447 0.500677 -0.056024
C19   C     C_R   0.872336 0.640623 0.504476 -0.074959
C20   C     C_R   0.137690 0.369514 0.497414 -0.055396
C21   C     C_R   0.628039 0.140713 0.494238 -0.091083
C22   C     C_R   0.362415 0.869122 0.502753 -0.048758
C23   C     C_R   0.374765 0.142009 0.502709 -0.073990
C24   C     C_R   0.642838 0.873558 0.492179 -0.040983
C25   C     C_R   0.179317 0.642023 0.422719 0.099537
C26   C     C_R   0.798472 0.382939 0.533517 0.101093
C27   C     C_R   0.815233 0.639736 0.563624 0.089749
C28   C     C_R   0.196710 0.380182 0.445021 0.114256
C29   C     C_R   0.672989 0.148117 0.415358 0.103386
C30   C     C_R   0.297697 0.882300 0.532334 0.094483
C31   C     C_R   0.316574 0.139770 0.558711 0.083354
C32   C     C_R   0.709097 0.891660 0.483844 0.109698
C33   C     C_R   0.231591 0.681455 0.436005 0.037845
C34   C     C_R   0.753198 0.335211 0.544310 0.026395
C35   C     C_R   0.765834 0.681562 0.545138 0.035149
C36   C     C_R   0.243230 0.332647 0.434950 0.036400
C37   C     C_R   0.726272 0.186893 0.425387 0.032694
C38   C     C_R   0.253067 0.834088 0.544696 0.029589
C39   C     C_R   0.265004 0.177477 0.534722 0.035929
C40   C     C_R   0.758443 0.845245 0.475647 0.030428
C41   C     C_R   0.220434 0.733060 0.494158 -0.060088
C42   C     C_R   0.765775 0.281567 0.490803 -0.068604
C43   C     C_R   0.784697 0.738154 0.506053 -0.064597
C44   C     C_R   0.230494 0.276865 0.481664 -0.058085
C45   C     C_R   0.718392 0.235909 0.489435 -0.059749
C46   C     C_R   0.267396 0.779041 0.495857 -0.070158
C47   C     C_R   0.279259 0.231811 0.484726 -0.065420
C48   C     C_R   0.739149 0.785318 0.501614 -0.063361
C49   C     C_R   0.162217 0.738293 0.550774 0.081942
C50   C     C_R   0.825113 0.274232 0.436542 0.084765
C51   C     C_R   0.848786 0.746597 0.469488 0.084840
C52   C     C_R   0.169358 0.266375 0.528446 0.089185
C53   C     C_R   0.661816 0.239927 0.549917 0.081888
C54   C     C_R   0.328758 0.770068 0.448240 0.084140
C55   C     C_R   0.342990 0.242846 0.445040 0.077341
C56   C     C_R   0.672812 0.771549 0.517265 0.087994
C57   C     C_R   0.293034 0.672347 0.389685 0.150892
C58   C     C_R   0.693625 0.340938 0.599105 0.178009
C59   C     C_R   0.699264 0.668774 0.564390 0.160159
C60   C     C_R   0.303041 0.339268 0.382923 0.159345
C61   C     C_R   0.784298 0.181008 0.368163 0.156511
C62   C     C_R   0.193288 0.840052 0.598373 0.180828
C63   C     C_R   0.199444 0.162167 0.557552 0.164243
C64   C     C_R   0.825285 0.854873 0.447442 0.163989
C65   C     C_R   0.830846 0.227119 0.367528 0.109397
C66   C     C_R   0.145947 0.794734 0.593986 0.108421
C67   C     C_R   0.150940 0.206456 0.551199 0.104644
C68   C     C_R   0.870551 0.806370 0.450283 0.112326
C69   C     C_R   0.338895 0.718868 0.387682 0.120889
C70   C     C_R   0.645897 0.295993 0.593923 0.106488
C71   C     C_R   0.652616 0.714261 0.551637 0.113161
C72   C     C_R   0.355247 0.300456 0.401151 0.125365
C73   C     C_R   0.058581 0.497224 0.790789 0.264424
C74   C     C_R   0.941836 0.505624 0.208749 0.283134
C75   C     C_R   0.943252 0.501646 0.800120 0.266306
C76   C     C_R   0.054540 0.484511 0.200401 0.253539
C77   C     C_R   0.558330 0.999527 0.791093 0.277537
C78   C     C_R   0.441676 0.001506 0.208813 0.286699
C79   C     C_R   0.442786 0.999210 0.799772 0.264443
C80   C     C_R   0.557608 0.997870 0.200613 0.256423
N1    N     N_R   1.000000 0.500000 0.743810 -0.214562
N2    N     N_R   1.000000 0.500000 0.256190 -0.218072
N3    N     N_R   0.500000 0.000000 0.743810 -0.214816
N4    N     N_R   0.500000 0.000000 0.256190 -0.218456
C81   C     C_R   0.943764 0.513262 0.900562 -0.054744
C82   C     C_R   0.058591 0.497887 0.100360 -0.050364
C83   C     C_R   0.059701 0.493560 0.894159 -0.061489
C84   C     C_R   0.941094 0.504318 0.105528 -0.065392
C85   C     C_R   0.442271 0.009691 0.900612 -0.056381
C86   C     C_R   0.558381 0.007164 0.099238 -0.053255
C87   C     C_R   0.559229 0.997574 0.894073 -0.062709
C88   C     C_R   0.440764 0.000112 0.105754 -0.069101
C89   C     C_R   0.001838 0.505447 0.948604 -0.025249
C90   C     C_R   0.000722 0.504849 0.051699 -0.022140
C91   C     C_R   0.500577 0.005363 0.948420 -0.025866
C92   C     C_R   0.499802 0.005282 0.051541 -0.026371
C93   C     C_R   0.885919 0.522635 0.956833 0.171819
C94   C     C_R   0.117619 0.491915 0.045443 0.161046
C95   C     C_R   0.116274 0.479233 0.946006 0.181213
C96   C     C_R   0.883225 0.504033 0.053003 0.174951
C97   C     C_R   0.384073 0.015895 0.957385 0.172664
C98   C     C_R   0.616630 0.010833 0.041717 0.165355
C99   C     C_R   0.616873 0.991474 0.946046 0.175103
C100  C     C_R   0.382838 0.996881 0.053511 0.176612
C101  C     C_3   0.084688 0.676568 0.658871 -0.779327
H1    H     H_    0.101208 0.635450 0.696116 0.269564
H2    H     H_    0.092333 0.712535 0.712175 0.237599
H3    H     H_    0.032135 0.673283 0.644762 0.224603
C102  C     C_3   0.947275 0.296229 0.434524 -0.824081
H4    H     H_    0.977257 0.311234 0.493756 0.203457
H5    H     H_    0.953684 0.246462 0.430908 0.245538
H6    H     H_    0.966643 0.318051 0.367686 0.261430
C103  C     C_3   0.939332 0.691818 0.370896 -0.806522
H7    H     H_    0.987933 0.684100 0.400493 0.216222
H8    H     H_    0.928657 0.655132 0.319828 0.264412
H9    H     H_    0.940093 0.733260 0.326321 0.243334
C104  C     C_3   0.085262 0.315769 0.641181 -0.793724
H10   H     H_    0.090810 0.274205 0.684631 0.239979
H11   H     H_    0.100103 0.353042 0.688744 0.255828
H12   H     H_    0.033414 0.321710 0.625436 0.231554
C105  C     C_3   0.584458 0.178034 0.658285 -0.779670
H13   H     H_    0.600769 0.136817 0.695408 0.268586
H14   H     H_    0.592051 0.214111 0.711442 0.237722
H15   H     H_    0.531925 0.174916 0.643956 0.226034
C106  C     C_3   0.448897 0.793272 0.458275 -0.865518
H16   H     H_    0.477842 0.816443 0.512549 0.228933
H17   H     H_    0.455082 0.744161 0.471800 0.248838
H18   H     H_    0.467560 0.805998 0.385865 0.244577
C107  C     C_3   0.453587 0.197805 0.387754 -0.836200
H19   H     H_    0.487504 0.229262 0.421184 0.218656
H20   H     H_    0.481875 0.155668 0.382484 0.242874
H21   H     H_    0.444200 0.210566 0.312641 0.250719
C108  C     C_3   0.598340 0.793461 0.390210 -0.816819
H22   H     H_    0.568924 0.751989 0.400500 0.242114
H23   H     H_    0.568836 0.829851 0.359107 0.255431
H24   H     H_    0.637651 0.783064 0.335631 0.254319
C109  C     C_3   0.171780 0.611859 0.326214 -0.774460
H25   H     H_    0.207605 0.628353 0.270835 0.240316
H26   H     H_    0.176256 0.562082 0.332809 0.249923
H27   H     H_    0.123946 0.624046 0.297588 0.236137
C110  C     C_3   0.774970 0.447773 0.530922 -0.731414
H28   H     H_    0.725869 0.450161 0.501029 0.261999
H29   H     H_    0.773405 0.467488 0.602959 0.271788
H30   H     H_    0.806787 0.476744 0.484655 0.226753
C111  C     C_3   0.813030 0.604294 0.655792 -0.770823
H31   H     H_    0.856597 0.615273 0.696466 0.229653
H32   H     H_    0.770667 0.616558 0.703660 0.249231
H33   H     H_    0.812400 0.555609 0.640029 0.263301
C112  C     C_3   0.214907 0.445335 0.422654 -0.728957
H34   H     H_    0.267299 0.453127 0.433132 0.261818
H35   H     H_    0.202248 0.457079 0.348546 0.261477
H36   H     H_    0.189551 0.477725 0.472295 0.215302
C113  C     C_3   0.656550 0.127167 0.316283 -0.778246
H37   H     H_    0.685541 0.150870 0.259005 0.233986
H38   H     H_    0.665060 0.077960 0.310594 0.275802
H39   H     H_    0.605290 0.138588 0.301693 0.233781
C114  C     C_3   0.273856 0.946821 0.528234 -0.730907
H40   H     H_    0.224017 0.948418 0.500865 0.265399
H41   H     H_    0.274462 0.967911 0.599347 0.273137
H42   H     H_    0.304463 0.974868 0.478997 0.229242
C115  C     C_3   0.314360 0.106471 0.653397 -0.768916
H43   H     H_    0.357166 0.119074 0.694764 0.229983
H44   H     H_    0.271383 0.119159 0.699735 0.247047
H45   H     H_    0.314622 0.057256 0.640954 0.264104
C116  C     C_3   0.724787 0.958356 0.486615 -0.713965
H46   H     H_    0.765255 0.966630 0.535034 0.257726
H47   H     H_    0.735966 0.975511 0.413372 0.277670
H48   H     H_    0.683424 0.986365 0.513452 0.220003
I1    I     I_    0.326524 0.583665 0.346434 -0.380662
I2    I     I_    0.676339 0.407663 0.709315 -0.320924
I3    I     I_    0.665309 0.577839 0.586941 -0.369960
I4    I     I_    0.313398 0.393794 0.255399 -0.350414
I5    I     I_    0.811160 0.097877 0.296405 -0.350653
I6    I     I_    0.176398 0.907513 0.707655 -0.319439
I7    I     I_    0.169872 0.070440 0.583395 -0.375384
I8    I     I_    0.862839 0.935935 0.380103 -0.314103
C117  C     C_3   0.878414 0.230672 0.281905 -0.769826
H49   H     H_    0.854560 0.216413 0.215664 0.246793
H50   H     H_    0.894033 0.277793 0.267133 0.237836
H51   H     H_    0.921025 0.200790 0.292271 0.255523
C118  C     C_3   0.076398 0.811605 0.622550 -0.810962
H52   H     H_    0.063891 0.855779 0.589824 0.255537
H53   H     H_    0.041062 0.778796 0.596050 0.226859
H54   H     H_    0.069815 0.815289 0.701704 0.256913
C119  C     C_3   0.080054 0.187884 0.557195 -0.772462
H55   H     H_    0.071636 0.151128 0.505018 0.261244
H56   H     H_    0.066327 0.171978 0.630789 0.251806
H57   H     H_    0.046820 0.224852 0.537369 0.230649
C120  C     C_3   0.942426 0.821069 0.447765 -0.806994
H58   H     H_    0.951354 0.859361 0.496951 0.252931
H59   H     H_    0.972142 0.783173 0.473733 0.227472
H60   H     H_    0.959839 0.833374 0.373966 0.257895
C121  C     C_3   0.391311 0.717407 0.308283 -0.785730
H61   H     H_    0.374236 0.693017 0.244547 0.251165
H62   H     H_    0.402389 0.763680 0.281757 0.230822
H63   H     H_    0.435694 0.694252 0.332348 0.250115
C122  C     C_3   0.575909 0.313240 0.619316 -0.805964
H64   H     H_    0.564935 0.358299 0.588334 0.254088
H65   H     H_    0.540912 0.281589 0.588055 0.225491
H66   H     H_    0.567206 0.315410 0.698302 0.256046
C123  C     C_3   0.582014 0.702123 0.579514 -0.784760
H67   H     H_    0.578144 0.682352 0.652726 0.256783
H68   H     H_    0.552152 0.743945 0.582308 0.228150
H69   H     H_    0.561049 0.670301 0.527737 0.252671
C124  C     C_3   0.422331 0.327799 0.389014 -0.784233
H70   H     H_    0.419970 0.377925 0.384420 0.257878
H71   H     H_    0.450389 0.319086 0.453817 0.221486
H72   H     H_    0.448060 0.311782 0.322423 0.249114
I9    I     I_    0.150720 0.507066 0.712667 -0.383818
I10   I     I_    0.849618 0.517853 0.285830 -0.376914
I11   I     I_    0.859934 0.453674 0.757834 -0.359571
I12   I     I_    0.099685 0.398501 0.225012 -0.354967
I13   I     I_    0.650290 0.009435 0.714221 -0.401010
I14   I     I_    0.349830 0.013862 0.286085 -0.358761
I15   I     I_    0.359872 0.951006 0.755585 -0.355090
I16   I     I_    0.643871 0.955446 0.250869 -0.384001
C125  C     C_3   0.827491 0.555285 0.919444 -0.797173
H73   H     H_    0.839018 0.576492 0.849059 0.232016
H74   H     H_    0.785750 0.524150 0.913444 0.268256
H75   H     H_    0.812820 0.592364 0.969595 0.234420
C126  C     C_3   0.182629 0.499003 0.091296 -0.771505
H76   H     H_    0.177080 0.517060 0.165367 0.233297
H77   H     H_    0.208976 0.455187 0.093734 0.270410
H78   H     H_    0.212842 0.531760 0.048990 0.239588
C127  C     C_3   0.168212 0.436291 0.906411 -0.772617
H79   H     H_    0.179028 0.401069 0.960393 0.240524
H80   H     H_    0.151364 0.410341 0.844213 0.236328
H81   H     H_    0.213731 0.461146 0.887887 0.257943
C128  C     C_3   0.824557 0.466314 0.082377 -0.765266
H82   H     H_    0.808343 0.439469 0.020463 0.242817
H83   H     H_    0.836454 0.432158 0.137399 0.243304
H84   H     H_    0.783427 0.495809 0.107072 0.256182
C129  C     C_3   0.324331 0.047317 0.921611 -0.786837
H85   H     H_    0.308848 0.083528 0.972886 0.235900
H86   H     H_    0.334496 0.069546 0.851392 0.233771
H87   H     H_    0.283572 0.015043 0.915750 0.267863
C130  C     C_3   0.676745 0.042690 0.073609 -0.773139
H88   H     H_    0.692321 0.076752 0.018839 0.234728
H89   H     H_    0.666890 0.067817 0.141122 0.240184
H90   H     H_    0.717306 0.010114 0.082051 0.269300
C131  C     C_3   0.672727 0.950386 0.914812 -0.774899
H91   H     H_    0.686874 0.921346 0.975717 0.238177
H92   H     H_    0.658593 0.918518 0.857981 0.245463
H93   H     H_    0.715816 0.977421 0.891397 0.257462
C132  C     C_3   0.325510 0.957965 0.084540 -0.772394
H94   H     H_    0.310220 0.929774 0.023561 0.242275
H95   H     H_    0.338537 0.925134 0.140921 0.240872
H96   H     H_    0.283475 0.986640 0.108282 0.258039

loop_
_geom_bond_atom_site_label_1
_geom_bond_atom_site_label_2
_geom_bond_distance
_ccdc_geom_bond_type
C79   N3    1.386480 A    
C80   C86   1.428129 A    
C109  H25   1.108574 S    
C8    C21   1.490552 S    
C9    C101  1.519923 S    
O5    Cu2   1.969729 S    
O2    C2    1.310333 A    
C118  H53   1.104547 S    
C112  H34   1.109182 S    
C84   C96   1.424620 A    
C63   C67   1.400458 A    
C14   C22   1.402118 A    
C88   C92   1.410163 A    
C11   C103  1.516795 S    
Cu1   N1    2.041935 S    
C124  H72   1.107692 S    
C105  H14   1.105412 S    
C29   C113  1.510063 S    
C110  H28   1.110660 S    
C116  H46   1.110180 S    
C45   C53   1.412528 A    
C12   C52   1.401512 A    
C41   C49   1.412533 A    
C113  H37   1.109983 S    
O10   C6    1.308271 A    
C122  H66   1.109937 S    
C58   I2    2.149117 S    
C104  H11   1.110176 S    
C74   C84   1.440825 A    
C128  H82   1.111833 S    
C111  H31   1.109226 S    
C7    C22   1.472499 S    
C32   C40   1.441704 A    
C82   C90   1.403461 A    
C13   C53   1.420636 A    
C54   C69   1.422139 A    
C81   C89   1.404804 A    
C75   I11   2.125882 S    
C53   C70   1.414375 A    
C88   C100  1.425562 A    
C123  H69   1.110144 S    
C76   N2    1.381671 A    
C35   C59   1.415997 A    
C38   C62   1.419931 A    
C129  H85   1.110604 S    
C27   C111  1.503957 S    
C14   C106  1.499920 S    
C116  H47   1.105043 S    
O6    Cu1   1.969726 S    
O10   Cu4   1.960410 S    
C91   C92   1.437817 A    
C46   C54   1.416370 A    
C115  H43   1.110215 S    
C100  C132  1.512647 S    
C80   N4    1.390845 A    
C120  H60   1.110005 S    
C29   C37   1.407286 A    
O13   C7    1.303291 A    
O3    C2    1.307806 A    
C20   C28   1.412915 A    
C126  H76   1.109245 S    
C118  H52   1.110906 S    
O14   C8    1.314736 A    
C117  H50   1.108053 S    
C94   C95   1.416747 A    
C67   C119  1.517468 S    
C97   C100  1.403989 A    
C16   C56   1.388085 A    
C39   C47   1.413945 A    
C89   C90   1.437312 A    
C33   C41   1.412567 A    
C41   C46   1.407240 A    
C38   C46   1.418686 A    
C83   C89   1.410140 A    
C11   C19   1.418238 A    
C70   C122  1.516948 S    
C26   C110  1.511004 S    
C35   C43   1.413604 A    
C101  H3    1.110824 S    
C36   C44   1.414424 A    
O13   Cu4   1.969729 S    
C126  H77   1.108853 S    
O11   Cu3   1.971958 S    
O14   Cu3   1.969726 S    
C108  H23   1.104760 S    
C15   C23   1.425832 A    
C132  H94   1.111733 S    
C127  H81   1.110027 S    
C59   C71   1.403373 A    
C94   C126  1.516357 S    
C102  H6    1.109551 S    
C24   C32   1.424098 A    
O16   Cu3   1.981842 S    
C76   I12   2.145484 S    
C27   C35   1.402835 A    
C93   C125  1.511036 S    
C109  H26   1.107547 S    
C59   I3    2.149714 S    
C125  H73   1.104905 S    
C82   C94   1.415577 A    
O1    Cu1   1.960410 S    
O8    Cu1   1.981842 S    
C60   I4    2.151394 S    
C42   C50   1.419347 A    
C81   C93   1.413832 A    
C117  H49   1.110875 S    
C105  H13   1.105051 S    
C77   C87   1.437912 A    
C62   I6    2.150135 S    
C21   C29   1.418230 A    
C10   C50   1.415192 A    
C16   C108  1.509980 S    
C106  H16   1.109883 S    
C9    C49   1.418258 A    
C98   C99   1.401592 A    
C115  H44   1.109286 S    
C104  H12   1.106218 S    
O4    Cu2   1.971958 S    
C128  H83   1.109688 S    
O8    C3    1.310602 A    
C78   C88   1.438794 A    
C106  H17   1.109053 S    
C87   C99   1.422178 A    
C85   C97   1.415190 A    
C44   C47   1.412650 A    
O3    Cu1   1.971958 S    
C30   C114  1.507595 S    
C25   C109  1.516779 S    
C96   C128  1.513643 S    
C95   C127  1.513978 S    
C93   C96   1.401599 A    
C73   N1    1.397627 A    
C131  H92   1.109665 S    
C77   I13   2.149560 S    
C116  H48   1.103603 S    
C110  H29   1.094807 S    
C34   C42   1.418607 A    
C114  H41   1.096972 S    
Cu1   Cu2   2.717742 S    
C119  H55   1.110245 S    
C19   C27   1.408619 A    
C61   I5    2.152019 S    
O12   C5    1.300966 A    
C58   C70   1.404918 A    
C51   C68   1.418767 A    
C130  H89   1.104780 S    
C1    C20   1.461932 S    
C30   C38   1.416369 A    
C60   C72   1.403406 A    
C117  H51   1.109851 S    
C33   C57   1.410510 A    
C2    C19   1.480229 S    
C123  H67   1.110340 S    
C39   C63   1.416999 A    
C3    C18   1.467159 S    
C103  H9    1.106273 S    
C5    C24   1.473403 S    
C79   I15   2.130079 S    
Cu4   N4    2.041935 S    
C98   C130  1.510382 S    
C129  H86   1.107978 S    
C6    C23   1.476764 S    
C78   I14   2.154423 S    
C121  H61   1.110535 S    
C114  H42   1.104750 S    
C15   C55   1.435813 A    
O9    Cu3   1.960410 S    
C26   C34   1.415098 A    
C13   C105  1.518268 S    
C120  H58   1.110756 S    
O2    Cu2   1.960410 S    
C48   C56   1.409327 A    
C108  H24   1.111512 S    
C52   C67   1.411495 A    
C132  H95   1.109627 S    
C66   C118  1.515711 S    
C40   C48   1.426701 A    
C77   N3    1.394149 A    
C113  H38   1.103083 S    
C55   C72   1.431204 A    
C22   C30   1.408082 A    
O5    C3    1.298828 A    
O4    C1    1.309862 A    
C65   C117  1.515333 S    
O15   C8    1.309351 A    
C14   C54   1.412124 A    
C72   C124  1.513753 S    
O7    C4    1.309914 A    
C111  H33   1.098631 S    
C68   C120  1.516096 S    
C127  H80   1.108981 S    
C103  H7    1.110756 S    
C118  H54   1.109839 S    
C37   C61   1.414963 A    
C107  H21   1.109156 S    
C47   C55   1.425343 A    
C32   C116  1.511431 S    
C17   C25   1.415697 A    
O9    C5    1.313404 A    
C86   C92   1.402436 A    
C130  H88   1.110926 S    
C110  H30   1.106446 S    
C106  H18   1.102449 S    
C74   I10   2.159429 S    
C69   C121  1.514579 S    
C102  H4    1.103920 S    
C112  H35   1.106770 S    
C119  H57   1.105493 S    
C73   I9    2.160696 S    
C73   C83   1.445190 A    
C28   C36   1.421462 A    
C76   C82   1.425263 A    
C43   C48   1.401903 A    
C120  H59   1.104440 S    
C128  H84   1.109967 S    
C115  H45   1.101531 S    
C42   C45   1.407904 A    
C124  H70   1.110528 S    
C57   C69   1.399047 A    
C16   C24   1.389198 A    
C64   C68   1.418751 A    
C37   C45   1.409303 A    
C84   C90   1.412798 A    
C31   C115  1.510417 S    
C36   C60   1.411809 A    
C71   C123  1.514753 S    
C131  H93   1.110014 S    
C113  H39   1.111177 S    
C97   C129  1.512220 S    
C121  H63   1.109280 S    
C105  H15   1.110843 S    
C109  H27   1.110052 S    
O16   C7    1.308904 A    
C10   C102  1.516906 S    
O6    C4    1.308848 A    
C104  H10   1.108005 S    
O11   C6    1.308330 A    
O1    C1    1.297619 A    
C83   C95   1.430519 A    
C99   C131  1.512190 S    
C126  H78   1.110310 S    
C57   I1    2.153016 S    
C130  H90   1.109972 S    
C129  H87   1.109859 S    
C125  H74   1.109707 S    
C122  H64   1.111064 S    
C121  H62   1.108734 S    
C13   C21   1.421259 A    
C12   C104  1.522578 S    
C123  H68   1.107483 S    
C62   C66   1.404354 A    
C107  H19   1.105022 S    
Cu2   N2    2.041935 S    
C12   C20   1.403539 A    
C4    C17   1.480200 S    
C40   C64   1.432895 A    
C23   C31   1.404325 A    
O15   Cu4   1.981839 S    
C101  H1    1.105459 S    
O7    Cu2   1.981839 S    
C64   I8    2.154096 S    
C78   N4    1.394969 A    
Cu3   N3    2.041935 S    
C124  H71   1.108959 S    
C34   C58   1.423633 A    
C75   C81   1.425092 A    
C50   C65   1.419918 A    
C44   C52   1.414086 A    
C63   I7    2.145435 S    
C122  H65   1.109304 S    
C132  H96   1.109998 S    
C86   C98   1.418044 A    
C18   C26   1.410960 A    
C80   I16   2.147553 S    
C85   C91   1.400291 A    
C56   C71   1.411849 A    
C25   C33   1.406750 A    
C28   C112  1.518505 S    
C107  H20   1.096959 S    
C31   C39   1.398063 A    
C74   N2    1.397233 A    
C111  H32   1.109245 S    
C114  H40   1.110230 S    
C125  H75   1.110584 S    
C9    C17   1.422613 A    
Cu3   Cu4   2.717742 S    
C101  H2    1.105235 S    
C103  H8    1.108584 S    
C131  H91   1.111755 S    
C87   C91   1.409267 A    
C112  H36   1.109947 S    
C15   C107  1.523418 S    
C10   C18   1.406595 A    
O12   Cu4   1.971958 S    
C108  H22   1.107115 S    
C127  H79   1.110611 S    
C119  H56   1.110633 S    
C43   C51   1.408496 A    
C61   C65   1.402337 A    
C49   C66   1.418516 A    
C75   N1    1.381322 A    
C11   C51   1.426399 A    
C102  H5    1.108052 S    
C79   C85   1.425359 A    
