data_mof_unit_45790.cif
_audit_creation_date              2012-12-11T16:07:28-0500
_audit_creation_method            fapswitch 2.2
_symmetry_space_group_name_H-M    P1
_symmetry_Int_Tables_number       1
_space_group_crystal_system       orthorhombic
_cell_length_a                    17.108349
_cell_length_b                    17.108351
_cell_length_c                    17.436574
_cell_angle_alpha                 90.0
_cell_angle_beta                  90.0
_cell_angle_gamma                 90.0
_cell_volume                      5103.6091815

loop_
_atom_site_label
_atom_site_type_symbol
_atom_type_description
_atom_site_fract_x
_atom_site_fract_y
_atom_site_fract_z
_atom_type_partial_charge
C1    C     C_R   0.389254 0.701946 0.587611 0.650090
C2    C     C_R   0.586707 0.320958 0.360632 0.552925
C3    C     C_R   0.679042 0.586707 0.639368 0.552925
C4    C     C_R   0.298054 0.389254 0.412389 0.650090
C5    C     C_R   0.610746 0.298054 0.587611 0.650090
C6    C     C_R   0.413293 0.679042 0.360632 0.552925
C7    C     C_R   0.320958 0.413293 0.639368 0.552925
C8    C     C_R   0.701946 0.610746 0.412389 0.650090
C9    C     C_R   0.389254 0.298054 0.412389 0.650091
C10   C     C_R   0.586707 0.679042 0.639368 0.552925
C11   C     C_R   0.679042 0.413293 0.360632 0.552925
C12   C     C_R   0.298054 0.610746 0.587611 0.650090
C13   C     C_R   0.610746 0.701946 0.412389 0.650090
C14   C     C_R   0.413293 0.320958 0.639368 0.552925
C15   C     C_R   0.320958 0.586707 0.360632 0.552925
C16   C     C_R   0.701946 0.389254 0.587611 0.650090
C17   C     C_R   0.889254 0.201946 0.087611 0.650090
C18   C     C_R   0.086707 0.820958 0.860632 0.552925
C19   C     C_R   0.179042 0.086707 0.139368 0.552925
C20   C     C_R   0.798054 0.889254 0.912389 0.650090
C21   C     C_R   0.110746 0.798054 0.087611 0.650091
C22   C     C_R   0.913293 0.179042 0.860632 0.552925
C23   C     C_R   0.820958 0.913292 0.139368 0.552925
C24   C     C_R   0.201946 0.110746 0.912389 0.650090
C25   C     C_R   0.889254 0.798054 0.912389 0.650090
C26   C     C_R   0.086707 0.179042 0.139368 0.552925
C27   C     C_R   0.179042 0.913293 0.860632 0.552925
C28   C     C_R   0.798054 0.110746 0.087611 0.650090
C29   C     C_R   0.110746 0.201946 0.912389 0.650090
C30   C     C_R   0.913292 0.820958 0.139368 0.552925
C31   C     C_R   0.820958 0.086707 0.860632 0.552925
C32   C     C_R   0.201946 0.889254 0.087611 0.650090
C33   C     C_3   0.261650 0.261650 0.353172 0.003978
C34   C     C_3   0.683851 0.683851 0.748744 0.041576
C35   C     C_3   0.316149 0.683851 0.251256 0.041576
C36   C     C_3   0.738350 0.261650 0.646828 0.003978
C37   C     C_3   0.738350 0.738350 0.353172 0.003978
C38   C     C_3   0.316149 0.316149 0.748744 0.041576
C39   C     C_3   0.683851 0.316149 0.251256 0.041576
C40   C     C_3   0.261650 0.738350 0.646828 0.003978
C41   C     C_3   0.761650 0.761650 0.853172 0.003978
C42   C     C_3   0.183851 0.183851 0.248743 0.041576
C43   C     C_3   0.816149 0.183851 0.751256 0.041576
C44   C     C_3   0.238350 0.761650 0.146828 0.003978
C45   C     C_3   0.238350 0.238350 0.853172 0.003978
C46   C     C_3   0.816149 0.816149 0.248743 0.041576
C47   C     C_3   0.183851 0.816149 0.751256 0.041575
C48   C     C_3   0.761650 0.238350 0.146828 0.003978
C49   C     C_R   0.309894 0.690106 0.596210 -0.367656
C50   C     C_R   0.648384 0.351616 0.318890 -0.228527
C51   C     C_R   0.648384 0.648384 0.681110 -0.228527
C52   C     C_R   0.309894 0.309894 0.403790 -0.367656
C53   C     C_R   0.690106 0.309894 0.596210 -0.367656
C54   C     C_R   0.351616 0.648384 0.318890 -0.228527
C55   C     C_R   0.351616 0.351616 0.681110 -0.228527
C56   C     C_R   0.690106 0.690106 0.403790 -0.367656
C57   C     C_R   0.809894 0.190106 0.096210 -0.367656
C58   C     C_R   0.148384 0.851616 0.818890 -0.228527
C59   C     C_R   0.148384 0.148384 0.181110 -0.228527
C60   C     C_R   0.809894 0.809894 0.903790 -0.367656
C61   C     C_R   0.190106 0.809894 0.096210 -0.367656
C62   C     C_R   0.851616 0.148384 0.818890 -0.228527
C63   C     C_R   0.851616 0.851616 0.181110 -0.228527
C64   C     C_R   0.190106 0.190106 0.903790 -0.367656
C65   C     C_3   0.736586 0.645406 0.809400 -0.349154
C66   C     C_3   0.208436 0.299527 0.292493 -0.370941
C67   C     C_3   0.700473 0.208436 0.707507 -0.370940
C68   C     C_3   0.354594 0.736586 0.190600 -0.349154
C69   C     C_3   0.263414 0.354594 0.809400 -0.349154
C70   C     C_3   0.791564 0.700473 0.292493 -0.370941
C71   C     C_3   0.299527 0.791564 0.707507 -0.370941
C72   C     C_3   0.645406 0.263414 0.190600 -0.349154
C73   C     C_3   0.736585 0.354594 0.190600 -0.349154
C74   C     C_3   0.208436 0.700473 0.707507 -0.370941
C75   C     C_3   0.700473 0.791564 0.292493 -0.370941
C76   C     C_3   0.354594 0.263414 0.809400 -0.349154
C77   C     C_3   0.263414 0.645406 0.190600 -0.349154
C78   C     C_3   0.791564 0.299527 0.707507 -0.370941
C79   C     C_3   0.299527 0.208436 0.292493 -0.370941
C80   C     C_3   0.645406 0.736586 0.809400 -0.349154
C81   C     C_3   0.236585 0.145406 0.309400 -0.349154
C82   C     C_3   0.708436 0.799527 0.792493 -0.370941
C83   C     C_3   0.200473 0.708436 0.207507 -0.370941
C84   C     C_3   0.854594 0.236585 0.690600 -0.349154
C85   C     C_3   0.763414 0.854594 0.309400 -0.349154
C86   C     C_3   0.291564 0.200473 0.792493 -0.370941
C87   C     C_3   0.799527 0.291564 0.207507 -0.370941
C88   C     C_3   0.145406 0.763414 0.690600 -0.349154
C89   C     C_3   0.236586 0.854594 0.690600 -0.349154
C90   C     C_3   0.708436 0.200473 0.207507 -0.370940
C91   C     C_3   0.200473 0.291564 0.792493 -0.370941
C92   C     C_3   0.854594 0.763414 0.309400 -0.349154
C93   C     C_3   0.763414 0.145406 0.690600 -0.349154
C94   C     C_3   0.291564 0.799527 0.207507 -0.370940
C95   C     C_3   0.799527 0.708436 0.792493 -0.370941
C96   C     C_3   0.145406 0.236585 0.309400 -0.349155
C97   C     C_3   0.199748 0.199748 0.370136 0.856088
C98   C     C_3   0.745962 0.745962 0.732941 0.815727
C99   C     C_3   0.254038 0.745962 0.267059 0.815727
C100  C     C_3   0.800252 0.199748 0.629864 0.856089
C101  C     C_3   0.800252 0.800252 0.370136 0.856088
C102  C     C_3   0.254038 0.254038 0.732941 0.815727
C103  C     C_3   0.745962 0.254038 0.267059 0.815727
C104  C     C_3   0.199748 0.800252 0.629864 0.856089
C105  C     C_3   0.699748 0.699748 0.870136 0.856088
C106  C     C_3   0.245962 0.245962 0.232941 0.815727
C107  C     C_3   0.754038 0.245962 0.767059 0.815727
C108  C     C_3   0.300252 0.699748 0.129863 0.856089
C109  C     C_3   0.300252 0.300252 0.870136 0.856088
C110  C     C_3   0.754038 0.754038 0.232941 0.815727
C111  C     C_3   0.245962 0.754038 0.767059 0.815727
C112  C     C_3   0.699748 0.300252 0.129863 0.856089
H1    H     H_    0.745621 0.581770 0.817920 0.198594
H2    H     H_    0.197747 0.363027 0.284473 0.193677
H3    H     H_    0.636973 0.197747 0.715527 0.193677
H4    H     H_    0.418230 0.745621 0.182080 0.198594
H5    H     H_    0.254379 0.418230 0.817920 0.198594
H6    H     H_    0.802253 0.636973 0.284473 0.193677
H7    H     H_    0.363027 0.802253 0.715527 0.193677
H8    H     H_    0.581770 0.254379 0.182080 0.198594
H9    H     H_    0.745621 0.418230 0.182080 0.198594
H10   H     H_    0.197747 0.636973 0.715527 0.193677
H11   H     H_    0.636973 0.802253 0.284473 0.193677
H12   H     H_    0.418230 0.254379 0.817920 0.198594
H13   H     H_    0.254379 0.581770 0.182080 0.198594
H14   H     H_    0.802253 0.363027 0.715527 0.193677
H15   H     H_    0.363027 0.197747 0.284473 0.193677
H16   H     H_    0.581770 0.745621 0.817920 0.198594
H17   H     H_    0.245621 0.081770 0.317920 0.198594
H18   H     H_    0.697747 0.863027 0.784473 0.193677
H19   H     H_    0.136973 0.697747 0.215527 0.193677
H20   H     H_    0.918230 0.245621 0.682080 0.198594
H21   H     H_    0.754379 0.918230 0.317920 0.198594
H22   H     H_    0.302253 0.136973 0.784473 0.193677
H23   H     H_    0.863027 0.302253 0.215527 0.193677
H24   H     H_    0.081770 0.754379 0.682080 0.198594
H25   H     H_    0.245621 0.918230 0.682080 0.198594
H26   H     H_    0.697747 0.136973 0.215527 0.193677
H27   H     H_    0.136973 0.302253 0.784473 0.193677
H28   H     H_    0.918230 0.754379 0.317920 0.198594
H29   H     H_    0.754379 0.081770 0.682080 0.198594
H30   H     H_    0.302253 0.863027 0.215527 0.193677
H31   H     H_    0.863027 0.697747 0.784473 0.193677
H32   H     H_    0.081770 0.245621 0.317920 0.198594
N1    N     N_R   0.424590 0.632770 0.578330 -0.130153
N2    N     N_R   0.575410 0.367230 0.421670 -0.143043
N3    N     N_R   0.632770 0.575410 0.578330 -0.143043
N4    N     N_R   0.367230 0.424590 0.421670 -0.130153
N5    N     N_R   0.575410 0.367230 0.578330 -0.130153
N6    N     N_R   0.424590 0.632770 0.421670 -0.143042
N7    N     N_R   0.367230 0.424590 0.578330 -0.143043
N8    N     N_R   0.632770 0.575410 0.421670 -0.130153
N9    N     N_R   0.424590 0.367230 0.421670 -0.130153
N10   N     N_R   0.575410 0.632770 0.578330 -0.143043
N11   N     N_R   0.632770 0.424590 0.421670 -0.143043
N12   N     N_R   0.367230 0.575410 0.578330 -0.130153
N13   N     N_R   0.575410 0.632770 0.421670 -0.130153
N14   N     N_R   0.424590 0.367230 0.578330 -0.143043
N15   N     N_R   0.367230 0.575410 0.421670 -0.143043
N16   N     N_R   0.632770 0.424590 0.578330 -0.130153
N17   N     N_R   0.924590 0.132770 0.078330 -0.130153
N18   N     N_R   0.075410 0.867230 0.921670 -0.143043
N19   N     N_R   0.132770 0.075410 0.078330 -0.143043
N20   N     N_R   0.867230 0.924590 0.921670 -0.130153
N21   N     N_R   0.075410 0.867230 0.078330 -0.130153
N22   N     N_R   0.924590 0.132770 0.921670 -0.143042
N23   N     N_R   0.867230 0.924590 0.078330 -0.143043
N24   N     N_R   0.132770 0.075410 0.921670 -0.130153
N25   N     N_R   0.924590 0.867230 0.921670 -0.130153
N26   N     N_R   0.075410 0.132770 0.078330 -0.143043
N27   N     N_R   0.132770 0.924590 0.921670 -0.143043
N28   N     N_R   0.867230 0.075410 0.078330 -0.130153
N29   N     N_R   0.075410 0.132770 0.921670 -0.130153
N30   N     N_R   0.924590 0.867230 0.078330 -0.143043
N31   N     N_R   0.867230 0.075410 0.921670 -0.143043
N32   N     N_R   0.132770 0.924590 0.078330 -0.130153
Ni1   Ni    Ni4+2 0.500000 0.631570 0.500000 0.265097
Ni2   Ni    Ni4+2 0.500000 0.368430 0.500000 0.265097
Ni3   Ni    Ni4+2 0.631570 0.500000 0.500000 0.265097
Ni4   Ni    Ni4+2 0.368430 0.500000 0.500000 0.265097
Ni5   Ni    Ni4+2 0.000000 0.131570 0.000000 0.265097
Ni6   Ni    Ni4+2 0.000000 0.868430 0.000000 0.265097
Ni7   Ni    Ni4+2 0.131570 0.000000 0.000000 0.265097
Ni8   Ni    Ni4+2 0.868430 0.000000 0.000000 0.265097
O1    O     O_3   0.426176 0.770611 0.564888 -0.596229
C113  C     C_3   0.375273 0.825273 0.530636 -0.173153
H33   H     H_    0.343903 0.859367 0.574726 0.159563
H34   H     H_    0.333954 0.797607 0.489498 0.172851
H35   H     H_    0.410954 0.868205 0.498556 0.136160
O2    O     O_3   0.534524 0.264955 0.335468 -0.590353
C114  C     C_3   0.567843 0.189346 0.339501 -0.159482
H36   H     H_    0.533391 0.152701 0.379311 0.179217
H37   H     H_    0.629861 0.187219 0.358330 0.141823
H38   H     H_    0.562932 0.160777 0.282696 0.130004
O3    O     O_3   0.735045 0.534524 0.664532 -0.590353
C115  C     C_3   0.810654 0.567843 0.660499 -0.159481
H39   H     H_    0.839223 0.562932 0.717304 0.130004
H40   H     H_    0.812781 0.629861 0.641670 0.141823
H41   H     H_    0.847299 0.533391 0.620689 0.179217
O4    O     O_3   0.229388 0.426176 0.435112 -0.596229
C116  C     C_3   0.174727 0.375273 0.469364 -0.173153
H42   H     H_    0.131795 0.410954 0.501444 0.136159
H43   H     H_    0.202393 0.333954 0.510502 0.172851
H44   H     H_    0.140633 0.343903 0.425274 0.159563
O5    O     O_3   0.573824 0.229388 0.564888 -0.596229
C117  C     C_3   0.624727 0.174727 0.530636 -0.173154
H45   H     H_    0.656097 0.140633 0.574726 0.159563
H46   H     H_    0.666045 0.202393 0.489498 0.172851
H47   H     H_    0.589046 0.131795 0.498556 0.136160
O6    O     O_3   0.465476 0.735044 0.335468 -0.590353
C118  C     C_3   0.432157 0.810654 0.339501 -0.159481
H48   H     H_    0.466609 0.847299 0.379311 0.179217
H49   H     H_    0.370139 0.812781 0.358330 0.141823
H50   H     H_    0.437067 0.839223 0.282696 0.130004
O7    O     O_3   0.264955 0.465476 0.664532 -0.590353
C119  C     C_3   0.189346 0.432157 0.660499 -0.159481
H51   H     H_    0.160777 0.437067 0.717304 0.130004
H52   H     H_    0.187219 0.370139 0.641670 0.141823
H53   H     H_    0.152701 0.466609 0.620689 0.179217
O8    O     O_3   0.770612 0.573824 0.435112 -0.596229
C120  C     C_3   0.825273 0.624727 0.469364 -0.173153
H54   H     H_    0.868205 0.589046 0.501444 0.136160
H55   H     H_    0.797607 0.666046 0.510502 0.172851
H56   H     H_    0.859367 0.656097 0.425274 0.159563
O9    O     O_3   0.426176 0.229388 0.435112 -0.596229
C121  C     C_3   0.375273 0.174727 0.469364 -0.173155
H57   H     H_    0.343903 0.140633 0.425274 0.159563
H58   H     H_    0.333954 0.202393 0.510502 0.172851
H59   H     H_    0.410954 0.131795 0.501444 0.136160
O10   O     O_3   0.534524 0.735044 0.664532 -0.590353
C122  C     C_3   0.567843 0.810654 0.660499 -0.159482
H60   H     H_    0.533391 0.847299 0.620689 0.179217
H61   H     H_    0.629861 0.812781 0.641670 0.141823
H62   H     H_    0.562932 0.839223 0.717304 0.130004
O11   O     O_3   0.735045 0.465476 0.335468 -0.590353
C123  C     C_3   0.810654 0.432157 0.339501 -0.159483
H63   H     H_    0.839223 0.437068 0.282696 0.130004
H64   H     H_    0.812781 0.370139 0.358330 0.141823
H65   H     H_    0.847299 0.466609 0.379311 0.179218
O12   O     O_3   0.229388 0.573824 0.564888 -0.596229
C124  C     C_3   0.174727 0.624727 0.530636 -0.173154
H66   H     H_    0.202393 0.666045 0.489498 0.172851
H67   H     H_    0.140633 0.656097 0.574726 0.159563
H68   H     H_    0.131795 0.589046 0.498556 0.136160
O13   O     O_3   0.573824 0.770611 0.435112 -0.596229
C125  C     C_3   0.624727 0.825273 0.469364 -0.173153
H69   H     H_    0.656097 0.859367 0.425274 0.159563
H70   H     H_    0.666046 0.797607 0.510502 0.172851
H71   H     H_    0.589046 0.868205 0.501444 0.136160
O14   O     O_3   0.465476 0.264955 0.664532 -0.590353
C126  C     C_3   0.432157 0.189346 0.660499 -0.159482
H72   H     H_    0.466609 0.152701 0.620689 0.179217
H73   H     H_    0.370139 0.187219 0.641670 0.141823
H74   H     H_    0.437068 0.160777 0.717304 0.130004
O15   O     O_3   0.264955 0.534524 0.335468 -0.590353
C127  C     C_3   0.189346 0.567843 0.339501 -0.159482
H75   H     H_    0.160777 0.562932 0.282696 0.130004
H76   H     H_    0.187219 0.629861 0.358330 0.141823
H77   H     H_    0.152701 0.533391 0.379311 0.179218
O16   O     O_3   0.770612 0.426176 0.564888 -0.596229
C128  C     C_3   0.825273 0.375273 0.530636 -0.173153
H78   H     H_    0.797607 0.333954 0.489498 0.172851
H79   H     H_    0.859367 0.343903 0.574726 0.159563
H80   H     H_    0.868205 0.410954 0.498556 0.136160
O17   O     O_3   0.926176 0.270612 0.064888 -0.596229
C129  C     C_3   0.875273 0.325273 0.030636 -0.173152
H81   H     H_    0.843903 0.359367 0.074726 0.159562
H82   H     H_    0.833954 0.297607 0.989498 0.172851
H83   H     H_    0.910954 0.368205 0.998556 0.136160
O18   O     O_3   0.034524 0.764955 0.835468 -0.590353
C130  C     C_3   0.067843 0.689346 0.839501 -0.159482
H84   H     H_    0.033391 0.652701 0.879311 0.179217
H85   H     H_    0.129861 0.687219 0.858330 0.141823
H86   H     H_    0.062932 0.660777 0.782696 0.130004
O19   O     O_3   0.235045 0.034524 0.164532 -0.590353
C131  C     C_3   0.310654 0.067843 0.160499 -0.159481
H87   H     H_    0.339223 0.062933 0.217304 0.130004
H88   H     H_    0.312781 0.129861 0.141670 0.141823
H89   H     H_    0.347299 0.033391 0.120689 0.179217
O20   O     O_3   0.729388 0.926176 0.935112 -0.596229
C132  C     C_3   0.674727 0.875273 0.969364 -0.173153
H90   H     H_    0.631795 0.910954 0.001444 0.136160
H91   H     H_    0.702393 0.833954 0.010502 0.172851
H92   H     H_    0.640633 0.843903 0.925274 0.159563
O21   O     O_3   0.073824 0.729388 0.064888 -0.596229
C133  C     C_3   0.124727 0.674727 0.030636 -0.173155
H93   H     H_    0.156097 0.640633 0.074726 0.159563
H94   H     H_    0.166046 0.702393 0.989498 0.172851
H95   H     H_    0.089046 0.631795 0.998556 0.136160
O22   O     O_3   0.965476 0.235044 0.835468 -0.590353
C134  C     C_3   0.932157 0.310654 0.839501 -0.159482
H96   H     H_    0.966609 0.347299 0.879311 0.179217
H97   H     H_    0.870139 0.312781 0.858330 0.141823
H98   H     H_    0.937068 0.339223 0.782696 0.130004
O23   O     O_3   0.764955 0.965476 0.164532 -0.590353
C135  C     C_3   0.689346 0.932157 0.160499 -0.159481
H99   H     H_    0.660777 0.937067 0.217304 0.130004
H100  H     H_    0.687219 0.870139 0.141670 0.141823
H101  H     H_    0.652701 0.966609 0.120689 0.179217
O24   O     O_3   0.270612 0.073824 0.935112 -0.596229
C136  C     C_3   0.325273 0.124727 0.969364 -0.173154
H102  H     H_    0.368205 0.089046 0.001444 0.136160
H103  H     H_    0.297607 0.166046 0.010502 0.172851
H104  H     H_    0.359367 0.156097 0.925274 0.159563
O25   O     O_3   0.926176 0.729388 0.935112 -0.596229
C137  C     C_3   0.875273 0.674727 0.969364 -0.173154
H105  H     H_    0.843903 0.640633 0.925274 0.159563
H106  H     H_    0.833954 0.702393 0.010502 0.172851
H107  H     H_    0.910954 0.631795 0.001444 0.136160
O26   O     O_3   0.034524 0.235044 0.164532 -0.590353
C138  C     C_3   0.067843 0.310654 0.160499 -0.159482
H108  H     H_    0.033391 0.347299 0.120689 0.179217
H109  H     H_    0.129861 0.312781 0.141670 0.141823
H110  H     H_    0.062933 0.339223 0.217304 0.130004
O27   O     O_3   0.235045 0.965476 0.835468 -0.590353
C139  C     C_3   0.310654 0.932157 0.839501 -0.159482
H111  H     H_    0.339223 0.937068 0.782696 0.130004
H112  H     H_    0.312781 0.870139 0.858330 0.141823
H113  H     H_    0.347299 0.966609 0.879311 0.179218
O28   O     O_3   0.729388 0.073824 0.064888 -0.596229
C140  C     C_3   0.674727 0.124727 0.030636 -0.173154
H114  H     H_    0.702393 0.166046 0.989498 0.172851
H115  H     H_    0.640633 0.156097 0.074726 0.159563
H116  H     H_    0.631795 0.089046 0.998556 0.136160
O29   O     O_3   0.073824 0.270611 0.935112 -0.596229
C141  C     C_3   0.124727 0.325273 0.969364 -0.173153
H117  H     H_    0.156097 0.359367 0.925274 0.159563
H118  H     H_    0.166046 0.297607 0.010502 0.172851
H119  H     H_    0.089046 0.368205 0.001444 0.136160
O30   O     O_3   0.965476 0.764955 0.164532 -0.590353
C142  C     C_3   0.932157 0.689346 0.160499 -0.159482
H120  H     H_    0.966609 0.652701 0.120689 0.179217
H121  H     H_    0.870139 0.687219 0.141670 0.141823
H122  H     H_    0.937067 0.660777 0.217304 0.130004
O31   O     O_3   0.764955 0.034524 0.835468 -0.590353
C143  C     C_3   0.689346 0.067843 0.839501 -0.159481
H123  H     H_    0.660777 0.062933 0.782696 0.130004
H124  H     H_    0.687219 0.129861 0.858330 0.141823
H125  H     H_    0.652701 0.033391 0.879311 0.179217
O32   O     O_3   0.270612 0.926176 0.064888 -0.596229
C144  C     C_3   0.325273 0.875273 0.030636 -0.173154
H126  H     H_    0.297607 0.833954 0.989498 0.172851
H127  H     H_    0.359367 0.843903 0.074726 0.159563
H128  H     H_    0.368205 0.910954 0.998556 0.136160
F1    F     F_    0.176956 0.176956 0.442830 -0.675234
F2    F     F_    0.770348 0.770348 0.661150 -0.715840
F3    F     F_    0.229652 0.770348 0.338850 -0.715840
F4    F     F_    0.823044 0.176956 0.557169 -0.675235
F5    F     F_    0.823044 0.823044 0.442830 -0.675234
F6    F     F_    0.229652 0.229652 0.661150 -0.715840
F7    F     F_    0.770348 0.229652 0.338850 -0.715840
F8    F     F_    0.176956 0.823044 0.557169 -0.675234
F9    F     F_    0.676956 0.676956 0.942830 -0.675234
F10   F     F_    0.270348 0.270348 0.161150 -0.715840
F11   F     F_    0.729652 0.270348 0.838850 -0.715840
F12   F     F_    0.323044 0.676956 0.057169 -0.675235
F13   F     F_    0.323044 0.323044 0.942830 -0.675234
F14   F     F_    0.729652 0.729652 0.161150 -0.715840
F15   F     F_    0.270348 0.729652 0.838850 -0.715840
F16   F     F_    0.676956 0.323044 0.057169 -0.675235

loop_
_geom_bond_atom_site_label_1
_geom_bond_atom_site_label_2
_ccdc_geom_bond_type
C72   C112  S    
C40   C71   S    
C134  H96   S    
C119  H53   S    
C7    C55   A    
C8    C56   A    
C12   C49   A    
C136  H102  S    
C132  H92   S    
C41   C105  S    
C14   N14   A    
C28   O28   S    
N27   Ni7   S    
C143  H125  S    
C24   O24   S    
C45   C109  S    
C130  H84   S    
C4    N4    A    
C127  H77   S    
C5    N5    A    
C100  F4    S    
C65   C105  S    
C36   C53   S    
C90   H26   S    
N17   N28   A    
C86   H22   S    
C38   C55   S    
C141  H117  S    
C25   C60   A    
C26   C59   A    
C37   C75   S    
C29   C64   A    
C30   C63   A    
C82   C98   S    
C31   C62   A    
C10   N10   A    
C9    C52   A    
C6    C54   A    
C10   C51   A    
C99   F3    S    
C11   O11   S    
C25   O25   S    
O30   C142  S    
N19   Ni7   S    
C114  H36   S    
C84   C100  S    
C15   C54   A    
O32   C144  S    
C117  H45   S    
C143  H123  S    
C109  F13   S    
C3    O3    S    
C139  H111  S    
C76   H12   S    
O7    C119  S    
C83   H19   S    
C105  F9    S    
C96   H32   S    
C81   H17   S    
C141  H119  S    
C137  H105  S    
C48   C87   S    
C42   C106  S    
C93   C100  S    
C68   H4    S    
N23   N30   A    
C23   N23   A    
C135  H99   S    
C73   H9    S    
C46   C110  S    
N4    N9    A    
C77   H13   S    
O24   C136  S    
C128  H79   S    
N7    N14   A    
C136  H104  S    
C79   H15   S    
N8    N13   A    
C133  H95   S    
C65   H1    S    
C2    O2    S    
C115  H39   S    
C1    O1    S    
C71   H7    S    
N14   Ni2   S    
C114  H38   S    
C133  H94   S    
N12   Ni4   S    
C113  H35   S    
C47   C111  S    
C41   C82   S    
C24   C64   A    
C122  H62   S    
C33   C97   S    
C32   O32   S    
N25   Ni6   S    
C44   C94   S    
O31   C143  S    
C22   N22   A    
N3    Ni3   S    
C12   O12   S    
C26   N26   A    
C140  H114  S    
N10   Ni1   S    
C101  F5    S    
C103  F7    S    
C113  H33   S    
C30   N30   A    
C3    N3    A    
O2    C114  S    
C16   N16   A    
C1    N1    A    
N15   Ni4   S    
C44   C83   S    
N30   Ni6   S    
O1    C113  S    
C48   C57   S    
C38   C76   S    
C33   C52   S    
C34   C51   S    
C139  H113  S    
N20   Ni8   S    
C8    N8    A    
C119  H52   S    
C128  H78   S    
C16   O16   S    
C40   C104  S    
C40   C49   S    
C10   O10   S    
C123  H63   S    
N2    Ni2   S    
C124  H66   S    
N19   N26   A    
C70   C110  S    
C34   C98   S    
C104  F8    S    
C135  H101  S    
C76   C109  S    
C127  H76   S    
C11   N11   A    
C13   C56   A    
C140  H116  S    
C14   C55   A    
C9    N9    A    
C48   C90   S    
C96   C97   S    
C116  H43   S    
O10   C122  S    
C42   C81   S    
C12   N12   A    
C115  H41   S    
C13   N13   A    
O8    C120  S    
C88   C104  S    
C18   C58   A    
C33   C66   S    
C144  H127  S    
N18   N27   A    
C94   H30   S    
O20   C132  S    
C102  F6    S    
C80   C82   S    
C126  H74   S    
C80   H16   S    
C19   C59   A    
C84   H20   S    
C68   C94   S    
O3    C115  S    
C79   C106  S    
C120  H54   S    
C72   C90   S    
N23   Ni8   S    
N24   Ni7   S    
C72   H8    S    
C19   N19   A    
C17   N17   A    
N6    Ni1   S    
C48   C112  S    
C138  H109  S    
C86   C102  S    
C18   O18   S    
C73   C112  S    
C125  H69   S    
C75   C110  S    
C77   C108  S    
C20   O20   S    
C41   C60   S    
O13   C125  S    
O16   C128  S    
C129  H83   S    
C42   C59   S    
C128  H80   S    
C44   C61   S    
C132  H91   S    
C111  F15   S    
C45   C64   S    
C123  H65   S    
C46   C63   S    
C124  H68   S    
C45   C86   S    
C89   C104  S    
C37   C101  S    
C70   H6    S    
C135  H100  S    
O12   C124  S    
C39   C73   S    
N17   Ni5   S    
N5    N16   A    
C97   F1    S    
C38   C69   S    
C4    O4    S    
C118  H50   S    
C131  H87   S    
N4    Ni4   S    
C121  H57   S    
C17   C57   A    
C67   C93   S    
C141  H118  S    
C69   C91   S    
C125  H71   S    
C130  H86   S    
C13   O13   S    
C95   H31   S    
O19   C131  S    
C112  F16   S    
C126  H72   S    
C129  H82   S    
N21   N32   A    
N22   N31   A    
C42   C96   S    
N21   Ni6   S    
C120  H56   S    
C117  H46   S    
C46   C92   S    
C20   N20   A    
C21   N21   A    
C139  H112  S    
O22   C134  S    
C73   C87   S    
C108  F12   S    
N1    N12   A    
C75   C85   S    
N2    N11   A    
C137  H106  S    
O11   C123  S    
C31   O31   S    
C20   C60   A    
C21   C61   A    
C46   C85   S    
C23   C63   A    
N29   Ni5   S    
O27   C139  S    
C37   C56   S    
C83   C99   S    
C37   C70   S    
C35   C54   S    
C23   O23   S    
N11   Ni3   S    
C98   F2    S    
C95   C98   S    
C137  H107  S    
C87   H23   S    
C88   H24   S    
C143  H124  S    
N6    N15   A    
O23   C135  S    
C3    C51   A    
C33   C79   S    
C15   O15   S    
C110  F14   S    
O14   C126  S    
C28   C57   A    
C35   C77   S    
C78   C107  S    
C142  H120  S    
C114  H37   S    
C15   N15   A    
O21   C133  S    
C118  H48   S    
C131  H89   S    
C122  H61   S    
C43   C107  S    
C136  H103  S    
C92   C101  S    
C7    N7    A    
C115  H40   S    
C74   H10   S    
C89   H25   S    
C113  H34   S    
C92   H28   S    
C76   C86   S    
C74   C111  S    
C93   H29   S    
C66   C96   S    
O26   C138  S    
C66   H2    S    
C134  H97   S    
C70   C92   S    
C27   C58   A    
C39   C103  S    
C14   O14   S    
N8    Ni3   S    
C11   C50   A    
O28   C140  S    
C18   N18   A    
N7    Ni4   S    
C41   C95   S    
C26   O26   S    
C43   C93   S    
C123  H64   S    
C29   O29   S    
O29   C141  S    
C45   C91   S    
C90   C103  S    
C6    N6    A    
C120  H55   S    
O25   C137  S    
O18   C130  S    
C74   C88   S    
C21   O21   S    
C7    O7    S    
C43   C62   S    
C85   H21   S    
N31   Ni8   S    
C107  F11   S    
N32   Ni7   S    
C138  H108  S    
C116  H42   S    
C106  F10   S    
C36   C67   S    
C31   N31   A    
O5    C117  S    
C32   N32   A    
C4    C52   A    
C75   H11   S    
C35   C68   S    
C5    C53   A    
C24   N24   A    
C32   C61   A    
N18   Ni6   S    
C133  H93   S    
C126  H73   S    
C77   C83   S    
N3    N10   A    
C67   H3    S    
C16   C53   A    
N5    Ni2   S    
C17   O17   S    
C34   C80   S    
C69   C109  S    
C19   O19   S    
O4    C116  S    
C140  H115  S    
C71   C111  S    
C39   C72   S    
C82   H18   S    
C2    C50   A    
O17   C129  S    
C91   H27   S    
C43   C84   S    
C47   C89   S    
N20   N25   A    
N22   Ni5   S    
C66   C106  S    
C35   C99   S    
C34   C65   S    
C142  H122  S    
C28   N28   A    
C44   C108  S    
N24   N29   A    
C125  H70   S    
C134  H98   S    
C119  H51   S    
C36   C100  S    
C79   C81   S    
C132  H90   S    
C80   C105  S    
C124  H67   S    
N16   Ni3   S    
C8    O8    S    
C22   C62   A    
N28   Ni8   S    
C71   C89   S    
C65   C95   S    
C127  H75   S    
O9    C121  S    
N13   Ni1   S    
C142  H121  S    
C118  H49   S    
C131  H88   S    
C121  H58   S    
N26   Ni5   S    
C30   O30   S    
C116  H44   S    
C87   C103  S    
C91   C102  S    
O15   C127  S    
C27   N27   A    
C85   C101  S    
C144  H128  S    
C25   N25   A    
C130  H85   S    
N9    Ni2   S    
C29   N29   A    
C9    O9    S    
C6    O6    S    
C2    N2    A    
C121  H59   S    
C47   C88   S    
C38   C102  S    
C36   C78   S    
C47   C58   S    
C117  H47   S    
C67   C107  S    
C81   C97   S    
C94   C99   S    
C69   H5    S    
C40   C74   S    
C22   O22   S    
C129  H81   S    
C5    O5    S    
C78   C84   S    
C39   C50   S    
O6    C118  S    
C138  H110  S    
N1    Ni1   S    
C122  H60   S    
C144  H126  S    
C27   O27   S    
C68   C108  S    
C1    C49   A    
C78   H14   S    
