data_mof_unit_31514.cif
_audit_creation_date              2012-12-11T14:33:02-0500
_audit_creation_method            fapswitch 2.2
_symmetry_space_group_name_H-M    P1
_symmetry_Int_Tables_number       1
_space_group_crystal_system       triclinic
_cell_length_a                    6.943987
_cell_length_b                    13.960003
_cell_length_c                    18.107887
_cell_angle_alpha                 112.758535
_cell_angle_beta                  95.052855
_cell_angle_gamma                 90.146756
_cell_volume                      1611.1054742

loop_
_atom_site_label
_atom_site_type_symbol
_atom_type_description
_atom_site_fract_x
_atom_site_fract_y
_atom_site_fract_z
_atom_type_partial_charge
O1    O     O_R   0.484560 0.544530 0.414330 -0.536004
O2    O     O_R   0.197040 0.638810 0.585080 -0.571792
O3    O     O_R   0.026800 0.455470 0.585670 -0.549033
C1    C     C_R   0.370807 0.683843 0.596956 0.693946
O4    O     O_R   0.155000 0.556150 0.414940 -0.547336
O5    O     O_R   0.984450 0.372220 0.414320 -0.521115
C2    C     C_R   0.318282 0.564914 0.386660 0.743252
O6    O     O_R   0.526900 0.627780 0.585680 -0.523554
O7    O     O_3   0.339170 0.439750 0.499990 -0.372016
V1    V     V_3+5 0.064350 0.511180 0.500000 1.422678
O8    O     O_R   0.654880 0.361190 0.414920 -0.551794
C3    C     C_R   0.819022 0.322879 0.388836 0.792613
O9    O     O_R   0.696930 0.443850 0.585060 -0.545729
C4    C     C_R   0.873710 0.434993 0.613034 0.714619
V2    V     V_3+5 0.564340 0.488820 0.500000 1.441541
O10   O     O_3   0.839390 0.560250 0.500010 -0.373313
C5    C     C_R   0.044060 0.886335 0.839704 -0.034847
C6    C     C_R   0.910284 0.404111 0.682726 -0.046169
C7    C     C_R   0.936262 0.845422 0.699892 -0.044692
C8    C     C_R   0.982422 0.815223 0.763750 -0.234974
C9    C     C_R   0.048495 0.993717 0.853976 -0.175649
C10   C     C_R   0.003658 0.028304 0.789355 0.066195
C11   C     C_R   0.957626 0.950774 0.710698 0.117147
C12   C     C_R   0.005439 0.135975 0.798779 0.073738
C13   C     C_R   0.964119 0.162270 0.729718 0.066650
C14   C     C_R   0.939930 0.081819 0.653520 -0.205848
C15   C     C_R   0.940462 0.979429 0.644337 -0.171463
C16   C     C_R   0.049538 0.218293 0.874068 -0.176673
C17   C     C_R   0.059641 0.321308 0.881013 -0.217903
C18   C     C_R   0.016737 0.346991 0.814092 0.117198
C19   C     C_R   0.959651 0.268348 0.737903 0.094891
C20   C     C_R   0.031723 0.451035 0.822688 -0.148073
C21   C     C_R   0.983396 0.478877 0.757372 -0.123626
C22   C     C_R   0.900813 0.299257 0.672901 -0.204362
H1    H     H_    0.935511 0.923663 0.583248 0.178393
H2    H     H_    0.845665 0.244198 0.614216 0.114695
H3    H     H_    0.002022 0.559416 0.765349 0.120597
H4    H     H_    0.100548 0.381806 0.939710 0.117250
H5    H     H_    0.969448 0.733806 0.754565 0.118306
H6    H     H_    0.087550 0.047524 0.914954 0.099459
H7    H     H_    0.929240 0.095422 0.598682 0.139747
H8    H     H_    0.081917 0.205143 0.928604 0.122872
H9    H     H_    0.082687 0.511057 0.880175 0.145715
H10   H     H_    0.835480 0.036651 0.194878 0.166508
C23   C     C_2   0.137577 0.031337 0.188449 -0.339955
C24   C     C_2   0.976295 0.071848 0.223980 -0.204865
H11   H     H_    0.687942 0.195166 0.279983 0.105048
C25   C     C_2   0.819234 0.219832 0.320944 -0.350109
C26   C     C_2   0.979949 0.162268 0.302760 0.022355
H12   H     H_    0.278894 0.068041 0.214069 0.114262
C27   C     C_R   0.397375 0.793762 0.660073 -0.044516
C28   C     C_R   0.541975 0.474491 0.822968 -0.061263
C29   C     C_R   0.491204 0.894892 0.801216 -0.056224
C30   C     C_R   0.420946 0.803669 0.739097 -0.207487
C31   C     C_R   0.414256 0.886815 0.645407 -0.174132
C32   C     C_R   0.451558 0.987355 0.711404 0.062287
C33   C     C_R   0.488967 0.988781 0.790184 0.117684
C34   C     C_R   0.451703 0.086553 0.703606 0.069858
C35   C     C_R   0.490433 0.182337 0.773823 0.072456
C36   C     C_R   0.517000 0.177055 0.849266 -0.206579
C37   C     C_R   0.510954 0.083459 0.857173 -0.167364
C38   C     C_R   0.407392 0.094047 0.628959 -0.182488
C39   C     C_R   0.395874 0.190380 0.623267 -0.204112
C40   C     C_R   0.436423 0.282846 0.690962 0.106657
C41   C     C_R   0.490986 0.281405 0.767333 0.107697
C42   C     C_R   0.426956 0.377024 0.681732 -0.207064
C43   C     C_R   0.485876 0.470475 0.745425 0.001139
C44   C     C_R   0.542434 0.379262 0.833601 -0.242334
H13   H     H_    0.510876 0.088362 0.917992 0.172183
H14   H     H_    0.586865 0.384261 0.893512 0.100441
H15   H     H_    0.356891 0.192503 0.564669 0.169038
H16   H     H_    0.385071 0.739032 0.753593 0.117446
H17   H     H_    0.395579 0.879147 0.583608 0.114402
H18   H     H_    0.531369 0.244897 0.904611 0.126722
H19   H     H_    0.374821 0.026445 0.574132 0.130971
H20   H     H_    0.382404 0.377203 0.622909 0.156147
H21   H     H_    0.333229 0.667016 0.195615 0.152304
H22   H     H_    0.616063 0.591591 0.307262 0.156913
C45   C     C_2   0.315501 0.602002 0.319451 -0.334977
C46   C     C_2   0.477214 0.611208 0.285296 -0.117311
H23   H     H_    0.772163 0.636979 0.205686 0.127190
C47   C     C_2   0.633697 0.656421 0.183263 -0.338126
C48   C     C_2   0.472088 0.647350 0.217532 -0.130302
H24   H     H_    0.177072 0.621422 0.296981 0.127208
O11   O     O_R   0.421600 0.630430 0.917010 -0.554190
O12   O     O_R   0.793840 0.702190 0.087630 -0.548899
O13   O     O_R   0.964010 0.886170 0.088190 -0.532537
C49   C     C_R   0.630669 0.693368 0.115963 0.740901
O14   O     O_R   0.751460 0.619510 0.917500 -0.530377
O15   O     O_R   0.921330 0.802900 0.916840 -0.517000
C50   C     C_R   0.575210 0.578759 0.892783 0.718632
O16   O     O_R   0.464290 0.713700 0.088350 -0.542822
O17   O     O_3   0.609200 0.818520 0.002630 -0.363874
V3    V     V_3+5 0.884140 0.747190 0.002530 1.434078
O18   O     O_R   0.251150 0.814630 0.917340 -0.568762
C51   C     C_R   0.076496 0.843555 0.903082 0.714562
O19   O     O_R   0.293530 0.897310 0.087470 -0.545997
C52   C     C_R   0.131091 0.933006 0.116426 0.766389
V4    V     V_3+5 0.384070 0.769710 0.002370 1.396208
O20   O     O_3   0.109180 0.698190 0.002460 -0.387088
C53   C     C_2   0.152795 0.180439 0.362366 0.432773
H25   H     H_    0.297156 0.167548 0.343143 0.018878
O21   O     O_2   0.134180 0.205614 0.433815 -0.551503
C54   C     C_2   0.498608 0.561765 0.726378 0.295438
H26   H     H_    0.388019 0.570146 0.683902 0.069979
O22   O     O_2   0.637385 0.623153 0.753224 -0.575982
C55   C     C_2   0.580557 0.882710 0.873317 0.425189
H27   H     H_    0.581163 0.804743 0.872018 0.138043
O23   O     O_2   0.664768 0.953402 0.930527 -0.554093
C56   C     C_2   0.857628 0.761125 0.625186 0.406927
H28   H     H_    0.861170 0.684029 0.625185 0.116907
O24   O     O_2   0.778776 0.774506 0.567213 -0.555022

loop_
_geom_bond_atom_site_label_1
_geom_bond_atom_site_label_2
_ccdc_geom_bond_type
C34   C38   A    
C18   C20   A    
C31   C32   A    
C13   C19   A    
O17   V3    S    
C4    C6    S    
O2    C1    A    
O18   C51   A    
C1    O6    A    
H22   C46   S    
C54   O22   D    
H23   C47   S    
O11   C50   A    
C23   C24   D    
C24   C26   S    
C14   C15   A    
C38   C39   A    
C16   C17   A    
C23   C52   S    
O5    C3    A    
C45   H24   S    
O18   V4    S    
H21   C48   S    
V2    O10   S    
O13   V3    S    
O19   C52   A    
C5    C8    A    
O12   C49   A    
C32   C33   A    
C16   H8    S    
O14   V3    S    
C56   H28   S    
O12   V3    S    
O8    V2    S    
V4    O20   S    
C17   H4    S    
C55   H27   S    
O1    V2    S    
C11   C15   A    
O14   C50   A    
O7    V1    S    
O17   V4    S    
C22   H2    S    
C28   C44   A    
C3    C25   S    
O13   C52   A    
C42   C43   A    
C35   C36   A    
C53   O21   D    
O9    C4    A    
C55   O23   D    
C46   C48   S    
C54   H26   S    
O19   V4    S    
H10   C24   S    
C43   C54   S    
O15   V3    S    
C1    C27   S    
C53   H25   S    
C49   O16   A    
C12   C13   A    
O4    C2    A    
C8    H5    S    
C29   C33   A    
C15   H1    S    
C13   C14   A    
C29   C30   A    
C21   H3    S    
C45   C46   D    
C36   C37   A    
C40   C42   A    
C7    C11   A    
C17   C18   A    
O11   V4    S    
C29   C55   S    
H11   C25   S    
V3    O20   S    
C41   C44   A    
C42   H20   S    
C19   C22   A    
C5    C51   S    
C33   C37   A    
C6    C22   A    
O3    C4    A    
C25   C26   D    
C39   H15   S    
O6    V2    S    
O9    V2    S    
C10   C12   A    
C38   H19   S    
O2    V1    S    
C2    C45   S    
C7    C56   S    
C37   H13   S    
O1    C2    A    
C12   C16   A    
C28   C43   A    
O5    V1    S    
O8    C3    A    
O15   C51   A    
C27   C30   A    
C20   C21   A    
C7    C8    A    
C34   C35   A    
O4    V1    S    
O3    V1    S    
V1    O10   S    
C35   C41   A    
C26   C53   S    
C18   C19   A    
C9    H6    S    
C23   H12   S    
C47   C49   S    
C40   C41   A    
C36   H18   S    
C20   H9    S    
C32   C34   A    
C27   C31   A    
O7    V2    S    
C6    C21   A    
C56   O24   D    
C39   C40   A    
C31   H17   S    
C30   H16   S    
C14   H7    S    
C44   H14   S    
C47   C48   D    
C10   C11   A    
C28   C50   S    
C9    C10   A    
O16   V4    S    
C5    C9    A    
