data_mof_unit_19355.cif
_audit_creation_date              2012-12-10T17:38:51-0500
_audit_creation_method            fapswitch 2.2
_symmetry_space_group_name_H-M    P1
_symmetry_Int_Tables_number       1
_space_group_crystal_system       triclinic
_cell_length_a                    12.343489
_cell_length_b                    13.167666
_cell_length_c                    23.496255
_cell_angle_alpha                 77.652863
_cell_angle_beta                  101.112261
_cell_angle_gamma                 116.60073
_cell_volume                      3315.11144373

loop_
_atom_site_label
_atom_site_type_symbol
_atom_type_description
_atom_site_fract_x
_atom_site_fract_y
_atom_site_fract_z
_atom_type_partial_charge
C1    C     C_R   0.854917 0.286537 0.504941 0.769321
C2    C     C_R   0.827607 0.308139 0.035308 -0.161983
C3    C     C_R   0.826868 0.308410 0.975822 -0.162205
C4    C     C_R   0.910464 0.403224 0.942582 -0.014169
C5    C     C_R   0.995331 0.498574 0.969662 -0.017190
C6    C     C_R   0.079237 0.594343 0.936687 -0.013148
C7    C     C_R   0.163583 0.688877 0.964136 -0.162458
C8    C     C_R   0.164918 0.688238 0.023713 -0.162201
C9    C     C_R   0.912019 0.405195 0.882816 0.527307
C10   C     C_R   0.076718 0.592668 0.876965 0.522778
C11   C     C_R   0.914266 0.527821 0.748857 -0.130129
C12   C     C_R   0.999239 0.499428 0.608932 0.800285
C13   C     C_R   0.914794 0.528007 0.689588 -0.224275
C14   C     C_R   0.997747 0.498435 0.671564 -0.093318
C15   C     C_R   0.079275 0.467551 0.713920 -0.178078
C16   C     C_R   0.078750 0.466753 0.773365 0.189953
C17   C     C_R   0.996091 0.497778 0.790867 0.323428
C18   C     C_R   0.907954 0.514440 0.227756 -0.103191
C19   C     C_R   0.908500 0.515449 0.286995 -0.223780
C20   C     C_R   0.999914 0.498778 0.328493 -0.040429
C21   C     C_R   0.090531 0.480913 0.309548 -0.201739
C22   C     C_R   0.090104 0.480555 0.250199 -0.113703
C23   C     C_R   0.145072 0.713469 0.491444 0.811110
C24   C     C_R   0.998819 0.497257 0.209215 0.363476
C25   C     C_R   0.276155 0.022464 0.422357 -0.181172
C26   C     C_R   0.228204 0.834820 0.479405 -0.051271
C27   C     C_R   0.815028 0.084311 0.542202 -0.183104
C28   C     C_R   0.736182 0.969128 0.553276 -0.138474
C29   C     C_R   0.613041 0.931754 0.532944 -0.176813
C30   C     C_R   0.566530 0.009167 0.498758 0.080042
C31   C     C_R   0.650094 0.123896 0.481640 0.081982
C32   C     C_R   0.440067 0.976213 0.480398 0.072667
C33   C     C_R   0.400647 0.054032 0.440823 0.163225
C34   C     C_R   0.000201 0.499820 0.391084 0.801944
C35   C     C_R   0.485988 0.161407 0.418981 -0.231925
C36   C     C_R   0.608901 0.195253 0.438322 -0.190995
C37   C     C_R   0.351161 0.868401 0.500630 -0.223955
C38   C     C_R   0.190250 0.912932 0.441241 -0.188396
C39   C     C_R   0.772943 0.163322 0.507803 -0.101022
C40   C     C_R   0.350637 0.335126 0.595874 -0.294845
C41   C     C_R   0.765505 0.652330 0.424387 0.079043
C42   C     C_R   0.678325 0.695647 0.412980 -0.261660
C43   C     C_R   0.576036 0.642317 0.443401 -0.198706
C44   C     C_R   0.556189 0.540919 0.483733 -0.005998
C45   C     C_R   0.081155 0.590673 0.116944 0.533649
C46   C     C_R   0.653407 0.505933 0.497489 0.290574
C47   C     C_R   0.448361 0.477635 0.513834 -0.131469
C48   C     C_R   0.448949 0.392279 0.562227 0.128649
C49   C     C_R   0.547611 0.363992 0.576953 -0.249615
C50   C     C_R   0.646332 0.417925 0.544655 -0.185691
C51   C     C_R   0.338496 0.493277 0.498413 0.552043
C52   C     C_R   0.250768 0.361237 0.581475 -0.015394
C53   C     C_R   0.914844 0.404151 0.122567 0.531798
C54   C     C_R   0.912117 0.402582 0.062794 -0.014831
C55   C     C_R   0.996360 0.498126 0.029868 -0.018248
C56   C     C_R   0.081689 0.593196 0.057016 -0.015861
Cu1   Cu    Cu3+1 0.098270 0.475410 0.513370 0.980283
Cu2   Cu    Cu3+1 0.901730 0.524590 0.486630 0.925679
H1    H     H_    0.761927 0.233675 0.059661 0.189553
H2    H     H_    0.837287 0.529146 0.300212 0.159831
H3    H     H_    0.161695 0.467267 0.340440 0.163230
H4    H     H_    0.160416 0.466977 0.236002 0.137268
H5    H     H_    0.095247 0.887940 0.424224 0.149435
H6    H     H_    0.457651 0.219712 0.386737 0.146783
H7    H     H_    0.245658 0.081456 0.392024 0.137147
H8    H     H_    0.375006 0.807747 0.532669 0.149008
H9    H     H_    0.908803 0.111942 0.561815 0.155533
H10   H     H_    0.557489 0.841231 0.543619 0.134205
H11   H     H_    0.770019 0.908775 0.579396 0.147409
H12   H     H_    0.760707 0.234121 0.956020 0.189591
H13   H     H_    0.670979 0.276954 0.417453 0.176740
H14   H     H_    0.175409 0.318663 0.607854 0.142955
H15   H     H_    0.548210 0.298414 0.613727 0.160390
H16   H     H_    0.351481 0.271137 0.633426 0.158584
H17   H     H_    0.845928 0.695322 0.401419 0.128195
H18   H     H_    0.517287 0.685521 0.436439 0.197785
H19   H     H_    0.691534 0.772391 0.381580 0.157434
H20   H     H_    0.717099 0.390176 0.559672 0.207088
H21   H     H_    0.229026 0.763479 0.939741 0.189829
H22   H     H_    0.231287 0.762413 0.043542 0.189551
H23   H     H_    0.850360 0.551288 0.762263 0.147592
H24   H     H_    0.850649 0.551772 0.657944 0.170516
H25   H     H_    0.143372 0.443574 0.701045 0.170395
H26   H     H_    0.837259 0.527499 0.196145 0.139859
N1    N     N_R   0.998504 0.497199 0.148246 -0.470598
N2    N     N_R   0.994726 0.498662 0.851577 -0.470230
N3    N     N_R   0.246280 0.438190 0.533650 -0.186769
N4    N     N_R   0.754320 0.561190 0.466710 -0.209509
O1    O     O_R   0.972510 0.318130 0.516820 -0.581717
O2    O     O_2   0.835078 0.313371 0.154890 -0.537271
O3    O     O_2   0.832168 0.314410 0.856128 -0.537882
O4    O     O_2   0.155623 0.683906 0.844477 -0.539861
O5    O     O_R   0.806530 0.359650 0.494230 -0.606432
O6    O     O_R   0.082990 0.479200 0.593420 -0.589750
O7    O     O_R   0.917010 0.520720 0.570830 -0.597628
O8    O     O_R   0.193470 0.640350 0.505770 -0.538546
O9    O     O_R   0.027490 0.681870 0.483180 -0.593209
O10   O     O_R   0.082990 0.479280 0.429170 -0.527273
O11   O     O_R   0.917010 0.520800 0.406580 -0.602232
O12   O     O_2   0.161878 0.681063 0.143699 -0.534340
O13   O     O_3   0.317463 0.556641 0.446672 -0.719066
H27   H     H_    0.342062 0.533614 0.415502 0.290498
N5    N     N_3   0.161942 0.433321 0.815354 -0.588676
H28   H     H_    0.217888 0.501644 0.838566 0.243976
H29   H     H_    0.111484 0.363857 0.844956 0.232816

loop_
_geom_bond_atom_site_label_1
_geom_bond_atom_site_label_2
_ccdc_geom_bond_type
C55   C56   A    
O13   H27   S    
C41   C42   A    
C35   C36   A    
C43   C44   A    
C9    O3    S    
C7    C8    A    
C53   C54   A    
C11   H23   S    
Cu1   O1    S    
C18   C24   A    
C28   C29   A    
Cu2   O5    S    
C5    C6    A    
C9    N2    A    
C41   H17   S    
C15   C16   A    
C23   O8    A    
C18   C19   A    
C23   C26   S    
C33   C35   A    
C11   C17   A    
C28   H11   S    
C45   C56   A    
C27   C39   A    
C16   C17   A    
Cu1   O8    S    
C18   H26   S    
C12   O7    A    
C35   H6    S    
C24   N1    S    
C21   H3    S    
C44   C47   A    
C20   C34   S    
C10   O4    S    
C21   C22   A    
C8    C56   A    
C12   O6    A    
Cu2   O9    S    
C50   H20   S    
C44   C46   A    
C46   N4    A    
C17   N2    S    
C3    H12   S    
C25   H7    S    
C2    C54   A    
C51   N3    A    
C2    H1    S    
C26   C38   A    
C15   H25   S    
C40   C52   A    
C13   H24   S    
Cu1   N3    S    
C45   N1    A    
Cu2   O7    S    
C29   C30   A    
C52   H14   S    
C25   C38   A    
C22   H4    S    
C29   H10   S    
C16   N5    S    
C47   C48   A    
C8    H22   S    
C37   H8    S    
C34   O11   A    
N5    H29   S    
C32   C37   A    
C48   C49   A    
C23   O9    A    
C12   C14   S    
Cu1   O6    S    
C22   C24   A    
C42   C43   A    
C3    C4    A    
C53   O2    S    
C7    H21   S    
C38   H5    S    
C43   H18   S    
C40   C48   A    
C41   N4    A    
C54   C55   A    
C10   N2    A    
C1    O1    A    
C14   C15   A    
C5    C55   A    
C52   N3    A    
Cu2   O11   S    
C4    C5    A    
C45   O12   S    
Cu2   N4    S    
C6    C10   A    
C47   C51   A    
C36   H13   S    
C26   C37   A    
C6    C7    A    
C19   H2    S    
C51   O13   S    
C46   C50   A    
C32   C33   A    
C19   C20   A    
C2    C3    A    
C30   C32   A    
C11   C13   A    
Cu1   Cu2   S    
C30   C31   A    
Cu1   O10   S    
C34   O10   A    
C40   H16   S    
C49   H15   S    
C27   H9    S    
C1    C39   S    
C20   C21   A    
C42   H19   S    
C1    O5    A    
C49   C50   A    
N5    H28   S    
C31   C39   A    
C31   C36   A    
C53   N1    A    
C4    C9    A    
C13   C14   A    
C25   C33   A    
C27   C28   A    
