data_mof_unit_55739.cif
_audit_creation_date              2013-03-05T16:07:09-0500
_audit_creation_method            fapswitch 2.2
_symmetry_space_group_name_H-M    P1
_symmetry_Int_Tables_number       1
_space_group_crystal_system       triclinic
_cell_length_a                    10.849019
_cell_length_b                    9.689165
_cell_length_c                    15.980479
_cell_angle_alpha                 89.448463
_cell_angle_beta                  91.538478
_cell_angle_gamma                 88.777182
_cell_volume                      1678.75956686

loop_
_atom_site_label
_atom_site_type_symbol
_atom_site_description
_atom_site_fract_x
_atom_site_fract_y
_atom_site_fract_z
_atom_type_partial_charge
O1    O     O_R   0.319640 0.618740 0.499990 -0.556214
O2    O     O_R   0.680360 0.381260 0.500010 -0.560013
O3    O     O_R   0.680360 0.618740 0.500010 -0.523951
O4    O     O_R   0.319640 0.381260 0.499990 -0.520490
C1    C     C_R   0.871391 0.495494 0.497195 -0.334977
C2    C     C_R   0.128586 0.504299 0.502770 -0.332948
C3    C     C_R   0.262770 0.501469 0.500545 0.891229
C4    C     C_R   0.737225 0.498499 0.499470 0.887120
O5    O     O_R   0.499970 0.618750 0.380310 -0.524893
O6    O     O_R   0.500030 0.381250 0.619690 -0.523200
O7    O     O_R   0.500030 0.618750 0.619690 -0.549987
O8    O     O_R   0.499970 0.381250 0.380310 -0.560406
C5    C     C_R   0.499896 0.500511 0.341862 0.834904
C6    C     C_R   0.500612 0.499513 0.658527 0.837785
Cu1   Cu    Cu3+1 0.500000 0.640660 0.500000 1.129053
Cu2   Cu    Cu3+1 0.500000 0.359340 0.500000 1.124166
N1    N     N_R   0.500000 0.852070 0.500000 -0.309580
N2    N     N_R   0.500000 0.147930 0.500000 -0.309773
C7    C     C_R   0.492928 0.626293 0.956677 0.326084
C8    C     C_R   0.524272 0.377069 0.046292 0.326329
C9    C     C_R   0.479143 0.624785 0.043625 0.328769
C10   C     C_R   0.511331 0.374794 0.958770 0.324854
C11   C     C_R   0.502374 0.500390 0.913473 -0.239773
C12   C     C_R   0.501510 0.501113 0.088737 -0.238135
C13   C     C_1   0.502017 0.499672 0.823344 0.106367
C14   C     C_1   0.501302 0.501339 0.178236 0.096043
C15   C     C_1   0.500706 0.501376 0.253111 -0.030997
C16   C     C_1   0.501412 0.498936 0.748043 -0.016182
C17   C     C_R   0.456146 0.076409 0.432139 0.307217
C18   C     C_R   0.544493 0.923825 0.567333 0.327506
C19   C     C_R   0.540360 0.070489 0.568732 0.325966
C20   C     C_R   0.461400 0.929526 0.430628 0.325652
C21   C     C_R   0.068792 0.404704 0.550845 0.249318
C22   C     C_R   0.931181 0.594961 0.449060 0.244375
C23   C     C_R   0.940322 0.399100 0.546841 0.213896
C24   C     C_R   0.059634 0.600488 0.452999 0.218184
N3    N     N_R   0.397823 0.148161 0.362658 0.175590
O9    O     O_R   0.286349 0.197986 0.369481 -0.298599
O10   O     O_R   0.446349 0.143062 0.289107 -0.312715
N4    N     N_R   0.597269 0.852166 0.638241 0.170315
O11   O     O_R   0.538336 0.850795 0.707942 -0.363006
O12   O     O_R   0.710568 0.805764 0.636959 -0.309606
N5    N     N_R   0.564991 0.133881 0.647347 0.173453
O13   O     O_R   0.676867 0.131777 0.678483 -0.247329
O14   O     O_R   0.474138 0.147300 0.698304 -0.338866
N6    N     N_R   0.436546 0.865834 0.352025 0.166972
O15   O     O_R   0.525941 0.855139 0.299570 -0.297214
O16   O     O_R   0.323830 0.863278 0.322742 -0.277737
O17   O     O_3   0.454928 0.748661 0.083439 -0.566716
C25   C     C_3   0.332222 0.753537 0.112084 0.174811
H1    H     H_    0.320039 0.852726 0.145468 0.229512
H2    H     H_    0.315520 0.670643 0.158607 0.159465
C26   C     C_3   0.234879 0.748936 0.040481 -0.433801
H3    H     H_    0.255053 0.827985 0.992437 0.263760
H4    H     H_    0.237515 0.645964 0.010474 0.215984
C27   C     C_3   0.105450 0.774178 0.072801 -0.829814
H5    H     H_    0.084711 0.696782 0.121911 0.289427
H6    H     H_    0.037450 0.763997 0.020341 0.255056
H7    H     H_    0.096585 0.879498 0.099120 0.267753
O18   O     O_3   0.517830 0.248953 0.918517 -0.570586
C28   C     C_3   0.397713 0.208872 0.893150 0.145510
H8    H     H_    0.408248 0.125189 0.846913 0.233795
H9    H     H_    0.344008 0.294079 0.860875 0.154973
C29   C     C_3   0.325238 0.150613 0.966269 -0.373353
H10   H     H_    0.377668 0.061989 0.995502 0.270583
H11   H     H_    0.311547 0.231023 0.014364 0.235613
C30   C     C_3   0.198515 0.103070 0.936185 -0.867284
H12   H     H_    0.143859 0.191252 0.908516 0.276468
H13   H     H_    0.148093 0.061225 0.989964 0.255367
H14   H     H_    0.208028 0.021005 0.888583 0.283993
O19   O     O_3   0.486665 0.752113 0.914818 -0.575105
C31   C     C_3   0.606904 0.793203 0.894366 0.152334
H15   H     H_    0.596204 0.886210 0.853723 0.239700
H16   H     H_    0.656346 0.712876 0.857919 0.156081
C32   C     C_3   0.685154 0.835251 0.971139 -0.383286
H17   H     H_    0.634914 0.916505 0.006083 0.270879
H18   H     H_    0.703108 0.745023 0.013425 0.227977
C33   C     C_3   0.809210 0.889786 0.944449 -0.878054
H19   H     H_    0.862388 0.807817 0.912180 0.269081
H20   H     H_    0.863048 0.922463 0.000534 0.261906
H21   H     H_    0.795705 0.979992 0.901502 0.290967
O20   O     O_3   0.547505 0.253959 0.089345 -0.558949
C34   C     C_3   0.671256 0.248193 0.120345 0.133699
H22   H     H_    0.680315 0.157439 0.163270 0.212465
H23   H     H_    0.695221 0.339854 0.158340 0.135779
C35   C     C_3   0.763646 0.230066 0.049935 -0.382520
H24   H     H_    0.733396 0.145670 0.008461 0.266252
H25   H     H_    0.766578 0.326515 0.011917 0.220212
C36   C     C_3   0.893264 0.197001 0.084895 -0.868094
H26   H     H_    0.925174 0.281375 0.126195 0.275297
H27   H     H_    0.957643 0.186588 0.032432 0.261050
H28   H     H_    0.894658 0.098431 0.121022 0.272152
N7    N     N_R   0.137790 0.312672 0.606569 0.174119
O21   O     O_R   0.212413 0.361884 0.663415 -0.367039
O22   O     O_R   0.124035 0.179866 0.602060 -0.236788
N8    N     N_R   0.862191 0.686638 0.393125 0.173732
O23   O     O_R   0.787730 0.637023 0.336322 -0.359450
O24   O     O_R   0.875644 0.819503 0.397479 -0.239531
N9    N     N_R   0.880237 0.298980 0.596657 0.174306
O25   O     O_R   0.856643 0.179102 0.564708 -0.243157
O26   O     O_R   0.876318 0.315185 0.677261 -0.294272
N10   N     N_R   0.119677 0.700136 0.402846 0.175725
O27   O     O_R   0.141556 0.821019 0.433978 -0.236480
O28   O     O_R   0.124926 0.682211 0.322436 -0.326058

loop_
_geom_bond_atom_site_label_1
_geom_bond_atom_site_label_2
_geom_bond_distance
_ccdc_geom_bond_type
N7    O21   1.301290 A    
C8    O20   1.386288 S    
C7    O19   1.384417 S    
N5    O13   1.299035 A    
C9    O17   1.387319 S    
C26   H3    1.108545 S    
C13   C16   1.203277 T    
C14   C15   1.196725 T    
C19   N5    1.425060 S    
C7    C9    1.401443 A    
C22   N8    1.438282 S    
C17   C20   1.423563 A    
C31   C32   1.536351 S    
C10   O18   1.385386 S    
C18   C19   1.421218 A    
O7    C6    1.305992 A    
C33   H20   1.109027 S    
Cu1   Cu2   2.725756 S    
C27   H5    1.110958 S    
C24   N10   1.427889 S    
C28   H9    1.114557 S    
O5    C5    1.305204 A    
O7    Cu1   1.922407 S    
O8    Cu2   1.922407 S    
C2    C24   1.408844 A    
N8    O24   1.300997 A    
C25   H2    1.110229 S    
O1    Cu1   1.972718 S    
C36   H27   1.109479 S    
O2    Cu2   1.972717 S    
N4    O12   1.300528 A    
N7    O22   1.301032 A    
N8    O23   1.301261 A    
N1    C18   1.369303 A    
N10   O27   1.300940 A    
O4    C3    1.306577 A    
C23   N9    1.428194 S    
C26   H4    1.111275 S    
N6    O16   1.298369 A    
C25   C26   1.537755 S    
C35   H25   1.111224 S    
C30   H12   1.110925 S    
C29   C30   1.526197 S    
C8    C12   1.406278 A    
C31   H16   1.113726 S    
O3    C4    1.306822 A    
O6    C6    1.308447 A    
C35   H24   1.107187 S    
O18   C28   1.417608 S    
C30   H13   1.109161 S    
C29   H11   1.110189 S    
O4    Cu2   1.963706 S    
C28   C29   1.535514 S    
C7    C11   1.410679 A    
C32   H17   1.111406 S    
N3    O9    1.300278 A    
N5    O14   1.300471 A    
C34   H22   1.111081 S    
C1    C22   1.407299 A    
C25   H1    1.110838 S    
C18   N4    1.423724 S    
N2    C17   1.372392 A    
C36   H28   1.110842 S    
N10   O28   1.300916 A    
C32   H18   1.110481 S    
N4    O11   1.299216 A    
C34   H23   1.112098 S    
C8    C10   1.402341 A    
O20   C34   1.418310 S    
O3    Cu1   1.963705 S    
C26   C27   1.524800 S    
Cu1   N1    2.048386 S    
N6    O15   1.301938 A    
N9    O26   1.300843 A    
O1    C3    1.304552 A    
C20   N6    1.426618 S    
O2    C4    1.304247 A    
C12   C14   1.430330 S    
C31   H15   1.107984 S    
C35   C36   1.525579 S    
C21   N7    1.438369 S    
C1    C4    1.456679 S    
C2    C21   1.407642 A    
C2    C3    1.456831 S    
C27   H7    1.110738 S    
C30   H14   1.110825 S    
C29   H10   1.111885 S    
O5    Cu1   1.926470 S    
O19   C31   1.417581 S    
N3    O10   1.301667 A    
O6    Cu2   1.926470 S    
N9    O25   1.300920 A    
C33   H19   1.110776 S    
C33   H21   1.110851 S    
C1    C23   1.408915 A    
C21   C23   1.395767 A    
C27   H6    1.108283 S    
C22   C24   1.395522 A    
C11   C13   1.440288 S    
C28   H8    1.108407 S    
C32   C33   1.526224 S    
C34   C35   1.535719 S    
O8    C5    1.303472 A    
Cu2   N2    2.048387 S    
O17   C25   1.419311 S    
C9    C12   1.405709 A    
C17   N3    1.430100 S    
N1    C20   1.383189 A    
C10   C11   1.410153 A    
C5    C15   1.418500 S    
N2    C19   1.380380 A    
C6    C16   1.430274 S    
C36   H26   1.110844 S    
