data_mof_unit_50491.cif
_audit_creation_date              2012-10-26T21:05:19-0400
_audit_creation_method            fapswitch 2.2
_symmetry_space_group_name_H-M    P1
_symmetry_Int_Tables_number       1
_space_group_crystal_system       triclinic
_cell_length_a                    9.655829
_cell_length_b                    10.768765
_cell_length_c                    13.86182
_cell_angle_alpha                 93.142062
_cell_angle_beta                  84.393413
_cell_angle_gamma                 90.347287
_cell_volume                      1432.31873038

loop_
_atom_site_label
_atom_site_type_symbol
_atom_type_description
_atom_site_fract_x
_atom_site_fract_y
_atom_site_fract_z
_atom_type_partial_charge
C1    C     C_R   0.499966 0.737014 0.502246 0.526204
C2    C     C_R   0.557277 0.928935 0.425142 -0.086472
C3    C     C_R   0.555567 0.056990 0.423036 0.234818
C4    C     C_R   0.476911 0.500776 0.682831 0.517956
C5    C     C_R   0.498114 0.128849 0.504606 0.039500
C6    C     C_R   0.873095 0.370378 0.350828 -0.040003
C7    C     C_R   0.946492 0.346973 0.260954 0.201748
C8    C     C_R   0.089044 0.359841 0.252559 -0.078117
C9    C     C_R   0.156472 0.379515 0.336624 0.220971
C10   C     C_R   0.083621 0.437605 0.423259 0.148607
C11   C     C_R   0.934275 0.436364 0.425967 0.074773
C12   C     C_1   0.462472 0.500731 0.786284 0.010323
C13   C     C_R   0.916957 0.560703 0.571078 0.021301
C14   C     C_R   0.064280 0.559819 0.571522 0.009465
C15   C     C_R   0.499594 0.262870 0.500963 0.603962
C16   C     C_R   0.523111 0.499935 0.317206 0.594912
C17   C     C_1   0.537365 0.498482 0.213734 0.069947
C18   C     C_2   0.557302 0.495762 0.022686 -0.079298
C19   C     C_2   0.442001 0.500628 0.977277 -0.091071
C20   C     C_1   0.451870 0.500633 0.873362 -0.003326
C21   C     C_1   0.547631 0.497111 0.126623 0.029262
C22   C     C_R   0.384631 0.882453 0.674045 -0.065994
C23   C     C_R   0.328736 0.953370 0.755712 0.258903
C24   C     C_R   0.328296 0.082672 0.754916 -0.061951
C25   C     C_R   0.383621 0.141588 0.672615 -0.136362
C26   C     C_R   0.440153 0.071564 0.588881 -0.023205
C27   C     C_R   0.440598 0.940404 0.589806 -0.023592
C28   C     C_R   0.499671 0.870873 0.506874 -0.027065
Cl1   Cl    Cl    0.862181 0.287231 0.161782 -0.495643
Cl2   Cl    Cl    0.284619 0.264294 0.332653 -0.505848
Cl3   Cl    Cl    0.260191 0.879616 0.859700 -0.552724
Cl4   Cl    Cl    0.619844 0.123248 0.314292 -0.485664
Cu1   Cu    Cu3+1 0.359340 0.500010 0.500010 1.019174
Cu2   Cu    Cu3+1 0.640660 0.499990 0.499990 0.978600
H1    H     H_    0.600812 0.873886 0.361631 0.162867
H2    H     H_    0.854772 0.611307 0.629290 0.132934
H3    H     H_    0.384826 0.782320 0.677596 0.143326
H4    H     H_    0.339838 0.505166 0.017866 0.154400
H5    H     H_    0.769479 0.335877 0.359622 0.239752
H6    H     H_    0.146774 0.326801 0.185053 0.192617
H7    H     H_    0.110993 0.609588 0.630063 0.134589
H8    H     H_    0.659467 0.491299 0.982112 0.164323
H9    H     H_    0.285558 0.137941 0.818355 0.164571
H10   H     H_    0.382241 0.242042 0.675597 0.129637
N1    N     N_R   0.852210 0.498790 0.499090 -0.245200
N2    N     N_R   0.148080 0.498710 0.499060 -0.235260
O1    O     O_R   0.381190 0.680360 0.500010 -0.499813
O2    O     O_R   0.618760 0.680340 0.500000 -0.496212
O3    O     O_R   0.364420 0.499990 0.637850 -0.516357
O4    O     O_R   0.601990 0.499960 0.637840 -0.502575
O5    O     O_R   0.381240 0.319660 0.500000 -0.437205
O6    O     O_R   0.618810 0.319640 0.499990 -0.510069
O7    O     O_R   0.398010 0.500040 0.362160 -0.466115
O8    O     O_R   0.635580 0.500010 0.362150 -0.514299

loop_
_geom_bond_atom_site_label_1
_geom_bond_atom_site_label_2
_ccdc_geom_bond_type
C2    H1    S    
C10   N2    A    
C1    C28   S    
C23   C24   A    
C1    O2    A    
C6    C7    A    
C7    Cl1   S    
C19   H4    S    
C15   O5    A    
Cu1   O5    S    
C18   C21   S    
C9    C10   A    
Cu2   O6    S    
C19   C20   S    
C4    O3    A    
C12   C20   T    
Cu1   Cu2   S    
C7    C8    A    
C14   N2    A    
Cu2   N1    S    
C15   O6    A    
C13   N1    A    
Cu1   N2    S    
C26   C27   A    
C16   C17   S    
C9    Cl2   S    
C14   H7    S    
C25   H10   S    
Cu2   O8    S    
C2    C3    A    
C22   C27   A    
C18   H8    S    
Cu1   O7    S    
C3    Cl4   S    
Cu1   O1    S    
C16   O8    A    
C5    C15   S    
C11   N1    A    
C10   C11   A    
Cu1   O3    S    
C5    C26   A    
C6    C11   A    
Cu2   O4    S    
Cu2   O2    S    
C24   C25   A    
C13   H2    S    
C18   C19   D    
C27   C28   A    
C6    H5    S    
C24   H9    S    
C16   O7    A    
C1    O1    A    
C2    C28   A    
C8    H6    S    
C13   C14   A    
C25   C26   A    
C4    C12   S    
C22   H3    S    
C22   C23   A    
C17   C21   T    
C4    O4    A    
C8    C9    A    
C3    C5    A    
C23   Cl3   S    
