data_mof_unit_22453.cif
_audit_creation_date              2012-12-11T14:44:00-0500
_audit_creation_method            fapswitch 2.2
_symmetry_space_group_name_H-M    P1
_symmetry_Int_Tables_number       1
_space_group_crystal_system       triclinic
_cell_length_a                    24.870798
_cell_length_b                    16.704591
_cell_length_c                    15.574944
_cell_angle_alpha                 89.906947
_cell_angle_beta                  49.913506
_cell_angle_gamma                 89.953813
_cell_volume                      4950.56155017

loop_
_atom_site_label
_atom_site_type_symbol
_atom_type_description
_atom_site_fract_x
_atom_site_fract_y
_atom_site_fract_z
_atom_type_partial_charge
C1    C     C_R   0.353763 0.148724 0.753221 -0.163547
C2    C     C_3   0.781101 0.824835 0.576042 -0.151736
C3    C     C_3   0.440113 0.343228 0.843267 -0.309792
C4    C     C_3   0.837056 0.369492 0.094033 -0.293452
C5    C     C_3   0.163543 0.627649 0.905295 -0.308319
C6    C     C_3   0.163443 0.373325 0.905604 -0.311214
C7    C     C_3   0.857679 0.772307 0.974733 -0.267698
C8    C     C_3   0.754529 0.206165 0.605018 -0.155928
C9    C     C_3   0.245589 0.793749 0.394864 -0.156194
C10   C     C_3   0.774622 0.763611 0.423282 -0.156627
C11   C     C_3   0.224935 0.236582 0.577368 -0.161157
C12   C     C_3   0.199977 0.794327 0.605267 -0.170194
C13   C     C_3   0.799992 0.205806 0.394708 -0.168652
C14   C     C_2   0.635659 0.269012 0.157318 0.589802
C15   C     C_2   0.364518 0.730821 0.842332 0.590619
C16   C     C_2   0.364705 0.269177 0.841569 0.590658
C17   C     C_R   0.646221 0.851236 0.247041 -0.181024
C18   C     C_2   0.635642 0.730640 0.158683 0.575505
C19   C     C_2   0.196518 0.644577 0.010013 0.584332
C20   C     C_2   0.803737 0.354467 0.989494 0.583088
C21   C     C_2   0.805086 0.656769 0.983956 0.579152
C22   C     C_2   0.196405 0.355426 0.010255 0.584756
C23   C     C_2   0.685372 0.311054 0.147952 -0.265410
C24   C     C_2   0.314724 0.688766 0.851915 -0.264345
C25   C     C_2   0.314455 0.310956 0.852021 -0.264757
C26   C     C_2   0.685718 0.688951 0.148918 -0.279916
C27   C     C_2   0.266416 0.637748 0.950071 -0.272039
C28   C     C_R   0.646426 0.148582 0.246166 -0.166998
C29   C     C_2   0.733851 0.361933 0.049758 -0.264337
C30   C     C_2   0.735926 0.641276 0.048107 -0.232845
C31   C     C_2   0.266338 0.361808 0.950274 -0.271557
C32   C     C_R   0.614652 0.109257 0.592145 -0.164534
C33   C     C_R   0.385343 0.890795 0.407844 -0.164196
C34   C     C_R   0.386295 0.110433 0.406903 -0.157632
C35   C     C_R   0.613802 0.889915 0.593105 -0.157177
C36   C     C_R   0.086531 0.649889 0.592494 -0.148249
C37   C     C_R   0.913604 0.350071 0.407440 -0.142676
C38   C     C_R   0.913876 0.649466 0.406287 -0.128594
C39   C     C_R   0.353645 0.851339 0.753671 -0.163235
C40   C     C_R   0.086091 0.350461 0.593613 -0.134123
C41   C     C_R   0.689217 0.108868 0.405571 -0.146133
C42   C     C_R   0.310768 0.891195 0.594418 -0.145895
C43   C     C_R   0.310760 0.108472 0.593474 -0.153327
C44   C     C_R   0.689341 0.891900 0.406560 -0.149397
C45   C     C_R   0.162678 0.648017 0.405549 -0.122618
C46   C     C_R   0.837368 0.351949 0.594397 -0.123749
C47   C     C_R   0.838546 0.648985 0.593110 -0.136835
C48   C     C_R   0.161264 0.350919 0.406764 -0.133451
C49   C     C_R   0.557583 0.144679 0.243952 -0.076934
C50   C     C_R   0.834049 0.613175 0.801750 -0.171280
C51   C     C_R   0.442484 0.855258 0.755887 -0.075182
C52   C     C_R   0.442655 0.144795 0.755376 -0.075196
C53   C     C_R   0.557327 0.854976 0.244909 -0.074259
C54   C     C_R   0.078007 0.606532 0.195368 -0.097645
C55   C     C_R   0.922097 0.393170 0.804429 -0.091195
C56   C     C_R   0.922638 0.609296 0.802932 -0.115413
C57   C     C_R   0.077944 0.393490 0.195515 -0.095669
C58   C     C_R   0.386981 0.191502 0.783710 -0.043339
C59   C     C_R   0.612994 0.808256 0.216792 -0.036574
C60   C     C_R   0.613302 0.191325 0.215391 -0.041048
C61   C     C_R   0.166709 0.390072 0.196101 -0.177827
C62   C     C_R   0.386804 0.808565 0.784365 -0.042834
C63   C     C_R   0.853017 0.631382 0.865486 -0.057469
C64   C     C_R   0.148345 0.374625 0.130758 -0.020306
C65   C     C_R   0.148396 0.625436 0.130603 -0.019212
C66   C     C_R   0.851765 0.374037 0.869072 -0.018060
C67   C     C_R   0.681508 0.128192 0.498190 0.044756
C68   C     C_R   0.318472 0.871914 0.501793 0.043769
C69   C     C_R   0.319291 0.128961 0.500189 0.044396
C70   C     C_R   0.680894 0.871708 0.499852 0.045526
C71   C     C_R   0.137095 0.693922 0.498210 0.033912
C72   C     C_R   0.166720 0.609992 0.196036 -0.176757
C73   C     C_R   0.863016 0.306017 0.501709 0.035248
C74   C     C_R   0.864457 0.694497 0.499500 0.032664
C75   C     C_R   0.135417 0.305378 0.500349 0.035348
C76   C     C_3   0.285966 0.210730 0.398002 -0.160921
C77   C     C_3   0.714295 0.790311 0.602237 -0.161658
C78   C     C_3   0.713370 0.239418 0.569949 -0.152785
C79   C     C_3   0.286673 0.760592 0.430115 -0.153883
C80   C     C_3   0.841381 0.798256 0.396568 -0.154215
C81   C     C_3   0.158593 0.201500 0.603058 -0.155062
C82   C     C_3   0.158306 0.827301 0.570505 -0.156136
C83   C     C_R   0.833347 0.389753 0.803822 -0.176509
C84   C     C_3   0.841736 0.172734 0.429288 -0.152162
C85   C     C_3   0.799066 0.871104 0.473574 -0.150209
C86   C     C_3   0.201534 0.129111 0.525452 -0.148991
C87   C     C_3   0.225656 0.869581 0.467107 -0.146499
C88   C     C_3   0.774420 0.130403 0.532676 -0.150038
C89   C     C_3   0.243680 0.282034 0.475697 -0.144507
C90   C     C_3   0.755953 0.718555 0.525136 -0.141734
C91   C     C_3   0.779433 0.280564 0.467201 -0.144002
C92   C     C_3   0.220580 0.719500 0.532872 -0.142740
C93   C     C_3   0.733189 0.835080 0.500150 0.178604
C94   C     C_3   0.219591 0.175763 0.423173 -0.151780
C95   C     C_3   0.266981 0.165563 0.499899 0.183840
C96   C     C_3   0.266008 0.835096 0.502275 0.184496
C97   C     C_3   0.733995 0.164985 0.497690 0.183488
C98   C     C_3   0.177779 0.246804 0.500984 0.181229
C99   C     C_3   0.822282 0.753334 0.498819 0.180943
C100  C     C_3   0.820518 0.247183 0.501954 0.181710
C101  C     C_3   0.179572 0.752785 0.497936 0.183353
C102  C     C_3   0.439433 0.657015 0.845705 -0.309907
C103  C     C_3   0.561020 0.342829 0.153289 -0.309975
C104  C     C_3   0.562394 0.656312 0.152127 -0.301877
H1    H     H_    0.307612 0.165225 0.764485 0.118036
H2    H     H_    0.405812 0.891546 0.322007 0.101840
H3    H     H_    0.407207 0.109443 0.320853 0.095374
H4    H     H_    0.592841 0.890942 0.679181 0.095140
H5    H     H_    0.059252 0.665616 0.678980 0.101050
H6    H     H_    0.941096 0.334332 0.320873 0.108232
H7    H     H_    0.941374 0.664390 0.319437 0.103656
H8    H     H_    0.058696 0.335526 0.680424 0.101270
H9    H     H_    0.737355 0.107523 0.319189 0.098096
H10   H     H_    0.262631 0.892540 0.680801 0.099446
H11   H     H_    0.262262 0.107167 0.679561 0.105962
H12   H     H_    0.692439 0.834855 0.235661 0.115051
H13   H     H_    0.737828 0.893243 0.320459 0.099305
H14   H     H_    0.205646 0.662205 0.318695 0.104009
H15   H     H_    0.794371 0.337750 0.681231 0.104055
H16   H     H_    0.795541 0.664096 0.679500 0.109306
H17   H     H_    0.203956 0.335741 0.320198 0.111455
H18   H     H_    0.521119 0.159873 0.230902 0.113674
H19   H     H_    0.478986 0.840049 0.768854 0.113533
H20   H     H_    0.479326 0.160014 0.767963 0.114029
H21   H     H_    0.520671 0.839601 0.232341 0.112720
H22   H     H_    0.049342 0.601007 0.165205 0.099045
H23   H     H_    0.692698 0.165013 0.234520 0.118858
H24   H     H_    0.950781 0.398544 0.834573 0.096935
H25   H     H_    0.950956 0.604943 0.833854 0.106745
H26   H     H_    0.049195 0.398920 0.165469 0.098168
H27   H     H_    0.814964 0.934866 0.452236 0.110568
H28   H     H_    0.186018 0.065210 0.546093 0.109837
H29   H     H_    0.229584 0.932361 0.440152 0.110297
H30   H     H_    0.770520 0.067587 0.559501 0.110777
H31   H     H_    0.260459 0.345686 0.455304 0.112059
H32   H     H_    0.738763 0.655058 0.546258 0.113732
H33   H     H_    0.781870 0.343103 0.440474 0.111569
H34   H     H_    0.307411 0.834858 0.765233 0.118468
H35   H     H_    0.218118 0.656993 0.559715 0.109571
H36   H     H_    0.338940 0.214642 0.313963 0.113164
H37   H     H_    0.661449 0.786933 0.686556 0.113084
H38   H     H_    0.660002 0.266251 0.627027 0.108952
H39   H     H_    0.340041 0.733749 0.373149 0.108745
H40   H     H_    0.894518 0.800907 0.312651 0.117953
H41   H     H_    0.105333 0.198331 0.686707 0.116615
H42   H     H_    0.104653 0.853309 0.627225 0.112154
H43   H     H_    0.895379 0.146710 0.372468 0.119637
H44   H     H_    0.215773 0.152121 0.360705 0.121444
H45   H     H_    0.781468 0.612237 0.829725 0.104643
H46   H     H_    0.785387 0.848625 0.637925 0.118374
H47   H     H_    0.737095 0.206803 0.690951 0.121230
H48   H     H_    0.263083 0.793015 0.308894 0.121542
H49   H     H_    0.770796 0.739077 0.361147 0.123240
H50   H     H_    0.228282 0.260974 0.640102 0.112609
H51   H     H_    0.182126 0.794624 0.691478 0.115326
H52   H     H_    0.817778 0.205603 0.308538 0.116031
H53   H     H_    0.300412 0.704362 0.801319 0.139773
H54   H     H_    0.699525 0.295479 0.198762 0.138927
H55   H     H_    0.699726 0.704051 0.200056 0.149980
H56   H     H_    0.219163 0.392552 0.168467 0.104188
H57   H     H_    0.299746 0.295293 0.802040 0.139163
H58   H     H_    0.713202 0.393492 0.015612 0.138752
H59   H     H_    0.287094 0.606753 0.984528 0.139950
H60   H     H_    0.287167 0.392416 0.984639 0.140488
H61   H     H_    0.715766 0.606134 0.015755 0.131531
H62   H     H_    0.485994 0.683382 0.764956 0.133426
H63   H     H_    0.423620 0.600181 0.830090 0.138594
H64   H     H_    0.455273 0.642172 0.896101 0.176686
H65   H     H_    0.576969 0.399819 0.168319 0.138937
H66   H     H_    0.514462 0.316776 0.234317 0.132792
H67   H     H_    0.219180 0.607471 0.168367 0.103920
H68   H     H_    0.545106 0.357285 0.102903 0.176751
H69   H     H_    0.515259 0.681438 0.233269 0.130324
H70   H     H_    0.578803 0.599406 0.166715 0.138572
H71   H     H_    0.547189 0.641968 0.100772 0.174855
H72   H     H_    0.424001 0.400009 0.827887 0.138607
H73   H     H_    0.486457 0.316920 0.762339 0.131091
H74   H     H_    0.456437 0.358153 0.892923 0.176857
H75   H     H_    0.785015 0.393837 0.167004 0.143026
H76   H     H_    0.873330 0.419383 0.039872 0.131630
H77   H     H_    0.859508 0.337902 0.127330 0.172601
H78   H     H_    0.780863 0.392153 0.831567 0.104188
H79   H     H_    0.126623 0.578490 0.960383 0.122392
H80   H     H_    0.215570 0.602388 0.833615 0.138286
H81   H     H_    0.142006 0.658648 0.870158 0.176112
H82   H     H_    0.215596 0.398296 0.833726 0.137997
H83   H     H_    0.126860 0.422661 0.960592 0.122383
H84   H     H_    0.141603 0.342807 0.870749 0.176777
H85   H     H_    0.818684 0.806797 0.976296 0.142701
H86   H     H_    0.907499 0.764976 0.887102 0.145207
H87   H     H_    0.869744 0.808097 0.020423 0.166846
H88   H     H_    0.594206 0.108489 0.677968 0.101931
N1    N     N_R   0.389620 0.081040 0.705440 -0.033965
N2    N     N_R   0.417680 0.920160 0.443370 -0.038808
N3    N     N_R   0.417680 0.079840 0.443370 -0.038473
N4    N     N_R   0.582320 0.920160 0.556630 -0.038572
N5    N     N_R   0.082320 0.579840 0.556630 -0.043007
N6    N     N_R   0.917680 0.420160 0.443370 -0.044221
N7    N     N_R   0.917680 0.579840 0.443370 -0.044347
N8    N     N_R   0.082320 0.420160 0.556630 -0.044348
N9    N     N_R   0.627920 0.078930 0.443400 -0.035133
N10   N     N_R   0.372080 0.921070 0.556600 -0.035311
N11   N     N_R   0.372080 0.078930 0.556600 -0.035464
N12   N     N_R   0.610380 0.918960 0.294560 -0.032607
N13   N     N_R   0.627920 0.921070 0.443400 -0.034547
N14   N     N_R   0.127920 0.578930 0.443400 -0.041605
N15   N     N_R   0.872080 0.421070 0.556600 -0.041630
N16   N     N_R   0.872080 0.578930 0.556600 -0.041742
N17   N     N_R   0.127920 0.421070 0.443400 -0.042174
N18   N     N_R   0.555090 0.077730 0.294590 -0.046398
N19   N     N_R   0.444910 0.922270 0.705410 -0.046400
N20   N     N_R   0.444910 0.077730 0.705410 -0.046412
N21   N     N_R   0.555090 0.922270 0.294590 -0.046016
N22   N     N_R   0.055090 0.577730 0.294590 -0.041125
N23   N     N_R   0.610380 0.081040 0.294560 -0.034587
N24   N     N_R   0.944910 0.422270 0.705410 -0.040610
N25   N     N_R   0.944910 0.577730 0.705410 -0.036384
N26   N     N_R   0.055090 0.422270 0.294590 -0.040635
N27   N     N_R   0.389620 0.918960 0.705440 -0.034143
N28   N     N_R   0.889620 0.581040 0.705440 -0.026875
N29   N     N_R   0.110380 0.418960 0.294560 -0.028840
N30   N     N_R   0.110380 0.581040 0.294560 -0.029363
N31   N     N_R   0.889620 0.418960 0.705440 -0.029419
N32   N     N_R   0.582320 0.079840 0.556630 -0.038860
Ni1   Ni    Ni4+2 0.382970 0.000000 0.629840 0.220178
Ni2   Ni    Ni4+2 0.617030 1.000000 0.370160 0.214961
Ni3   Ni    Ni4+2 0.882970 0.500000 0.629840 0.212240
Ni4   Ni    Ni4+2 0.117030 0.500000 0.370160 0.210672
Ni5   Ni    Ni4+2 0.514540 0.000000 0.629840 0.208761
Ni6   Ni    Ni4+2 0.485460 1.000000 0.370160 0.207867
Ni7   Ni    Ni4+2 0.014540 0.500000 0.629840 0.201486
Ni8   Ni    Ni4+2 0.985460 0.500000 0.370160 0.201075
O1    O     O_3   0.383181 0.711796 0.906676 -0.602126
O2    O     O_3   0.617204 0.287945 0.092667 -0.602508
O3    O     O_3   0.617892 0.712164 0.093030 -0.603535
O4    O     O_3   0.383928 0.288353 0.905043 -0.601275
O5    O     O_3   0.830653 0.314407 0.032526 -0.603936
O6    O     O_3   0.169607 0.683638 0.966343 -0.598286
O7    O     O_3   0.169298 0.316910 0.966679 -0.597386
O8    O     O_3   0.830466 0.697643 0.029010 -0.618877

loop_
_geom_bond_atom_site_label_1
_geom_bond_atom_site_label_2
_ccdc_geom_bond_type
C45   H14   S    
C25   C31   S    
C73   C100  S    
C42   C68   A    
C9    H48   S    
C2    H46   S    
C45   N14   A    
C89   H31   S    
C45   C71   A    
C51   H19   S    
N2    Ni6   S    
C18   C26   D    
C24   C27   S    
C5    H81   S    
C12   H51   S    
N22   Ni8   S    
C53   C59   A    
C41   C67   A    
C54   C65   A    
C11   C81   S    
N25   N28   A    
C54   H22   S    
C13   C84   S    
C68   C96   S    
C49   C60   A    
C47   N16   A    
N26   N29   A    
C3    H72   S    
C34   H3    S    
C23   C29   S    
C20   C66   S    
C3    H74   S    
C8    C100  S    
C78   H38   S    
N16   Ni3   S    
N6    Ni8   S    
N11   Ni1   S    
C81   C98   S    
C16   O4    S    
C20   O5    S    
N2    N10   A    
C23   H54   S    
C6    H84   S    
N24   Ni7   S    
C32   H88   S    
C2    C85   S    
C9    C101  S    
C9    C79   S    
C77   C93   S    
N4    N13   A    
C87   H29   S    
N7    N16   A    
C35   H4    S    
C86   C94   S    
C11   H50   S    
C27   H59   S    
C66   C83   A    
C91   H33   S    
C85   C93   S    
C42   H10   S    
C104  O3    S    
C79   H39   S    
C35   C70   A    
C25   H57   S    
C80   H40   S    
C49   N18   A    
C103  H66   S    
C102  H64   S    
C4    O5    S    
C7    H86   S    
C44   C70   A    
N8    Ni7   S    
C91   C100  S    
N10   Ni1   S    
C19   C27   D    
C5    H80   S    
C56   H25   S    
C28   H23   S    
C76   C89   S    
C83   N31   A    
C28   N23   A    
N5    Ni7   S    
C71   C101  S    
C39   H34   S    
C43   C69   A    
C102  H63   S    
C13   C91   S    
C8    C78   S    
C50   C63   A    
C48   C75   A    
C7    H87   S    
N5    N14   A    
N9    Ni2   S    
C51   C62   A    
N28   Ni3   S    
C4    H76   S    
C10   H49   S    
C56   N25   A    
C82   H42   S    
C104  H71   S    
C61   N29   A    
C20   C29   D    
C28   C60   A    
C94   H44   S    
C46   N15   A    
C52   C58   A    
C77   C90   S    
C21   C63   S    
C5    O6    S    
C17   H12   S    
C84   C100  S    
C72   H67   S    
C57   H26   S    
N13   Ni2   S    
C8    H47   S    
C36   N5    A    
C47   C74   A    
C40   H8    S    
C22   C31   D    
C19   O6    S    
C55   N24   A    
C10   C80   S    
C24   H53   S    
N1    N20   A    
C104  H70   S    
C40   N8    A    
C10   C93   S    
C22   C64   S    
C6    H83   S    
C75   C98   S    
N27   Ni1   S    
N3    Ni6   S    
C43   H11   S    
N4    Ni5   S    
C8    C88   S    
C14   C23   D    
C17   N12   A    
C1    N1    A    
N7    Ni8   S    
C13   H52   S    
C80   C85   S    
N20   Ni5   S    
C3    O4    S    
C90   H32   S    
C21   O8    S    
C11   C89   S    
N29   Ni4   S    
N30   Ni4   S    
C72   N30   A    
C87   C96   S    
C70   C93   S    
C78   C97   S    
N18   Ni6   S    
C56   C63   A    
C12   C82   S    
C26   H55   S    
C16   C58   S    
C37   N6    A    
C55   H24   S    
C34   C69   A    
N26   Ni8   S    
C79   C92   S    
C74   C99   S    
C53   H21   S    
C92   C101  S    
C17   C59   A    
C32   C67   A    
C35   N4    A    
N15   Ni3   S    
C47   H16   S    
N17   Ni4   S    
C2    C99   S    
C26   C30   S    
C103  O2    S    
C81   H41   S    
C80   C99   S    
C43   N11   A    
C103  H68   S    
C4    H77   S    
C61   H56   S    
N22   N30   A    
C37   H6    S    
C76   H36   S    
C41   N9    A    
C90   C99   S    
C48   H17   S    
C55   C66   A    
N19   N27   A    
C57   C64   A    
C103  H65   S    
C22   O7    S    
C38   C74   A    
C84   H43   S    
C11   C95   S    
C16   C25   D    
C54   N22   A    
C39   C62   A    
C37   C73   A    
C31   H60   S    
C15   C24   D    
C53   N21   A    
N19   Ni5   S    
N6    N15   A    
C18   O3    S    
C29   H58   S    
C12   C92   S    
C7    H85   S    
C33   H2    S    
C84   C88   S    
C30   H61   S    
C41   H9    S    
C69   C95   S    
C39   N27   A    
C33   N2    A    
C36   C71   A    
C14   O2    S    
C82   C101  S    
C104  H69   S    
C76   C94   S    
C78   C91   S    
C65   C72   A    
C14   C60   S    
C21   C30   D    
C6    H82   S    
N8    N17   A    
C40   C75   A    
N18   N23   A    
C89   C98   S    
C81   C86   S    
N23   Ni2   S    
C3    H73   S    
C88   C97   S    
N1    Ni1   S    
C15   O1    S    
C76   C95   S    
C2    C77   S    
C1    C58   A    
C85   H27   S    
C61   C64   A    
N14   Ni4   S    
C34   N3    A    
C52   H20   S    
C50   H45   S    
C86   H28   S    
C9    C87   S    
C44   H13   S    
C32   N32   A    
C49   H18   S    
N12   N21   A    
C50   N28   A    
C44   N13   A    
C15   C62   S    
C46   H15   S    
C19   C65   S    
N31   Ni3   S    
C13   C97   S    
C77   H37   S    
N24   N31   A    
C42   N10   A    
C86   C95   S    
C67   C97   S    
C88   H30   S    
C51   N19   A    
C18   C59   S    
C79   C96   S    
C10   C90   S    
N3    N11   A    
C48   N17   A    
C83   H78   S    
C102  O1    S    
C102  H62   S    
C57   N26   A    
C36   H5    S    
C52   N20   A    
C94   C98   S    
C38   N7    A    
C12   C96   S    
C6    O7    S    
C7    O8    S    
C4    H75   S    
N9    N32   A    
C38   H7    S    
N32   Ni5   S    
C92   H35   S    
N12   Ni2   S    
C5    H79   S    
C46   C73   A    
N25   Ni7   S    
N21   Ni6   S    
C82   C87   S    
C33   C68   A    
C1    H1    S    
