data_mof_unit_41745.cif
_audit_creation_date              2012-12-10T17:23:13-0500
_audit_creation_method            fapswitch 2.2
_symmetry_space_group_name_H-M    P1
_symmetry_Int_Tables_number       1
_space_group_crystal_system       triclinic
_cell_length_a                    15.879174
_cell_length_b                    10.779659
_cell_length_c                    9.647625
_cell_angle_alpha                 91.24139
_cell_angle_beta                  89.802361
_cell_angle_gamma                 93.874047
_cell_volume                      1647.24059145

loop_
_atom_site_label
_atom_site_type_symbol
_atom_type_description
_atom_site_fract_x
_atom_site_fract_y
_atom_site_fract_z
_atom_type_partial_charge
C1    C     C_R   0.502168 0.261406 0.497978 0.857149
C2    C     C_3   0.083671 0.494895 0.506017 0.007947
C3    C     C_3   0.976579 0.609476 0.527874 0.290774
C4    C     C_3   0.915273 0.494053 0.505943 0.048825
C5    C     C_3   0.030569 0.567001 0.405899 0.295744
C6    C     C_3   0.970022 0.451283 0.384406 0.268255
C7    C     C_1   0.175279 0.497134 0.503017 0.181633
C8    C     C_1   0.824046 0.495594 0.502831 0.188138
C9    C     C_R   0.562604 0.113292 0.730912 0.345974
C10   C     C_R   0.550182 0.063338 0.864980 0.287270
C11   C     C_R   0.495542 0.957724 0.881054 -0.107044
C12   C     C_R   0.340179 0.499290 0.500208 0.775655
C13   C     C_R   0.459064 0.894540 0.765958 0.355223
C14   C     C_R   0.478595 0.938599 0.630882 -0.147996
C15   C     C_R   0.514239 0.060434 0.618253 0.006426
C16   C     C_R   0.500119 0.123918 0.493642 -0.189262
C17   C     C_R   0.466043 0.055136 0.375999 -0.120906
C18   C     C_R   0.450011 0.926262 0.383609 0.467804
C19   C     C_R   0.466407 0.866320 0.507743 -0.237144
C20   C     C_R   0.641032 0.611098 0.142245 -0.131883
C21   C     C_R   0.719013 0.597615 0.075313 0.208540
C22   C     C_R   0.719366 0.594334 0.929842 0.420658
C23   C     C_R   0.487484 0.734872 0.502078 0.788838
C24   C     C_R   0.642584 0.608726 0.862396 -0.049775
C25   C     C_R   0.566602 0.561509 0.926852 -0.004643
C26   C     C_R   0.566735 0.560317 0.075156 0.083107
C27   C     C_R   0.438574 0.436224 0.074603 0.514854
C28   C     C_R   0.441950 0.428143 0.925744 -0.012339
C29   C     C_R   0.659652 0.499029 0.499940 0.841906
C30   C     C_3   0.967737 0.421156 0.607269 -0.171365
C31   C     C_3   0.022568 0.377768 0.484239 -0.158810
C32   C     C_1   0.250706 0.498418 0.501148 -0.094475
C33   C     C_1   0.748840 0.497045 0.500675 -0.083822
C34   C     C_3   0.029236 0.537963 0.629481 -0.160782
Cu1   Cu    Cu3+1 0.499990 0.499990 0.640660 0.998867
Cu2   Cu    Cu3+1 0.500010 0.500010 0.359340 1.018740
H1    H     H_    0.482182 0.923210 0.983991 0.245291
N1    N     N_R   0.500800 0.501210 0.147910 -0.199508
N2    N     N_R   0.500830 0.501290 0.852040 -0.210214
O1    O     O_R   0.499990 0.319640 0.618810 -0.560567
O2    O     O_R   0.500000 0.319660 0.381240 -0.593519
O3    O     O_R   0.379070 0.499980 0.618770 -0.607018
O4    O     O_R   0.379080 0.500000 0.381190 -0.520701
O5    O     O_R   0.500000 0.680340 0.618760 -0.578581
O6    O     O_R   0.500010 0.680360 0.381190 -0.548275
O7    O     O_R   0.620920 0.500000 0.618810 -0.535224
O8    O     O_R   0.620930 0.500020 0.381230 -0.620591
C35   C     C_2   0.045056 0.246609 0.457868 0.429559
H2    H     H_    0.995311 0.173533 0.443333 0.105727
O9    O     O_2   0.118739 0.221296 0.452666 -0.512511
O10   O     O_3   0.401701 0.795376 0.790389 -0.659684
H3    H     H_    0.366942 0.778576 0.706059 0.341530
O11   O     O_3   0.418175 0.861133 0.268066 -0.645086
H4    H     H_    0.382462 0.788150 0.299822 0.335950
O12   O     O_3   0.374859 0.374291 0.148239 -0.657859
H5    H     H_    0.323050 0.367806 0.090898 0.344487
C36   C     C_2   0.638824 0.725015 0.229261 0.518065
H6    H     H_    0.679502 0.739178 0.319140 0.061039
O13   O     O_2   0.595222 0.808348 0.195421 -0.517215
O14   O     O_3   0.794772 0.614560 0.145302 -0.699555
H7    H     H_    0.783413 0.609336 0.245988 0.328531
O15   O     O_3   0.793417 0.601976 0.853728 -0.641039
H8    H     H_    0.841233 0.584187 0.914163 0.372436
C37   C     C_2   0.643007 0.717445 0.772040 0.517767
H9    H     H_    0.594377 0.781092 0.784150 0.055748
O16   O     O_2   0.700192 0.741180 0.689784 -0.509636
C38   C     C_2   0.390789 0.324829 0.855131 0.372309
H10   H     H_    0.366551 0.331448 0.752305 0.136719
O17   O     O_2   0.377121 0.225266 0.911834 -0.515107
C39   C     C_2   0.934663 0.339074 0.721393 0.414160
H11   H     H_    0.978512 0.292898 0.785317 0.090606
O18   O     O_2   0.858975 0.323874 0.743102 -0.506140
O19   O     O_3   0.938069 0.407215 0.256371 -0.684209
H12   H     H_    0.988245 0.390480 0.199318 0.347668
O20   O     O_3   0.063673 0.643164 0.300722 -0.683461
H13   H     H_    0.014003 0.674852 0.254556 0.363781
O21   O     O_3   0.951452 0.730226 0.549485 -0.669745
H14   H     H_    0.004558 0.783628 0.558203 0.348535
C40   C     C_2   0.059217 0.588309 0.767940 0.429009
H15   H     H_    0.013623 0.615798 0.844707 0.106649
O22   O     O_2   0.134370 0.598498 0.795122 -0.514925
C41   C     C_2   0.447463 0.113246 0.242281 0.590577
H16   H     H_    0.493881 0.176615 0.193804 0.114834
O23   O     O_2   0.380116 0.088804 0.183784 -0.432829
O24   O     O_3   0.625541 0.204798 0.704335 -0.700817
H17   H     H_    0.669361 0.204584 0.777038 0.358286
O25   O     O_3   0.587058 0.117686 0.982485 -0.716240
H18   H     H_    0.598755 0.207727 0.966763 0.328915

loop_
_geom_bond_atom_site_label_1
_geom_bond_atom_site_label_2
_ccdc_geom_bond_type
O12   H5    S    
C23   O6    A    
O19   H12   S    
C19   C23   S    
Cu1   Cu2   S    
C4    C8    S    
O11   H4    S    
C29   O8    A    
C17   C41   S    
C12   O4    A    
O24   H17   S    
C30   C31   S    
C27   O12   S    
C36   O13   D    
C27   N1    A    
C15   C16   A    
C29   C33   S    
Cu2   O8    S    
C18   C19   A    
C11   H1    S    
Cu1   O3    S    
C12   O3    A    
C1    O1    A    
C9    O24   S    
C13   O10   S    
C2    C7    S    
C16   C17   A    
C39   H11   S    
C9    C10   A    
C18   O11   S    
C2    C34   S    
C35   O9    D    
C6    C31   S    
C24   C37   S    
C13   C14   A    
C12   C32   S    
Cu2   O2    S    
C30   C39   S    
C10   O25   S    
C30   C34   S    
O10   H3    S    
C28   C38   S    
C24   C25   A    
C21   O14   S    
C4    C6    S    
C40   O22   D    
C26   N1    A    
C28   N2    A    
C25   C26   A    
O21   H14   S    
C23   O5    A    
C38   H10   S    
O14   H7    S    
C38   O17   D    
C37   O16   D    
C5    O20   S    
Cu1   N2    S    
O20   H13   S    
O15   H8    S    
C34   C40   S    
C22   O15   S    
C17   C18   A    
Cu2   O6    S    
C1    C16   S    
Cu1   O5    S    
C1    O2    A    
C35   H2    S    
C41   O23   D    
C31   C35   S    
C22   C24   A    
C2    C5    S    
C3    C4    S    
C3    O21   S    
C6    O19   S    
C7    C32   T    
C14   C19   A    
C3    C5    S    
C3    C34   S    
C29   O7    A    
C37   H9    S    
Cu2   N1    S    
Cu1   O1    S    
C9    C15   A    
C25   N2    A    
C11   C13   A    
C36   H6    S    
C5    C6    S    
C20   C26   A    
C8    C33   T    
C10   C11   A    
C40   H15   S    
C20   C21   A    
O25   H18   S    
C41   H16   S    
C27   C28   A    
C14   C15   A    
C2    C31   S    
Cu2   O4    S    
C39   O18   D    
C20   C36   S    
C21   C22   A    
Cu1   O7    S    
C4    C30   S    
