data_mof_unit_6076.cif
_audit_creation_date              2013-03-05T16:38:59-0500
_audit_creation_method            fapswitch 2.2
_symmetry_space_group_name_H-M    P1
_symmetry_Int_Tables_number       1
_space_group_crystal_system       triclinic
_cell_length_a                    15.982629
_cell_length_b                    14.73507
_cell_length_c                    23.570398
_cell_angle_alpha                 89.892192
_cell_angle_beta                  90.856403
_cell_angle_gamma                 89.670248
_cell_volume                      5550.22754611

loop_
_atom_site_label
_atom_site_type_symbol
_atom_site_description
_atom_site_fract_x
_atom_site_fract_y
_atom_site_fract_z
_atom_type_partial_charge
O1    O     O_R   0.380310 0.575320 0.500010 -0.583839
O2    O     O_R   0.619690 0.424680 0.499990 -0.583101
O3    O     O_R   0.619690 0.575320 0.499990 -0.561062
O4    O     O_R   0.380310 0.424680 0.500010 -0.574492
C1    C     C_R   0.340898 0.500314 0.499710 0.798969
C2    C     C_R   0.659164 0.499708 0.500463 0.793992
O5    O     O_R   0.499980 0.575360 0.417880 -0.579980
O6    O     O_R   0.500020 0.424640 0.582120 -0.540866
O7    O     O_R   0.500020 0.575360 0.582120 -0.582506
O8    O     O_R   0.499980 0.424640 0.417880 -0.542906
C3    C     C_R   0.499917 0.500194 0.390633 0.863620
C4    C     C_R   0.500165 0.499952 0.609491 0.857078
Cu1   Cu    Cu3+1 0.500000 0.589220 0.500000 0.955434
Cu2   Cu    Cu3+1 0.500000 0.410780 0.500000 0.988322
C5    C     C_R   0.570415 0.475956 0.879790 0.526253
C6    C     C_R   0.432588 0.459254 0.121034 0.541307
N1    N     N_R   0.494578 0.481664 0.852628 -0.438650
N2    N     N_R   0.506060 0.479839 0.148093 -0.429982
C7    C     C_R   0.421608 0.478069 0.881644 0.603122
C8    C     C_R   0.578195 0.491441 0.118992 0.613782
C9    C     C_R   0.422636 0.463420 0.940873 -0.074797
C10   C     C_R   0.579661 0.477825 0.059791 -0.075315
C11   C     C_R   0.500266 0.469711 0.970368 -0.097828
C12   C     C_R   0.502237 0.469057 0.030340 -0.098491
C13   C     C_R   0.575720 0.477930 0.939740 -0.058417
C14   C     C_R   0.426800 0.461100 0.061029 -0.060228
C15   C     C_R   0.348472 0.446120 0.971305 0.166821
C16   C     C_R   0.655533 0.476648 0.029344 0.165871
C17   C     C_R   0.349030 0.454317 0.031046 0.162770
C18   C     C_R   0.653350 0.486214 0.969702 0.163767
O9    O     O_2   0.639661 0.466729 0.848283 -0.561077
O10   O     O_2   0.366310 0.436440 0.152656 -0.561083
O11   O     O_2   0.348800 0.491940 0.853172 -0.539745
O12   O     O_2   0.647162 0.519693 0.147314 -0.550954
C19   C     C_R   0.549059 0.424487 0.242077 0.360160
C20   C     C_R   0.461080 0.418301 0.758864 0.357304
C21   C     C_R   0.552646 0.433280 0.301038 0.313636
C22   C     C_R   0.457784 0.425481 0.699823 0.294986
C23   C     C_R   0.503753 0.500319 0.327971 -0.271123
C24   C     C_R   0.496697 0.499331 0.672376 -0.275255
C25   C     C_R   0.459285 0.565833 0.294732 0.069596
C26   C     C_R   0.531502 0.571000 0.705417 0.058870
C27   C     C_R   0.464942 0.563119 0.234762 0.159962
C28   C     C_R   0.523745 0.568964 0.765256 0.169489
C29   C     C_R   0.507184 0.489906 0.208855 0.156150
C30   C     C_R   0.492062 0.490415 0.791750 0.158321
C31   C     C_R   0.954221 0.577131 0.480669 0.313172
C32   C     C_R   0.046146 0.423148 0.516126 0.291562
C33   C     C_R   0.041860 0.579422 0.481479 0.316625
C34   C     C_R   0.958436 0.423055 0.518923 0.292387
C35   C     C_R   0.912769 0.499331 0.500068 -0.192929
C36   C     C_R   0.087534 0.501794 0.498470 -0.195663
C37   C     C_1   0.823179 0.498481 0.500995 0.095976
C38   C     C_1   0.177067 0.502215 0.498433 0.082988
C39   C     C_1   0.252007 0.501313 0.498968 -0.202399
C40   C     C_1   0.748178 0.498883 0.500947 -0.199623
C41   C     C_R   0.506532 0.952175 0.551652 0.300096
C42   C     C_R   0.490500 0.048036 0.448616 0.310451
C43   C     C_R   0.485273 0.951343 0.449445 0.310311
C44   C     C_R   0.506923 0.048425 0.551176 0.302007
C45   C     C_R   0.497673 0.902859 0.500611 -0.255899
C46   C     C_R   0.497909 0.097087 0.499821 -0.262815
C47   C     C_1   0.499277 0.802693 0.500504 0.271769
C48   C     C_1   0.498777 0.197314 0.499780 0.286366
N3    N     N_1   0.500000 0.276710 0.500000 -0.165793
N4    N     N_1   0.500000 0.723290 0.500000 -0.173667
C49   C     C_3   0.271104 0.409415 0.941219 -0.773054
H1    H     H_    0.288738 0.364384 0.905552 0.252850
H2    H     H_    0.234065 0.365475 0.969621 0.210465
H3    H     H_    0.231022 0.466178 0.925517 0.253734
C50   C     C_3   0.738247 0.455564 0.059256 -0.776293
H4    H     H_    0.729243 0.407190 0.094809 0.253529
H5    H     H_    0.782414 0.420420 0.030647 0.210605
H6    H     H_    0.767413 0.519030 0.075108 0.253706
C51   C     C_3   0.266175 0.464143 0.061311 -0.767197
H7    H     H_    0.213505 0.481777 0.032112 0.210707
H8    H     H_    0.250721 0.400067 0.083563 0.256408
H9    H     H_    0.269006 0.521634 0.091659 0.247976
C52   C     C_3   0.732811 0.513479 0.939578 -0.765948
H10   H     H_    0.781113 0.541146 0.968928 0.210755
H11   H     H_    0.759933 0.454206 0.917234 0.255909
H12   H     H_    0.719401 0.569760 0.909330 0.247553
O13   O     O_3   0.593202 0.355629 0.216073 -0.581618
C53   C     C_3   0.542246 0.277867 0.213144 0.066975
H13   H     H_    0.481085 0.293515 0.191790 0.161018
H14   H     H_    0.530840 0.250904 0.256520 0.172000
C54   C     C_3   0.587103 0.205203 0.178689 -0.340029
H15   H     H_    0.599433 0.231971 0.135490 0.227462
H16   H     H_    0.648104 0.188337 0.199500 0.219316
C55   C     C_3   0.534907 0.119151 0.173555 -0.922268
H17   H     H_    0.522940 0.090282 0.216199 0.249689
H18   H     H_    0.569264 0.067902 0.148303 0.260681
H19   H     H_    0.474231 0.134210 0.151832 0.262645
O14   O     O_3   0.426495 0.342868 0.784312 -0.588499
C56   C     C_3   0.490927 0.281945 0.800890 0.093088
H20   H     H_    0.520284 0.305010 0.841324 0.157126
H21   H     H_    0.540183 0.275780 0.768102 0.140183
C57   C     C_3   0.453033 0.188274 0.810293 -0.334152
H22   H     H_    0.399962 0.194025 0.840065 0.228915
H23   H     H_    0.428646 0.161716 0.769173 0.227225
C58   C     C_3   0.517516 0.121696 0.834936 -0.934592
H24   H     H_    0.572325 0.115979 0.806764 0.257096
H25   H     H_    0.488770 0.053648 0.839227 0.260130
H26   H     H_    0.539045 0.144698 0.877541 0.262515
O15   O     O_3   0.599046 0.370295 0.332001 -0.589551
C59   C     C_3   0.674023 0.409740 0.353004 0.107630
H27   H     H_    0.689491 0.375244 0.393790 0.141831
H28   H     H_    0.668049 0.483198 0.363798 0.103400
C60   C     C_3   0.747042 0.392553 0.312569 -0.372701
H29   H     H_    0.804331 0.375484 0.337834 0.169240
H30   H     H_    0.733206 0.333695 0.284650 0.264412
C61   C     C_3   0.765935 0.475445 0.276125 -0.777334
H31   H     H_    0.709011 0.499307 0.253084 0.295633
H32   H     H_    0.814407 0.457750 0.244692 0.249325
H33   H     H_    0.790063 0.531175 0.303257 0.217354
O16   O     O_3   0.422569 0.354654 0.669291 -0.581407
C62   C     C_3   0.341399 0.379209 0.649490 0.124698
H34   H     H_    0.329303 0.340753 0.609718 0.177215
H35   H     H_    0.335041 0.452563 0.638212 0.090998
C63   C     C_3   0.275264 0.353068 0.692902 -0.342689
H36   H     H_    0.285850 0.281801 0.706951 0.244052
H37   H     H_    0.280730 0.398117 0.730506 0.250808
C64   C     C_3   0.187019 0.361842 0.667763 -0.903243
H38   H     H_    0.175534 0.431952 0.651929 0.263056
H39   H     H_    0.140449 0.346218 0.700824 0.253969
H40   H     H_    0.178546 0.313125 0.632303 0.283960
C65   C     C_3   0.405847 0.637236 0.323366 -0.767260
H41   H     H_    0.366014 0.605290 0.355950 0.223863
H42   H     H_    0.447102 0.688709 0.343401 0.251280
H43   H     H_    0.362099 0.673085 0.294085 0.222707
C66   C     C_3   0.578844 0.647255 0.676996 -0.747247
H44   H     H_    0.615376 0.689779 0.706902 0.218970
H45   H     H_    0.625110 0.618571 0.647147 0.227118
H46   H     H_    0.534388 0.692389 0.653702 0.248351
C67   C     C_3   0.427764 0.638687 0.198532 -0.783489
H47   H     H_    0.448841 0.636488 0.153970 0.223211
H48   H     H_    0.358437 0.634436 0.198306 0.234638
H49   H     H_    0.447778 0.705551 0.215448 0.223344
C68   C     C_3   0.547411 0.650737 0.800799 -0.788431
H50   H     H_    0.523342 0.646973 0.844604 0.225346
H51   H     H_    0.616537 0.657082 0.803352 0.237335
H52   H     H_    0.519595 0.713181 0.781796 0.221834
O17   O     O_3   0.081694 0.656371 0.462018 -0.592877
C69   C     C_3   0.114497 0.707170 0.508127 0.094806
H53   H     H_    0.183920 0.704437 0.506163 0.156114
H54   H     H_    0.096219 0.681786 0.550925 0.118202
C70   C     C_3   0.085289 0.805837 0.502247 -0.312120
H55   H     H_    0.097326 0.830752 0.458639 0.226670
H56   H     H_    0.016765 0.809645 0.509359 0.236607
C71   C     C_3   0.130342 0.867278 0.544720 -0.951380
H57   H     H_    0.118403 0.844507 0.588801 0.259880
H58   H     H_    0.107080 0.938036 0.539641 0.263015
H59   H     H_    0.198803 0.866377 0.537176 0.251905
O18   O     O_3   0.917463 0.346345 0.537469 -0.595338
C72   C     C_3   0.917593 0.345676 0.597447 0.106103
H60   H     H_    0.866396 0.390507 0.612707 0.136398
H61   H     H_    0.978126 0.369155 0.616451 0.162578
C73   C     C_3   0.902693 0.248800 0.617918 -0.328462
H62   H     H_    0.841220 0.224788 0.601431 0.217289
H63   H     H_    0.952323 0.203489 0.601096 0.229047
C74   C     C_3   0.904172 0.243234 0.682590 -0.933312
H64   H     H_    0.966554 0.263342 0.699591 0.259393
H65   H     H_    0.891509 0.172466 0.696087 0.260748
H66   H     H_    0.855553 0.288563 0.700530 0.266623
O19   O     O_3   0.909643 0.654979 0.466786 -0.580992
C75   C     C_3   0.887187 0.652227 0.408685 0.088896
H67   H     H_    0.843832 0.594801 0.400021 0.128568
H68   H     H_    0.943688 0.644826 0.381837 0.157281
C76   C     C_3   0.842849 0.741126 0.392934 -0.323757
H69   H     H_    0.789208 0.752218 0.421663 0.233910
H70   H     H_    0.887268 0.798312 0.398570 0.219757
C77   C     C_3   0.810471 0.740327 0.331715 -0.921505
H71   H     H_    0.862264 0.725679 0.302124 0.258332
H72   H     H_    0.783131 0.807722 0.320894 0.261296
H73   H     H_    0.760927 0.688384 0.326438 0.258340
O20   O     O_3   0.091677 0.349398 0.536229 -0.602998
C78   C     C_3   0.101847 0.286446 0.491813 0.090702
H74   H     H_    0.133143 0.318624 0.454952 0.138812
H75   H     H_    0.040058 0.259057 0.477854 0.167749
C79   C     C_3   0.156669 0.207974 0.513452 -0.336936
H76   H     H_    0.218421 0.234720 0.527671 0.226686
H77   H     H_    0.126344 0.175507 0.550410 0.218453
C80   C     C_3   0.170256 0.136693 0.467547 -0.925218
H78   H     H_    0.109417 0.107692 0.453462 0.253323
H79   H     H_    0.210292 0.080939 0.484755 0.258623
H80   H     H_    0.201939 0.167285 0.430560 0.264080
O21   O     O_3   0.509552 0.094686 0.602084 -0.582120
C81   C     C_3   0.593504 0.115531 0.615653 0.094378
H81   H     H_    0.622862 0.155474 0.581079 0.123758
H82   H     H_    0.630402 0.052129 0.623199 0.164216
C82   C     C_3   0.594986 0.172238 0.669737 -0.319796
H83   H     H_    0.555339 0.233729 0.663376 0.264325
H84   H     H_    0.568673 0.131639 0.704882 0.219801
C83   C     C_3   0.683518 0.201532 0.685761 -0.957104
H85   H     H_    0.725024 0.141320 0.691150 0.263738
H86   H     H_    0.682656 0.239656 0.726330 0.262447
H87   H     H_    0.708653 0.246528 0.652328 0.267023
O22   O     O_3   0.474154 0.903296 0.399467 -0.609728
C84   C     C_3   0.389484 0.908621 0.381131 0.085911
H88   H     H_    0.388176 0.893708 0.334939 0.165856
H89   H     H_    0.361674 0.977682 0.385990 0.162827
C85   C     C_3   0.335936 0.838082 0.411697 -0.388085
H90   H     H_    0.368495 0.771381 0.412020 0.243266
H91   H     H_    0.326648 0.859260 0.456402 0.198669
C86   C     C_3   0.250626 0.827299 0.382733 -0.905329
H92   H     H_    0.214559 0.891831 0.384954 0.255438
H93   H     H_    0.215262 0.773047 0.404358 0.277703
H94   H     H_    0.258052 0.807536 0.337625 0.254734
O23   O     O_3   0.482757 0.095521 0.397997 -0.603072
C87   C     C_3   0.557125 0.086949 0.366460 0.086199
H95   H     H_    0.541421 0.105531 0.321878 0.160678
H96   H     H_    0.581793 0.016136 0.365361 0.166558
C88   C     C_3   0.624986 0.151619 0.388587 -0.359440
H97   H     H_    0.598544 0.221168 0.391933 0.271773
H98   H     H_    0.646645 0.129625 0.431490 0.193208
C89   C     C_3   0.699983 0.153047 0.349355 -0.899013
H99   H     H_    0.727857 0.084069 0.346021 0.250062
H100  H     H_    0.748161 0.199810 0.366697 0.253135
H101  H     H_    0.680551 0.177024 0.306438 0.263560
O24   O     O_3   0.519838 0.907156 0.602510 -0.593621
C90   C     C_3   0.441995 0.889009 0.627707 0.094905
H102  H     H_    0.417841 0.823344 0.611199 0.134665
H103  H     H_    0.394041 0.943057 0.619165 0.142424
C91   C     C_3   0.455014 0.882299 0.691972 -0.321516
H104  H     H_    0.507022 0.834327 0.701917 0.220918
H105  H     H_    0.472571 0.950086 0.708885 0.229511
C92   C     C_3   0.376096 0.849858 0.721242 -0.930418
H106  H     H_    0.323272 0.897369 0.712371 0.258526
H107  H     H_    0.387473 0.846970 0.767802 0.260520
H108  H     H_    0.359110 0.780871 0.706194 0.261571

loop_
_geom_bond_atom_site_label_1
_geom_bond_atom_site_label_2
_geom_bond_distance
_ccdc_geom_bond_type
C42   C46   1.411753 A    
C67   H49   1.110536 S    
C83   H86   1.110162 S    
C54   H15   1.112013 S    
N2    C29   1.439962 S    
C58   H24   1.110018 S    
C72   H61   1.117058 S    
C62   H34   1.111340 S    
C25   C27   1.418391 A    
C76   H69   1.111935 S    
C25   C65   1.517076 S    
C64   H39   1.110347 S    
C56   H20   1.110685 S    
C53   C54   1.527010 S    
C80   H78   1.110858 S    
C66   H46   1.109107 S    
C91   H104  1.110098 S    
C61   H32   1.110238 S    
C74   H64   1.111006 S    
C56   C57   1.527573 S    
C67   H47   1.108314 S    
C23   C25   1.422479 A    
C88   H97   1.109670 S    
C77   H71   1.110879 S    
O5    C3    1.281346 A    
C88   C89   1.525004 S    
O19   C75   1.411228 S    
C85   H91   1.111358 S    
C81   C82   1.525518 S    
O1    C1    1.275240 A    
C81   H82   1.114495 S    
C19   C21   1.396356 A    
C53   H14   1.114129 S    
C90   C91   1.528827 S    
C62   H35   1.116295 S    
C31   O19   1.383020 S    
C68   H52   1.110253 S    
C37   C40   1.198690 T    
C83   H87   1.110191 S    
C15   C17   1.413428 A    
C59   H27   1.110512 S    
C43   O22   1.385209 S    
O17   C69   1.416629 S    
O16   C62   1.416892 S    
C44   C46   1.410843 A    
C41   C45   1.412388 A    
C45   C47   1.476034 S    
O7    Cu1   1.945958 S    
C61   H31   1.107756 S    
C46   C48   1.476991 S    
C73   C74   1.526206 S    
C54   C55   1.525806 S    
C73   H63   1.111977 S    
C70   H55   1.110661 S    
C77   H72   1.110377 S    
C78   H75   1.114336 S    
C71   H59   1.111181 S    
C84   C85   1.535481 S    
C11   C12   1.413446 A    
C89   H101  1.110204 S    
C20   C30   1.404592 A    
O22   C84   1.416128 S    
O3    Cu1   1.922726 S    
C79   C80   1.526357 S    
C8    O12   1.348431 S    
C33   C36   1.407696 A    
C24   C26   1.424108 A    
C83   H85   1.110693 S    
C9    C15   1.418703 A    
C47   N4    1.170087 T    
C84   H88   1.111032 S    
C58   H25   1.110406 S    
C10   C16   1.418314 A    
Cu1   Cu2   2.629324 S    
C72   C73   1.527087 S    
C75   H68   1.115364 S    
C76   H70   1.111836 S    
O2    C2    1.276026 A    
C26   C28   1.417996 A    
C69   C70   1.529829 S    
O24   C90   1.413295 S    
C74   H65   1.110251 S    
C63   H37   1.111044 S    
O23   C87   1.416442 S    
Cu1   N4    1.975532 S    
C88   H98   1.111067 S    
C6    C14   1.416180 A    
C43   C45   1.411405 A    
C85   H90   1.109415 S    
O13   C53   1.410776 S    
C49   H1    1.110633 S    
C64   H38   1.111100 S    
C70   C71   1.526340 S    
N1    C30   1.440396 S    
C42   O23   1.385590 S    
C31   C33   1.401139 A    
C7    O11   1.348947 S    
C60   C61   1.526105 S    
C2    C40   1.422522 S    
C52   H11   1.110087 S    
C19   O13   1.382004 S    
O4    C1    1.276966 A    
C41   C44   1.418329 A    
C31   C35   1.406427 A    
C28   C30   1.414039 A    
C42   C43   1.427822 A    
C86   H92   1.110851 S    
C85   C86   1.524937 S    
C82   H83   1.111305 S    
C81   H81   1.115119 S    
C49   H2    1.110136 S    
C63   C64   1.526312 S    
C4    C24   1.484114 S    
C3    C23   1.479151 S    
C51   H7    1.108748 S    
C65   H42   1.109421 S    
C21   O15   1.384667 S    
C90   H102  1.112596 S    
C71   H58   1.110576 S    
C20   O14   1.383928 S    
C52   H12   1.110478 S    
C80   H79   1.110773 S    
C22   O16   1.386130 S    
C55   H18   1.110297 S    
C92   H106  1.110856 S    
C32   C36   1.403190 A    
O6    C4    1.284675 A    
C78   C79   1.528928 S    
C56   H21   1.114839 S    
C34   C35   1.404440 A    
C63   H36   1.111767 S    
C36   C38   1.431035 S    
C6    N2    1.363880 A    
C53   H13   1.115487 S    
C27   C67   1.515186 S    
C27   C29   1.413835 A    
C51   H8    1.110069 S    
O18   C72   1.413703 S    
C26   C66   1.518519 S    
C14   C17   1.424720 A    
C18   C52   1.519921 S    
C69   H54   1.118719 S    
O20   C78   1.410637 S    
C92   H107  1.110417 S    
C8    C10   1.410644 A    
C57   H22   1.111882 S    
C28   C68   1.515382 S    
C57   H23   1.111907 S    
O8    C3    1.284194 A    
C9    C11   1.416728 A    
O8    Cu2   1.945958 S    
C73   H62   1.111119 S    
C76   C77   1.525731 S    
C10   C12   1.416444 A    
C62   C63   1.532390 S    
C16   C50   1.519155 S    
O1    Cu1   1.925071 S    
C66   H44   1.106332 S    
C19   C29   1.401570 A    
C91   C92   1.525483 S    
C74   H66   1.110703 S    
C79   H76   1.112124 S    
C55   H19   1.110890 S    
C50   H5    1.110179 S    
C86   H94   1.110790 S    
C13   C18   1.424402 A    
C67   H48   1.110094 S    
C38   C39   1.197613 T    
O6    Cu2   1.946723 S    
C5    C13   1.414687 A    
C79   H77   1.111895 S    
C7    C9    1.412062 A    
C1    C39   1.420554 S    
C12   C14   1.420576 A    
C69   H53   1.111715 S    
C66   H45   1.110614 S    
C89   H100  1.110211 S    
C91   H105  1.112080 S    
C50   H6    1.110213 S    
C64   H40   1.110051 S    
C68   H50   1.108608 S    
C77   H73   1.110266 S    
C5    O9    1.348353 S    
C17   C51   1.519834 S    
C41   O24   1.382035 S    
C6    O10   1.348114 S    
C87   C88   1.534040 S    
C70   H56   1.111538 S    
O15   C59   1.417845 S    
C87   H96   1.113802 S    
C57   C58   1.526523 S    
C80   H80   1.110858 S    
C49   H3    1.110190 S    
C48   N3    1.170203 T    
C60   H30   1.110905 S    
C65   H43   1.106423 S    
C16   C18   1.412485 A    
C21   C23   1.413413 A    
C60   H29   1.112089 S    
C82   H84   1.110136 S    
C20   C22   1.395617 A    
C22   C24   1.416549 A    
C44   O21   1.381344 S    
C68   H51   1.110040 S    
C55   H17   1.110355 S    
C75   H67   1.114013 S    
C59   H28   1.116259 S    
C34   O18   1.383022 S    
C33   O17   1.384363 S    
C32   C34   1.404375 A    
N1    C7    1.362027 A    
Cu2   N3    1.975532 S    
N2    C8    1.361759 A    
C11   C13   1.420411 A    
O4    Cu2   1.922727 S    
O14   C56   1.412478 S    
O2    Cu2   1.925070 S    
C51   H9    1.110445 S    
C82   C83   1.524068 S    
C15   C49   1.518996 S    
O7    C4    1.283772 A    
C78   H74   1.115375 S    
C52   H10   1.108814 S    
C89   H99   1.110773 S    
O5    Cu1   1.946723 S    
C92   H108  1.111077 S    
C50   H4    1.110663 S    
C75   C76   1.528245 S    
C90   H103  1.118019 S    
C87   H95   1.110144 S    
O3    C2    1.277166 A    
C72   H60   1.113014 S    
C84   H89   1.114893 S    
C54   H16   1.111480 S    
C71   H57   1.110783 S    
O21   C81   1.410420 S    
C58   H26   1.110875 S    
C35   C37   1.432502 S    
C5    N1    1.364379 A    
C86   H93   1.109326 S    
C61   H33   1.109191 S    
C65   H41   1.110605 S    
C32   O20   1.383351 S    
C59   C60   1.537920 S    
