data_mof_unit_36036.cif
_audit_creation_date              2012-12-11T15:06:44-0500
_audit_creation_method            fapswitch 2.2
_symmetry_space_group_name_H-M    P1
_symmetry_Int_Tables_number       1
_space_group_crystal_system       triclinic
_cell_length_a                    7.241935
_cell_length_b                    15.03528
_cell_length_c                    22.307627
_cell_angle_alpha                 90.000398
_cell_angle_beta                  89.989592
_cell_angle_gamma                 90.002164
_cell_volume                      2428.95522678

loop_
_atom_site_label
_atom_site_type_symbol
_atom_type_description
_atom_site_fract_x
_atom_site_fract_y
_atom_site_fract_z
_atom_type_partial_charge
O1    O     O_R   0.390810 0.844810 0.447340 -0.538174
O2    O     O_R   0.109190 0.155190 0.947340 -0.538109
O3    O     O_R   0.890810 0.655190 0.552660 -0.538111
O4    O     O_R   0.609190 0.344810 0.052660 -0.538180
O5    O     O_R   0.720550 0.655820 0.440420 -0.529705
O6    O     O_R   0.779450 0.344180 0.940420 -0.529647
O7    O     O_R   0.220550 0.844180 0.559580 -0.529654
O8    O     O_R   0.279450 0.155820 0.059580 -0.529712
C1    C     C_R   0.553024 0.626904 0.426079 0.684613
C2    C     C_R   0.947002 0.373097 0.926084 0.684556
C3    C     C_R   0.053002 0.873094 0.573918 0.684532
C4    C     C_R   0.446973 0.126909 0.073924 0.684596
O9    O     O_R   0.720530 0.844130 0.440420 -0.532236
O10   O     O_R   0.779470 0.155870 0.940420 -0.532211
O11   O     O_R   0.220530 0.655870 0.559580 -0.532214
O12   O     O_R   0.279470 0.344130 0.059580 -0.532236
O13   O     O_R   0.890830 0.844810 0.552660 -0.539419
O14   O     O_R   0.609170 0.155190 0.052660 -0.539467
O15   O     O_R   0.390830 0.655190 0.447340 -0.539471
O16   O     O_R   0.109170 0.344810 0.947340 -0.539428
C5    C     C_R   0.551739 0.873098 0.426179 0.687385
C6    C     C_R   0.948286 0.126898 0.926185 0.687321
C7    C     C_R   0.051707 0.626900 0.573816 0.687292
C8    C     C_R   0.448268 0.373096 0.073822 0.687366
O17   O     O_3   0.557310 0.749980 0.536820 -0.373818
O18   O     O_3   0.942690 0.250020 0.036820 -0.373933
O19   O     O_3   0.057310 0.750020 0.463180 -0.373928
O20   O     O_3   0.442690 0.249980 0.963180 -0.373815
V1    V     V_3+5 0.832160 0.749980 0.493170 1.465996
V2    V     V_3+5 0.667840 0.250020 0.993170 1.466048
V3    V     V_3+5 0.332160 0.750020 0.506830 1.466038
V4    V     V_3+5 0.167840 0.249980 0.006830 1.465983
C9    C     C_R   0.872719 0.601270 0.861419 -0.125544
C10   C     C_R   0.628763 0.398911 0.361298 -0.125532
C11   C     C_R   0.371462 0.898900 0.138694 -0.125514
C12   C     C_R   0.127080 0.101284 0.638575 -0.125525
H1    H     H_    0.866373 0.544019 0.949416 0.115440
H2    H     H_    0.635043 0.456118 0.449307 0.115442
H3    H     H_    0.365261 0.956098 0.050681 0.115443
H4    H     H_    0.133312 0.044042 0.550571 0.115435
H5    H     H_    0.850075 0.723493 0.775749 0.156710
H6    H     H_    0.652200 0.276793 0.275570 0.156651
H7    H     H_    0.347895 0.776793 0.224419 0.156682
H8    H     H_    0.149967 0.223490 0.724252 0.156737
H9    H     H_    0.835653 0.666682 0.877918 0.121439
H10   H     H_    0.666532 0.333570 0.377752 0.121466
H11   H     H_    0.333828 0.833548 0.122232 0.121463
H12   H     H_    0.164023 0.166704 0.622069 0.121448
C13   C     C_R   0.947178 0.447354 0.882867 -0.054117
C14   C     C_R   0.552981 0.552656 0.382847 -0.054240
C15   C     C_R   0.447013 0.052670 0.117158 -0.054233
C16   C     C_R   0.052830 0.947346 0.617138 -0.054107
C17   C     C_R   0.060073 0.465849 0.593646 -0.222026
C18   C     C_R   0.438691 0.534126 0.093712 -0.222055
C19   C     C_R   0.561396 0.034127 0.406290 -0.222052
C20   C     C_R   0.939747 0.965846 0.906343 -0.221982
C21   C     C_R   0.011109 0.392330 0.628149 -0.137813
C22   C     C_R   0.487153 0.607725 0.128206 -0.137683
C23   C     C_R   0.512918 0.107729 0.371802 -0.137673
C24   C     C_R   0.988708 0.892323 0.871844 -0.137773
C25   C     C_R   0.954137 0.402813 0.687578 0.353363
C26   C     C_R   0.544622 0.597314 0.187584 0.353434
C27   C     C_R   0.455383 0.097320 0.312431 0.353433
C28   C     C_R   0.045802 0.902808 0.812427 0.353298
C29   C     C_R   0.964552 0.487437 0.715311 0.010214
C30   C     C_R   0.535205 0.512645 0.215287 0.010174
C31   C     C_R   0.464767 0.012654 0.284722 0.010196
C32   C     C_R   0.035463 0.987435 0.784695 0.010278
C33   C     C_R   0.985097 0.563255 0.677311 0.012515
C34   C     C_R   0.515236 0.436814 0.177269 0.012546
C35   C     C_R   0.484753 0.936820 0.322736 0.012543
C36   C     C_R   0.014941 0.063253 0.822696 0.012540
C37   C     C_R   0.944024 0.500449 0.778499 0.098910
C38   C     C_R   0.556136 0.499635 0.278458 0.098898
C39   C     C_R   0.443835 0.999647 0.221548 0.098869
C40   C     C_R   0.056014 0.000444 0.721506 0.098882
C41   C     C_R   0.901208 0.586757 0.799973 0.122967
C42   C     C_R   0.599884 0.413407 0.299874 0.123187
C43   C     C_R   0.400202 0.913408 0.200124 0.123168
C44   C     C_R   0.098747 0.086759 0.700028 0.122976
C45   C     C_R   0.890366 0.658162 0.760023 -0.102682
C46   C     C_R   0.611270 0.342056 0.259890 -0.102593
C47   C     C_R   0.388793 0.842058 0.240107 -0.102573
C48   C     C_R   0.109675 0.158160 0.739981 -0.102646
C49   C     C_R   0.942793 0.647819 0.700363 -0.114842
C50   C     C_R   0.558485 0.352328 0.200263 -0.114819
C51   C     C_R   0.441515 0.852333 0.299739 -0.114808
C52   C     C_R   0.057315 0.147815 0.799647 -0.114832
C53   C     C_R   0.974429 0.432013 0.821282 -0.143255
C54   C     C_R   0.525279 0.567979 0.321284 -0.143479
C55   C     C_R   0.474607 0.068004 0.178726 -0.143530
C56   C     C_R   0.025694 0.931995 0.678726 -0.143310
C57   C     C_R   0.892949 0.531833 0.902322 -0.164581
C58   C     C_R   0.608081 0.468276 0.402236 -0.164470
C59   C     C_R   0.392103 0.968269 0.097759 -0.164491
C60   C     C_R   0.106867 0.031844 0.597674 -0.164611
C61   C     C_R   0.038824 0.551884 0.616476 -0.068802
C62   C     C_R   0.461011 0.448118 0.116482 -0.068962
C63   C     C_R   0.539014 0.948120 0.383522 -0.068959
C64   C     C_R   0.961139 0.051884 0.883524 -0.068818
H13   H     H_    0.022300 0.367111 0.807616 0.141806
H14   H     H_    0.476798 0.632798 0.307668 0.141915
H15   H     H_    0.522981 0.132837 0.192344 0.141950
H16   H     H_    0.977942 0.867078 0.692395 0.141816
H17   H     H_    0.097931 0.455954 0.547117 0.128393
H18   H     H_    0.400353 0.543978 0.047224 0.128484
H19   H     H_    0.599786 0.043979 0.452774 0.128489
H20   H     H_    0.901798 0.955950 0.952865 0.128398
H21   H     H_    0.005638 0.327400 0.607214 0.147833
H22   H     H_    0.491818 0.672691 0.107300 0.147824
H23   H     H_    0.508289 0.172693 0.392713 0.147839
H24   H     H_    0.994103 0.827389 0.892778 0.147819
H25   H     H_    0.945641 0.706265 0.672087 0.111773
H26   H     H_    0.556057 0.293891 0.171972 0.111928
H27   H     H_    0.443939 0.793894 0.328027 0.111969
H28   H     H_    0.054527 0.206262 0.827923 0.111816
Cl1   Cl    Cl    0.817545 0.316542 0.717671 -0.712440
Cl2   Cl    Cl    0.680687 0.683821 0.217597 -0.712673
Cl3   Cl    Cl    0.319267 0.183820 0.282442 -0.712642
Cl4   Cl    Cl    0.182558 0.816571 0.782375 -0.712372

loop_
_geom_bond_atom_site_label_1
_geom_bond_atom_site_label_2
_ccdc_geom_bond_type
O17   V3    S    
C47   C51   A    
C22   C26   A    
C19   C23   A    
O19   V1    S    
C9    H9    S    
O3    C7    A    
H6    C46   S    
C44   C48   A    
C11   H11   S    
C36   C64   A    
C29   C37   A    
O1    C5    A    
C8    C62   S    
C28   C32   A    
O9    V1    S    
H4    C60   S    
C18   C22   A    
O4    C8    A    
C29   C33   A    
C30   C38   A    
H7    C47   S    
O1    V3    S    
O13   V1    S    
O2    V4    S    
C11   C43   A    
O3    V1    S    
C12   C60   A    
C20   H20   S    
C3    C16   S    
C15   C55   A    
C1    O15   A    
C21   H21   S    
C2    O16   A    
O2    C6    A    
C23   H23   S    
C16   C60   A    
C10   H10   S    
C51   H27   S    
C39   C55   A    
C53   H13   S    
O11   C7    A    
O15   V3    S    
O12   C8    A    
O10   V2    S    
C36   C52   A    
C14   C54   A    
O5    V1    S    
C27   C31   A    
O7    V3    S    
C18   H18   S    
C25   Cl1   S    
O8    V4    S    
C40   C44   A    
O9    C5    A    
C6    C64   S    
C12   C44   A    
C13   C53   A    
C26   C30   A    
O18   V4    S    
C14   C58   A    
C17   C61   A    
C46   C50   A    
C35   C63   A    
C20   C24   A    
C19   H19   S    
C32   C36   A    
C52   H28   S    
O7    C3    A    
O5    C1    A    
C24   H24   S    
C25   C29   A    
C27   Cl3   S    
C42   C46   A    
C41   C45   A    
O8    C4    A    
H5    C45   S    
H2    C58   S    
H1    C57   S    
O11   V3    S    
H3    C59   S    
C40   C56   A    
C35   C51   A    
C7    C61   S    
C10   C58   A    
O14   V2    S    
C16   C56   A    
C32   C40   A    
C20   C64   A    
C4    O14   A    
C34   C50   A    
C4    C15   S    
C33   C49   A    
O16   V4    S    
C3    O13   A    
C17   C21   A    
O6    V2    S    
C22   H22   S    
C1    C14   S    
C48   C52   A    
C55   H15   S    
H8    C48   S    
C9    C57   A    
O6    C2    A    
C21   C25   A    
C11   C59   A    
O12   V4    S    
C23   C27   A    
C28   Cl4   S    
C50   H26   S    
C24   C28   A    
O10   C6    A    
C49   H25   S    
C37   C53   A    
C54   H14   S    
C10   C42   A    
C43   C47   A    
C9    C41   A    
C30   C34   A    
C5    C63   S    
C38   C54   A    
O20   V2    S    
C12   H12   S    
C31   C35   A    
O4    V2    S    
C26   Cl2   S    
C56   H16   S    
C17   H17   S    
C31   C39   A    
C38   C42   A    
C19   C63   A    
C37   C41   A    
C18   C62   A    
C13   C57   A    
C2    C13   S    
C39   C43   A    
C45   C49   A    
C34   C62   A    
C15   C59   A    
C33   C61   A    
