data_mof_unit_47477.cif
_audit_creation_date              2012-12-10T17:02:28-0500
_audit_creation_method            fapswitch 2.2
_symmetry_space_group_name_H-M    P1
_symmetry_Int_Tables_number       1
_space_group_crystal_system       triclinic
_cell_length_a                    10.770527
_cell_length_b                    11.086659
_cell_length_c                    9.900036
_cell_angle_alpha                 111.222744
_cell_angle_beta                  98.810756
_cell_angle_gamma                 91.018203
_cell_volume                      1085.53247046

loop_
_atom_site_label
_atom_site_type_symbol
_atom_type_description
_atom_site_fract_x
_atom_site_fract_y
_atom_site_fract_z
_atom_type_partial_charge
C1    C     C_R   0.491888 0.254558 0.441062 0.838732
C2    C     C_R   0.510422 0.745459 0.558936 0.838123
C3    C     C_2   0.490385 0.115965 0.409230 -0.428177
C4    C     C_2   0.517744 0.884154 0.590834 -0.427396
C5    C     C_2   0.514341 0.069877 0.517648 0.536205
C6    C     C_2   0.510316 0.930634 0.482554 0.531230
C7    C     C_2   0.511267 0.508595 0.080702 0.698153
C8    C     C_2   0.490810 0.489123 0.918693 0.694892
C9    C     C_R   0.263103 0.499670 0.500405 0.774231
C10   C     C_R   0.736904 0.500331 0.499595 0.774397
C11   C     C_R   0.143567 0.737827 0.567951 -0.137116
C12   C     C_R   0.856500 0.262215 0.432311 -0.130791
C13   C     C_R   0.086349 0.854894 0.600948 0.190039
C14   C     C_R   0.913689 0.145141 0.399317 0.190741
C15   C     C_R   0.956295 0.854167 0.599482 -0.171502
C16   C     C_R   0.043711 0.145828 0.400554 -0.174522
C17   C     C_R   0.884721 0.737861 0.565685 -0.146316
C18   C     C_R   0.115285 0.262116 0.434204 -0.149766
C19   C     C_R   0.941651 0.618748 0.532844 0.069433
C20   C     C_R   0.058368 0.381247 0.467129 0.070230
C21   C     C_R   0.072456 0.618737 0.534123 0.017904
C22   C     C_R   0.927579 0.381275 0.465954 0.017330
C23   C     C_R   0.870657 0.500029 0.498704 -0.132008
C24   C     C_R   0.129361 0.499971 0.501296 -0.133150
Cu1   Cu    Cu3+1 0.521920 0.521810 0.644910 1.029607
Cu2   Cu    Cu3+1 0.478080 0.478190 0.355090 1.028310
H1    H     H_    0.090044 0.056313 0.375655 0.160050
H2    H     H_    0.909937 0.943669 0.624355 0.163033
H3    H     H_    0.244187 0.741559 0.569472 0.128227
H4    H     H_    0.755926 0.258517 0.430942 0.129521
H5    H     H_    0.784492 0.742449 0.565591 0.142728
H6    H     H_    0.215507 0.257502 0.434143 0.140849
H7    H     H_    0.528572 0.949177 0.705219 0.171744
H8    H     H_    0.469202 0.050684 0.294766 0.169382
N1    N     N_2   0.445130 0.445420 0.137360 -0.193575
N2    N     N_2   0.554870 0.554580 0.862640 -0.192087
O1    O     O_R   0.511700 0.332340 0.577400 -0.449809
O2    O     O_R   0.488300 0.667660 0.422600 -0.455391
O3    O     O_R   0.474680 0.295500 0.332650 -0.614813
O4    O     O_R   0.525320 0.704500 0.667350 -0.616620
O5    O     O_R   0.338170 0.518410 0.622370 -0.531344
O6    O     O_R   0.661830 0.481590 0.377630 -0.526779
O7    O     O_R   0.301150 0.481570 0.377630 -0.597720
O8    O     O_R   0.698850 0.518430 0.622370 -0.594739
N3    N     N_3   0.161848 0.973320 0.634224 -0.583695
H9    H     H_    0.105536 0.051748 0.655283 0.234851
H10   H     H_    0.224846 0.989573 0.731696 0.229968
N4    N     N_3   0.838199 0.026760 0.366304 -0.576487
H11   H     H_    0.894450 0.948284 0.344983 0.234483
H12   H     H_    0.774917 0.010545 0.269047 0.233372
F1    F     F_    0.497868 0.850335 0.338568 -0.638357
F2    F     F_    0.541694 0.150534 0.661814 -0.642417
F3    F     F_    0.401002 0.397349 0.824127 -0.624470
F4    F     F_    0.604797 0.596309 0.174198 -0.617639
N5    N     N_3   0.645573 0.651269 0.956289 -0.459784
H13   H     H_    0.620696 0.737967 0.944442 0.243593
H14   H     H_    0.730536 0.629746 0.917529 0.244362
N6    N     N_3   0.347958 0.355682 0.045474 -0.466827
H15   H     H_    0.365354 0.267109 0.056683 0.243544
H16   H     H_    0.265113 0.384864 0.086327 0.244034

loop_
_geom_bond_atom_site_label_1
_geom_bond_atom_site_label_2
_ccdc_geom_bond_type
C8    F3    S    
C19   C23   A    
N5    H13   S    
C9    C24   S    
N5    H14   S    
C2    O4    A    
C10   C23   S    
C10   O6    A    
C2    O2    A    
C9    O5    A    
C7    F4    S    
C10   O8    A    
C1    O1    A    
C3    C5    D    
Cu1   O1    S    
C16   H1    S    
N4    H12   S    
N6    H15   S    
C21   C24   A    
C7    C8    S    
C5    F2    S    
N2    N5    S    
N3    H9    S    
C13   N3    S    
C11   C13   A    
C11   H3    S    
C15   H2    S    
N1    N6    S    
C2    C4    S    
Cu1   O8    S    
C16   C18   A    
N4    H11   S    
C19   C21   A    
C20   C22   A    
Cu2   O7    S    
C18   C20   A    
C13   C15   A    
Cu1   O4    S    
C5    C6    S    
C17   H5    S    
C14   C16   A    
Cu2   O3    S    
C9    O7    A    
C18   H6    S    
C1    O3    A    
Cu1   N2    S    
N6    H16   S    
C12   C22   A    
Cu2   N1    S    
Cu2   O6    S    
C4    C6    D    
C8    N2    D    
N3    H10   S    
Cu1   O5    S    
C15   C17   A    
C22   C23   A    
C17   C19   A    
C14   N4    S    
C3    H8    S    
C12   H4    S    
Cu1   Cu2   S    
C4    H7    S    
C7    N1    D    
C11   C21   A    
Cu2   O2    S    
C20   C24   A    
C12   C14   A    
C1    C3    S    
C6    F1    S    
