data_mof_unit_50130.cif
_audit_creation_date              2012-12-10T18:47:48-0500
_audit_creation_method            fapswitch 2.2
_symmetry_space_group_name_H-M    P1
_symmetry_Int_Tables_number       1
_space_group_crystal_system       triclinic
_cell_length_a                    9.888724
_cell_length_b                    10.680971
_cell_length_c                    15.53976
_cell_angle_alpha                 92.316499
_cell_angle_beta                  67.669235
_cell_angle_gamma                 90.721766
_cell_volume                      1516.99022508

loop_
_atom_site_label
_atom_site_type_symbol
_atom_type_description
_atom_site_fract_x
_atom_site_fract_y
_atom_site_fract_z
_atom_type_partial_charge
C1    C     C_R   0.507935 0.739213 0.488698 0.887545
C2    C     C_R   0.397029 0.935525 0.470252 -0.091164
C3    C     C_R   0.483051 0.125491 0.521798 -0.171583
C4    C     C_R   0.518845 0.873531 0.474999 -0.170048
C5    C     C_R   0.959986 0.414015 0.445218 -0.013055
C6    C     C_R   0.040135 0.586172 0.554616 -0.009250
C7    C     C_R   0.104806 0.415667 0.444827 0.038345
C8    C     C_R   0.895528 0.584971 0.554637 0.041492
C9    C     C_R   0.408486 0.501441 0.675985 0.873333
C10   C     C_R   0.591402 0.501106 0.324132 0.870023
C11   C     C_R   0.351195 0.508663 0.777557 -0.061429
C12   C     C_R   0.492610 0.260378 0.510355 0.885601
C13   C     C_R   0.645954 0.520161 0.224355 -0.064038
C14   C     C_R   0.158850 0.482449 0.928158 -0.204773
C15   C     C_R   0.815078 0.614727 0.086121 -0.211179
C16   C     C_R   0.204749 0.483568 0.831542 -0.186148
C17   C     C_R   0.781152 0.576313 0.176754 -0.189496
C18   C     C_R   0.448646 0.538804 0.820582 -0.241075
C19   C     C_R   0.547689 0.500336 0.180605 -0.243470
C20   C     C_R   0.404342 0.542920 0.917130 0.094965
C21   C     C_R   0.573185 0.548302 0.093880 0.095569
C22   C     C_R   0.258290 0.509381 0.971185 0.170270
C23   C     C_R   0.316649 0.514019 0.108295 -0.200827
C24   C     C_R   0.711997 0.600933 0.044262 0.168510
C25   C     C_R   0.505017 0.570079 0.960313 0.065689
C26   C     C_R   0.464661 0.542977 0.055052 0.069350
C27   C     C_2   0.781223 0.884848 0.462424 0.576663
C28   C     C_2   0.221536 0.114061 0.531978 0.581077
C29   C     C_2   0.694014 0.126253 0.574660 0.454398
C30   C     C_2   0.308207 0.871647 0.422031 0.453462
C31   C     C_2   0.919964 0.319743 0.386042 0.433447
C32   C     C_2   0.080280 0.680476 0.613702 0.429103
C33   C     C_1   0.215836 0.332075 0.382813 0.285693
C34   C     C_R   0.644394 0.623154 0.912088 -0.213318
C35   C     C_1   0.785427 0.670653 0.614989 0.282521
C36   C     C_R   0.214839 0.499700 0.066955 -0.221279
C37   C     C_R   0.745106 0.639959 0.954170 -0.222873
C38   C     C_R   0.632596 0.940381 0.490252 -0.055674
C39   C     C_R   0.369955 0.058735 0.505432 -0.059002
C40   C     C_R   0.605419 0.063370 0.525896 -0.093137
H1    H     H_    0.102958 0.476449 0.109675 0.148153
H2    H     H_    0.676651 0.657075 0.842714 0.164521
H3    H     H_    0.842069 0.893096 0.507351 0.148668
H4    H     H_    0.163113 0.107028 0.485566 0.145142
H5    H     H_    0.641396 0.194596 0.630875 0.077023
H6    H     H_    0.360519 0.802204 0.366575 0.077196
H7    H     H_    0.840617 0.340636 0.357019 0.117510
H8    H     H_    0.158304 0.658976 0.643671 0.116708
H9    H     H_    0.850113 0.681835 0.915470 0.160591
H10   H     H_    0.449566 0.448515 0.216521 0.162130
H11   H     H_    0.561792 0.551883 0.777274 0.161911
H12   H     H_    0.857796 0.594052 0.210390 0.175818
H13   H     H_    0.127674 0.460347 0.799121 0.169028
H14   H     H_    0.047084 0.456728 0.968889 0.153526
H15   H     H_    0.919910 0.658264 0.049778 0.154160
H16   H     H_    0.275311 0.505461 0.182817 0.148401
N1    N     N_R   0.142780 0.500030 0.500020 -0.155527
N2    N     N_R   0.857220 0.499970 0.499980 -0.155804
N3    N     N_1   0.304080 0.264571 0.332797 -0.214432
N4    N     N_1   0.697997 0.740042 0.663484 -0.222146
O1    O     O_R   0.385370 0.683250 0.500010 -0.643794
O2    O     O_2   0.162849 0.168745 0.607530 -0.548476
O3    O     O_2   0.824525 0.107042 0.551980 -0.541934
O4    O     O_2   0.177797 0.891180 0.444458 -0.543558
O5    O     O_2   0.974716 0.215270 0.369461 -0.543760
O6    O     O_2   0.027193 0.785583 0.629112 -0.545621
O7    O     O_R   0.614630 0.316750 0.499990 -0.644114
O8    O     O_R   0.614700 0.683220 0.500000 -0.597314
O9    O     O_R   0.385300 0.316780 0.500000 -0.596476
O10   O     O_R   0.319830 0.500020 0.632250 -0.636132
O11   O     O_R   0.680170 0.499980 0.367750 -0.638497
O12   O     O_R   0.549160 0.499990 0.632240 -0.626267
O13   O     O_R   0.450840 0.500010 0.367760 -0.625560
O14   O     O_2   0.837247 0.828160 0.387450 -0.556759
Zn1   Zn    Zn3+2 0.346870 0.500020 0.500000 0.961552
Zn2   Zn    Zn3+2 0.653130 0.499980 0.500000 0.959891

loop_
_geom_bond_atom_site_label_1
_geom_bond_atom_site_label_2
_ccdc_geom_bond_type
C6    C32   S    
C21   C26   A    
C29   O3    D    
C11   C18   A    
C30   O4    D    
C34   C37   A    
C32   H8    S    
C34   H2    S    
C9    O12   A    
O12   Zn2   S    
N2    Zn2   S    
C23   H16   S    
O1    Zn1   S    
C5    N2    A    
C19   C21   A    
O11   Zn2   S    
C10   O13   A    
C20   C25   A    
C27   C38   S    
C1    O8    A    
C31   O5    D    
C23   C26   A    
C16   H13   S    
C3    C12   S    
C8    N2    A    
C2    C39   A    
C27   O14   D    
C25   C34   A    
C10   O11   A    
C3    C39   A    
C33   N3    T    
C31   H7    S    
C7    C33   S    
C6    N1    A    
C36   H1    S    
C17   H12   S    
C18   H11   S    
C12   O7    A    
C13   C19   A    
C9    O10   A    
C5    C7    A    
C6    C8    A    
C28   C39   S    
C25   C26   A    
C28   H4    S    
C29   H5    S    
C35   N4    T    
C8    C35   S    
C15   H15   S    
C2    C4    A    
C37   H9    S    
C11   C16   A    
C24   C37   A    
C9    C11   S    
C15   C24   A    
C14   H14   S    
C12   O9    A    
C20   C22   A    
C3    C40   A    
C14   C16   A    
O13   Zn1   S    
C32   O6    D    
C15   C17   A    
C30   H6    S    
C4    C38   A    
C10   C13   S    
C1    O1    A    
O8    Zn2   S    
C22   C36   A    
C13   C17   A    
C2    C30   S    
C1    C4    S    
C14   C22   A    
C38   C40   A    
C19   H10   S    
N1    Zn1   S    
C29   C40   S    
O9    Zn1   S    
C18   C20   A    
C27   H3    S    
C23   C36   A    
C21   C24   A    
O10   Zn1   S    
O7    Zn2   S    
C7    N1    A    
C5    C31   S    
C28   O2    D    
