data_mof_unit_62690.cif
_audit_creation_date              2012-12-10T18:10:05-0500
_audit_creation_method            fapswitch 2.2
_symmetry_space_group_name_H-M    P1
_symmetry_Int_Tables_number       1
_space_group_crystal_system       triclinic
_cell_length_a                    18.336243
_cell_length_b                    18.33624
_cell_length_c                    59.972641
_cell_angle_alpha                 90.0
_cell_angle_beta                  89.999983
_cell_angle_gamma                 89.996052
_cell_volume                      20163.8665114

loop_
_atom_site_label
_atom_site_type_symbol
_atom_type_description
_atom_site_fract_x
_atom_site_fract_y
_atom_site_fract_z
_atom_type_partial_charge
C1    C     C_R   0.500000 1.000000 0.810435 0.799725
C2    C     C_R   0.529657 0.940867 0.440731 -0.025185
C3    C     C_R   0.859878 0.640122 0.750000 0.819156
C4    C     C_R   0.359877 0.859877 0.250000 0.818590
C5    C     C_R   0.640123 0.140123 0.750000 0.818590
C6    C     C_R   0.859878 0.640122 0.250000 0.819155
C7    C     C_R   0.140122 0.359878 0.750000 0.819155
C8    C     C_R   0.769475 0.176858 0.754448 0.419364
C9    C     C_R   0.230525 0.823142 0.245551 0.419424
C10   C     C_R   0.823137 0.769467 0.754457 0.420395
C11   C     C_R   0.176863 0.230532 0.245544 0.420421
C12   C     C_R   0.230525 0.823142 0.754448 0.419365
C13   C     C_R   0.940860 0.529642 0.559269 -0.025187
C14   C     C_R   0.769475 0.176858 0.245551 0.419423
C15   C     C_R   0.176863 0.230533 0.754457 0.420395
C16   C     C_R   0.823137 0.769467 0.245543 0.420421
C17   C     C_R   0.769467 0.823137 0.245543 0.420395
C18   C     C_R   0.230533 0.176863 0.754457 0.420421
C19   C     C_R   0.823142 0.230525 0.245551 0.419366
C20   C     C_R   0.176858 0.769475 0.754448 0.419424
C21   C     C_R   0.230533 0.176863 0.245543 0.420394
C22   C     C_R   0.769467 0.823137 0.754457 0.420421
C23   C     C_R   0.176858 0.769475 0.245551 0.419364
C24   C     C_R   0.061042 0.474487 0.440704 -0.025460
C25   C     C_R   0.823142 0.230525 0.754448 0.419424
C26   C     C_R   0.269475 0.676858 0.254449 0.419424
C27   C     C_R   0.730525 0.323142 0.745551 0.419364
C28   C     C_R   0.323137 0.269467 0.254456 0.420420
C29   C     C_R   0.676863 0.730533 0.745543 0.420395
C30   C     C_R   0.730525 0.323142 0.254449 0.419424
C31   C     C_R   0.269475 0.676858 0.745551 0.419365
C32   C     C_R   0.676863 0.730533 0.254457 0.420421
C33   C     C_R   0.323136 0.269467 0.745543 0.420395
C34   C     C_R   0.269467 0.323137 0.745543 0.420421
C35   C     C_R   0.525528 0.938965 0.559296 -0.025460
C36   C     C_R   0.730533 0.676863 0.254457 0.420395
C37   C     C_R   0.323142 0.730525 0.745551 0.419424
C38   C     C_R   0.676858 0.269475 0.254449 0.419366
C39   C     C_R   0.730533 0.676863 0.745543 0.420420
C40   C     C_R   0.269467 0.323137 0.254456 0.420394
C41   C     C_R   0.676858 0.269475 0.745551 0.419424
C42   C     C_R   0.323142 0.730525 0.254449 0.419364
C43   C     C_R   0.803876 0.303876 0.750000 -0.430216
C44   C     C_R   0.196124 0.696124 0.250000 -0.430216
C45   C     C_R   0.696123 0.803877 0.750000 -0.429783
C46   C     C_R   0.470342 0.059133 0.440731 -0.025185
C47   C     C_R   0.303877 0.196123 0.250000 -0.429783
C48   C     C_R   0.196124 0.696124 0.750000 -0.430216
C49   C     C_R   0.803876 0.303876 0.250000 -0.430216
C50   C     C_R   0.303877 0.196123 0.750000 -0.429782
C51   C     C_R   0.696123 0.803877 0.250000 -0.429783
C52   C     C_R   0.803877 0.696123 0.250000 -0.429783
C53   C     C_R   0.196123 0.303877 0.750000 -0.429782
C54   C     C_R   0.696124 0.196124 0.250000 -0.430216
C55   C     C_R   0.303876 0.803876 0.750000 -0.430216
C56   C     C_R   0.196123 0.303877 0.250000 -0.429783
C57   C     C_R   0.059140 0.470358 0.559269 -0.025187
C58   C     C_R   0.803877 0.696123 0.750000 -0.429783
C59   C     C_R   0.303876 0.803876 0.250000 -0.430216
C60   C     C_R   0.696124 0.196124 0.750000 -0.430216
C61   C     C_R   0.475100 0.060018 0.582745 0.510195
C62   C     C_R   0.528985 0.941844 0.417282 0.510117
C63   C     C_R   0.941837 0.528971 0.582718 0.510116
C64   C     C_R   0.060025 0.475115 0.417255 0.510196
C65   C     C_R   0.524900 0.939982 0.582745 0.510195
C66   C     C_R   0.471015 0.058156 0.417282 0.510117
C67   C     C_R   0.058163 0.471029 0.582718 0.510116
C68   C     C_R   0.938958 0.525512 0.440704 -0.025460
C69   C     C_R   0.939975 0.524885 0.417255 0.510196
C70   C     C_R   0.971006 0.558152 0.082718 0.510117
C71   C     C_R   0.024908 0.439985 0.917255 0.510196
C72   C     C_R   0.439981 0.024900 0.082745 0.510195
C73   C     C_R   0.558156 0.971015 0.917282 0.510117
C74   C     C_R   0.028994 0.441848 0.082718 0.510117
C75   C     C_R   0.975091 0.560015 0.917255 0.510196
C76   C     C_R   0.560019 0.975100 0.082745 0.510195
C77   C     C_R   0.441844 0.028985 0.917282 0.510116
C78   C     C_R   0.433963 0.001019 0.629739 -0.097449
C79   C     C_R   0.970333 0.559128 0.059269 -0.025185
C80   C     C_R   0.433983 0.998133 0.370259 -0.096863
C81   C     C_R   0.998144 0.433983 0.629740 -0.096864
C82   C     C_R   0.998970 0.566037 0.370261 -0.097452
C83   C     C_R   0.566037 0.998981 0.629739 -0.097449
C84   C     C_R   0.566017 0.001867 0.370259 -0.096863
C85   C     C_R   0.001856 0.566017 0.629740 -0.096865
C86   C     C_R   0.001030 0.433963 0.370261 -0.097452
C87   C     C_R   0.066017 0.501874 0.129740 -0.096860
C88   C     C_R   0.066037 0.498987 0.870260 -0.097448
C89   C     C_R   0.498981 0.066037 0.129739 -0.097449
C90   C     C_R   0.025536 0.438968 0.940704 -0.025460
C91   C     C_R   0.501867 0.066017 0.870259 -0.096862
C92   C     C_R   0.933983 0.498126 0.129740 -0.096861
C93   C     C_R   0.933963 0.501013 0.870260 -0.097449
C94   C     C_R   0.501019 0.933963 0.129739 -0.097449
C95   C     C_R   0.498133 0.933983 0.870259 -0.096863
C96   C     C_R   0.433894 0.000991 0.653028 -0.195299
C97   C     C_R   0.433916 0.998183 0.346971 -0.195734
C98   C     C_R   0.998194 0.433916 0.653029 -0.195732
C99   C     C_R   0.998998 0.566106 0.346972 -0.195299
C100  C     C_R   0.566106 0.999009 0.653028 -0.195299
C101  C     C_R   0.438964 0.025527 0.059296 -0.025460
C102  C     C_R   0.566084 0.001817 0.346971 -0.195733
C103  C     C_R   0.001806 0.566084 0.653029 -0.195732
C104  C     C_R   0.001002 0.433894 0.346972 -0.195299
C105  C     C_R   0.066084 0.501823 0.153029 -0.195734
C106  C     C_R   0.066106 0.499015 0.846972 -0.195301
C107  C     C_R   0.499009 0.066106 0.153028 -0.195299
C108  C     C_R   0.501817 0.066084 0.846971 -0.195734
C109  C     C_R   0.933916 0.498177 0.153029 -0.195734
C110  C     C_R   0.933894 0.500985 0.846972 -0.195300
C111  C     C_R   0.500991 0.933894 0.153028 -0.195299
C112  C     C_R   0.500000 1.000000 0.189564 0.799749
C113  C     C_R   0.559133 0.970343 0.940731 -0.025185
C114  C     C_R   0.498183 0.933916 0.846971 -0.195733
C115  C     C_R   0.500000 1.000000 0.617974 0.302672
C116  C     C_R   0.500000 1.000000 0.382035 0.301126
C117  C     C_R   0.000000 0.500000 0.617965 0.301132
C118  C     C_R   1.000000 0.500000 0.382026 0.302678
C119  C     C_R   0.000000 0.500000 0.117965 0.301122
C120  C     C_R   1.000000 0.500000 0.882026 0.302669
C121  C     C_R   0.500000 1.000000 0.117974 0.302672
C122  C     C_R   0.500000 1.000000 0.882035 0.301126
C123  C     C_R   0.500000 0.000000 0.547378 -0.048228
C124  C     C_R   0.029666 0.440872 0.059269 -0.025185
C125  C     C_R   0.500000 1.000000 0.452649 -0.048345
C126  C     C_R   1.000000 0.500000 0.547351 -0.048344
C127  C     C_R   1.000000 0.500000 0.452622 -0.048229
C128  C     C_R   0.000000 0.500000 0.047351 -0.048343
C129  C     C_R   1.000000 0.500000 0.952622 -0.048228
C130  C     C_R   0.500000 1.000000 0.047378 -0.048228
C131  C     C_R   0.500000 1.000000 0.952649 -0.048345
C132  C     C_R   0.974463 0.561032 0.940704 -0.025460
C133  C     C_R   0.561036 0.974473 0.059296 -0.025460
C134  C     C_R   0.440867 0.029657 0.940731 -0.025185
C135  C     C_R   0.449356 0.121907 0.547625 -0.129537
C136  C     C_R   0.559426 0.882128 0.452402 -0.129412
C137  C     C_R   0.882113 0.559396 0.547598 -0.129413
C138  C     C_R   0.121920 0.449387 0.452375 -0.129538
C139  C     C_R   0.550643 0.878093 0.547625 -0.129538
C140  C     C_R   0.000000 0.500000 0.810435 0.799751
C141  C     C_R   0.440574 0.117872 0.452402 -0.129412
C142  C     C_R   0.117887 0.440604 0.547598 -0.129413
C143  C     C_R   0.878080 0.550613 0.452375 -0.129538
C144  C     C_R   0.940556 0.617863 0.047598 -0.129413
C145  C     C_R   0.050661 0.378100 0.952375 -0.129538
C146  C     C_R   0.378092 0.050642 0.047625 -0.129538
C147  C     C_R   0.617872 0.940575 0.952402 -0.129412
C148  C     C_R   0.059444 0.382137 0.047598 -0.129413
C149  C     C_R   0.949339 0.621900 0.952375 -0.129539
C150  C     C_R   0.621908 0.949358 0.047625 -0.129538
C151  C     C_R   0.000000 0.500000 0.189564 0.799723
C152  C     C_R   0.382128 0.059425 0.952402 -0.129412
C153  C     C_R   0.500000 1.000000 0.664919 -0.019690
C154  C     C_R   0.500000 1.000000 0.335081 -0.019659
C155  C     C_R   1.000000 0.500000 0.664919 -0.019661
C156  C     C_R   1.000000 0.500000 0.335081 -0.019689
C157  C     C_R   1.000000 0.500000 0.164919 -0.019661
C158  C     C_R   1.000000 0.500000 0.835081 -0.019689
C159  C     C_R   0.500000 1.000000 0.164919 -0.019690
C160  C     C_R   0.500000 1.000000 0.835081 -0.019659
C161  C     C_R   0.972773 0.561656 0.988114 0.044467
C162  C     C_R   1.000000 0.500000 0.310435 0.799751
C163  C     C_R   0.029052 0.439183 0.011858 0.044533
C164  C     C_R   0.439178 0.029042 0.988142 0.044532
C165  C     C_R   0.561660 0.972783 0.011886 0.044468
C166  C     C_R   0.027227 0.438344 0.988114 0.044468
C167  C     C_R   0.970948 0.560817 0.011858 0.044532
C168  C     C_R   0.560821 0.970958 0.988142 0.044533
C169  C     C_R   0.438340 0.027217 0.011886 0.044468
C170  C     C_R   0.470957 0.060821 0.488142 0.044532
C171  C     C_R   0.527218 0.938340 0.511886 0.044468
C172  C     C_R   0.938333 0.527202 0.488114 0.044467
C173  C     C_R   0.000000 0.500000 0.689564 0.799723
C174  C     C_R   0.060829 0.470973 0.511858 0.044532
C175  C     C_R   0.529043 0.939179 0.488142 0.044533
C176  C     C_R   0.472782 0.061660 0.511886 0.044468
C177  C     C_R   0.061667 0.472798 0.488114 0.044468
C178  C     C_R   0.939171 0.529027 0.511858 0.044532
C179  C     C_R   1.000000 0.500000 0.976386 0.073839
C180  C     C_R   1.000000 0.500000 0.023586 0.073759
C181  C     C_R   0.500000 1.000000 0.976414 0.073758
C182  C     C_R   0.500000 0.000000 0.023613 0.073838
C183  C     C_R   0.500000 1.000000 0.476414 0.073759
C184  C     C_R   0.500000 0.000000 0.310435 0.799725
C185  C     C_R   0.500000 1.000000 0.523613 0.073838
C186  C     C_R   1.000000 0.500000 0.476386 0.073838
C187  C     C_R   1.000000 0.500000 0.523586 0.073759
C188  C     C_R   0.948564 0.622422 0.975541 -0.208541
C189  C     C_R   0.059379 0.381228 0.024431 -0.208401
C190  C     C_R   0.381219 0.059360 0.975569 -0.208400
C191  C     C_R   0.622430 0.948583 0.024459 -0.208541
C192  C     C_R   0.051436 0.377578 0.975541 -0.208541
C193  C     C_R   0.940621 0.618771 0.024431 -0.208399
C194  C     C_R   0.618781 0.940640 0.975569 -0.208399
C195  C     C_R   0.500000 0.000000 0.689564 0.799749
C196  C     C_R   0.377570 0.051417 0.024459 -0.208541
C197  C     C_R   0.440639 0.118781 0.475569 -0.208399
C198  C     C_R   0.551419 0.877570 0.524459 -0.208541
C199  C     C_R   0.877557 0.551387 0.475541 -0.208540
C200  C     C_R   0.118796 0.440670 0.524431 -0.208399
C201  C     C_R   0.559361 0.881219 0.475569 -0.208399
C202  C     C_R   0.448581 0.122430 0.524459 -0.208540
C203  C     C_R   0.122443 0.448613 0.475541 -0.208542
C204  C     C_R   0.881204 0.559330 0.524431 -0.208400
C205  C     C_R   0.640122 0.859878 0.750000 0.819156
C206  C     C_R   0.474472 0.061035 0.559296 -0.025460
C207  C     C_R   0.359878 0.140122 0.250000 0.819156
C208  C     C_R   0.140123 0.640123 0.750000 0.818590
C209  C     C_R   0.859877 0.359877 0.250000 0.818590
C210  C     C_R   0.359878 0.140122 0.750000 0.819155
C211  C     C_R   0.640122 0.859878 0.250000 0.819156
C212  C     C_R   0.859877 0.359877 0.750000 0.818590
C213  C     C_R   0.140123 0.640123 0.250000 0.818589
C214  C     C_R   0.640123 0.140123 0.250000 0.818590
C215  C     C_R   0.359877 0.859877 0.750000 0.818589
C216  C     C_R   0.140122 0.359878 0.250000 0.819156
H1    H     H_    0.617894 0.998264 0.661703 0.178328
H2    H     H_    0.882106 0.501726 0.838296 0.178329
H3    H     H_    0.501737 0.882106 0.161703 0.178328
H4    H     H_    0.496670 0.882146 0.838295 0.178348
H5    H     H_    0.117854 0.503342 0.161705 0.178347
H6    H     H_    0.117894 0.498274 0.838296 0.178329
H7    H     H_    0.498263 0.117894 0.161703 0.178328
H8    H     H_    0.503330 0.117854 0.838295 0.178348
H9    H     H_    0.617357 0.998421 0.620808 0.152294
H10   H     H_    0.617326 0.003600 0.379183 0.153314
H11   H     H_    0.003580 0.617327 0.620817 0.153311
H12   H     H_    0.617854 0.003331 0.338295 0.178348
H13   H     H_    0.001599 0.382643 0.379192 0.152291
H14   H     H_    0.382643 0.001579 0.620808 0.152294
H15   H     H_    0.382674 0.996399 0.379183 0.153314
H16   H     H_    0.996420 0.382673 0.620817 0.153311
H17   H     H_    0.998401 0.617357 0.379192 0.152291
H18   H     H_    0.882674 0.496388 0.120817 0.153316
H19   H     H_    0.882643 0.501568 0.879192 0.152297
H20   H     H_    0.501580 0.882643 0.120808 0.152294
H21   H     H_    0.496400 0.882674 0.879183 0.153314
H22   H     H_    0.117326 0.503612 0.120817 0.153316
H23   H     H_    0.003311 0.617854 0.661705 0.178347
H24   H     H_    0.117357 0.498432 0.879192 0.152296
H25   H     H_    0.498420 0.117357 0.120808 0.152294
H26   H     H_    0.503600 0.117326 0.879183 0.153314
H27   H     H_    0.430088 0.169876 0.556379 0.193556
H28   H     H_    0.583234 0.836242 0.443649 0.193429
H29   H     H_    0.836220 0.583191 0.556351 0.193429
H30   H     H_    0.169894 0.430131 0.443621 0.193557
H31   H     H_    0.569912 0.830124 0.556379 0.193557
H32   H     H_    0.416766 0.163758 0.443649 0.193429
H33   H     H_    0.163780 0.416809 0.556351 0.193429
H34   H     H_    0.001756 0.382107 0.338297 0.178328
H35   H     H_    0.830106 0.569869 0.443621 0.193557
H36   H     H_    0.916741 0.663745 0.056351 0.193430
H37   H     H_    0.069936 0.330134 0.943621 0.193557
H38   H     H_    0.330123 0.069910 0.056379 0.193557
H39   H     H_    0.663759 0.916768 0.943649 0.193429
H40   H     H_    0.083259 0.336255 0.056351 0.193429
H41   H     H_    0.930064 0.669866 0.943621 0.193557
H42   H     H_    0.669877 0.930090 0.056379 0.193557
H43   H     H_    0.336241 0.083232 0.943649 0.193429
H44   H     H_    0.929320 0.672159 0.983013 0.144090
H45   H     H_    0.382106 0.001736 0.661703 0.178328
H46   H     H_    0.084585 0.334230 0.016960 0.143779
H47   H     H_    0.334216 0.084558 0.983040 0.143778
H48   H     H_    0.672170 0.929346 0.016987 0.144090
H49   H     H_    0.070680 0.327841 0.983013 0.144090
H50   H     H_    0.915415 0.665769 0.016960 0.143779
H51   H     H_    0.665783 0.915441 0.983040 0.143778
H52   H     H_    0.327830 0.070654 0.016987 0.144090
H53   H     H_    0.415440 0.165783 0.483040 0.143779
H54   H     H_    0.570655 0.827831 0.516987 0.144090
H55   H     H_    0.827813 0.570611 0.483013 0.144090
H56   H     H_    0.382146 0.996669 0.338295 0.178348
H57   H     H_    0.165805 0.415483 0.516960 0.143779
H58   H     H_    0.584560 0.834217 0.483040 0.143779
H59   H     H_    0.429345 0.172169 0.516987 0.144090
H60   H     H_    0.172187 0.429388 0.483013 0.144090
H61   H     H_    0.834195 0.584517 0.516960 0.143779
H62   H     H_    0.748954 0.077291 0.764570 0.327865
H63   H     H_    0.251046 0.922709 0.235430 0.327911
H64   H     H_    0.922699 0.748928 0.764582 0.327949
H65   H     H_    0.077299 0.251071 0.235419 0.327967
H66   H     H_    0.251046 0.922709 0.764570 0.327865
H67   H     H_    0.996689 0.382145 0.661705 0.178347
H68   H     H_    0.748954 0.077291 0.235430 0.327911
H69   H     H_    0.077300 0.251072 0.764582 0.327949
H70   H     H_    0.922700 0.748928 0.235418 0.327966
H71   H     H_    0.748928 0.922699 0.235418 0.327949
H72   H     H_    0.251072 0.077300 0.764581 0.327965
H73   H     H_    0.922709 0.251046 0.235430 0.327864
H74   H     H_    0.077291 0.748954 0.764569 0.327912
H75   H     H_    0.251071 0.077300 0.235419 0.327950
H76   H     H_    0.748928 0.922700 0.764581 0.327966
H77   H     H_    0.077291 0.748954 0.235430 0.327864
H78   H     H_    0.998244 0.617893 0.338297 0.178328
H79   H     H_    0.922709 0.251046 0.764569 0.327912
H80   H     H_    0.248954 0.577291 0.264570 0.327911
H81   H     H_    0.751046 0.422709 0.735430 0.327865
H82   H     H_    0.422700 0.248929 0.264581 0.327966
H83   H     H_    0.577300 0.751072 0.735418 0.327949
H84   H     H_    0.751046 0.422709 0.264570 0.327912
H85   H     H_    0.248954 0.577291 0.735430 0.327865
H86   H     H_    0.577300 0.751072 0.264581 0.327966
H87   H     H_    0.422699 0.248928 0.735418 0.327948
H88   H     H_    0.248928 0.422700 0.735418 0.327965
H89   H     H_    0.882146 0.496658 0.161705 0.178347
H90   H     H_    0.751072 0.577300 0.264582 0.327949
H91   H     H_    0.422709 0.751046 0.735430 0.327912
H92   H     H_    0.577291 0.248954 0.264570 0.327864
H93   H     H_    0.751072 0.577300 0.735418 0.327965
H94   H     H_    0.248929 0.422700 0.264581 0.327949
H95   H     H_    0.577291 0.248954 0.735430 0.327912
H96   H     H_    0.422709 0.751046 0.264570 0.327865
N1    N     N_R   0.500000 0.000000 0.593982 -0.354840
N2    N     N_R   0.500000 1.000000 0.406037 -0.354481
N3    N     N_R   1.000000 0.500000 0.593963 -0.354482
N4    N     N_R   1.000000 0.500000 0.406018 -0.354841
N5    N     N_R   0.000000 0.500000 0.093963 -0.354480
N6    N     N_R   1.000000 0.500000 0.906018 -0.354839
N7    N     N_R   0.500000 0.000000 0.093982 -0.354840
N8    N     N_R   0.500000 1.000000 0.906037 -0.354481
O1    O     O_3   0.500000 1.000000 0.750000 -0.504519
O2    O     O_R   0.500000 0.060550 0.200300 -0.639819
O3    O     O_3   0.393433 0.708756 0.259641 -0.635977
O4    O     O_R   0.060550 0.500000 0.799700 -0.639820
O5    O     O_R   0.939450 0.500000 0.200300 -0.639779
O6    O     O_R   0.000000 0.560550 0.299700 -0.639820
O7    O     O_R   1.000000 0.439450 0.700300 -0.639780
O8    O     O_R   0.439450 0.000000 0.299700 -0.639781
O9    O     O_R   0.560550 0.000000 0.700300 -0.639819
O10   O     O_R   0.000000 0.439450 0.299700 -0.639820
O11   O     O_R   1.000000 0.560550 0.700300 -0.639780
O12   O     O_R   0.560550 0.000000 0.299700 -0.639781
O13   O     O_3   0.500000 0.000000 0.250000 -0.504519
O14   O     O_R   0.439450 0.000000 0.700300 -0.639819
O15   O     O_R   0.585450 0.853690 0.762850 -0.619489
O16   O     O_R   0.414550 0.146310 0.237150 -0.619700
O17   O     O_R   0.146310 0.585450 0.762850 -0.619945
O18   O     O_R   0.853690 0.414550 0.237150 -0.620140
O19   O     O_R   0.414550 0.146310 0.762850 -0.619490
O20   O     O_R   0.585450 0.853690 0.237150 -0.619700
O21   O     O_R   0.853690 0.414550 0.762850 -0.619946
O22   O     O_R   0.146310 0.585450 0.237150 -0.620140
O23   O     O_R   0.585450 0.146310 0.237150 -0.619946
O24   O     O_3   1.000000 0.500000 0.750000 -0.504519
O25   O     O_R   0.414550 0.853690 0.762850 -0.620139
O26   O     O_R   0.146310 0.414550 0.237150 -0.619489
O27   O     O_R   0.853690 0.585450 0.762850 -0.619699
O28   O     O_R   0.414550 0.853690 0.237150 -0.619947
O29   O     O_R   0.585450 0.146310 0.762850 -0.620139
O30   O     O_R   0.853690 0.585450 0.237150 -0.619490
O31   O     O_R   0.146310 0.414550 0.762850 -0.619699
O32   O     O_R   0.085450 0.353690 0.262850 -0.619702
O33   O     O_R   0.914550 0.646310 0.737150 -0.619491
O34   O     O_R   0.646310 0.085450 0.262850 -0.620138
O35   O     O_3   0.000000 0.500000 0.250000 -0.504519
O36   O     O_R   0.353690 0.914550 0.737150 -0.619945
O37   O     O_R   0.914550 0.646310 0.262850 -0.619701
O38   O     O_R   0.085450 0.353690 0.737150 -0.619491
O39   O     O_R   0.353690 0.914550 0.262850 -0.620138
O40   O     O_R   0.646310 0.085450 0.737150 -0.619946
O41   O     O_R   0.085450 0.646310 0.737150 -0.620139
O42   O     O_R   0.914550 0.353690 0.262850 -0.619945
O43   O     O_R   0.646310 0.914550 0.737150 -0.619700
O44   O     O_R   0.353690 0.085450 0.262850 -0.619489
O45   O     O_R   0.914550 0.353690 0.737150 -0.620139
O46   O     O_R   0.500000 0.060550 0.799700 -0.639781
O47   O     O_R   0.085450 0.646310 0.262850 -0.619944
O48   O     O_R   0.353690 0.085450 0.737150 -0.619700
O49   O     O_R   0.646310 0.914550 0.262850 -0.619490
O50   O     O_2   0.451556 0.118792 0.594222 -0.547420
O51   O     O_2   0.556481 0.884789 0.405815 -0.548085
O52   O     O_2   0.884775 0.556453 0.594185 -0.548082
O53   O     O_2   0.118804 0.451585 0.405778 -0.547418
O54   O     O_2   0.548444 0.881208 0.594222 -0.547419
O55   O     O_2   0.443518 0.115211 0.405815 -0.548085
O56   O     O_2   0.115225 0.443548 0.594185 -0.548082
O57   O     O_R   0.500000 0.939450 0.200300 -0.639819
O58   O     O_2   0.881196 0.548415 0.405778 -0.547418
O59   O     O_2   0.943502 0.615202 0.094184 -0.548086
O60   O     O_2   0.048460 0.381215 0.905778 -0.547422
O61   O     O_2   0.381207 0.048443 0.094222 -0.547419
O62   O     O_2   0.615211 0.943519 0.905815 -0.548084
O63   O     O_2   0.056498 0.384798 0.094184 -0.548086
O64   O     O_2   0.951540 0.618785 0.905778 -0.547421
O65   O     O_2   0.618792 0.951557 0.094222 -0.547419
O66   O     O_2   0.384789 0.056480 0.905815 -0.548084
O67   O     O_3   0.791244 0.106567 0.759641 -0.635978
O68   O     O_R   0.939450 0.500000 0.799700 -0.639820
O69   O     O_3   0.208756 0.893433 0.240359 -0.635956
O70   O     O_3   0.893422 0.791226 0.759657 -0.635644
O71   O     O_3   0.106578 0.208773 0.240344 -0.635654
O72   O     O_3   0.208756 0.893433 0.759641 -0.635978
O73   O     O_3   0.791244 0.106567 0.240359 -0.635957
O74   O     O_3   0.106579 0.208774 0.759657 -0.635644
O75   O     O_3   0.893422 0.791226 0.240343 -0.635653
O76   O     O_3   0.791226 0.893421 0.240343 -0.635644
O77   O     O_3   0.208774 0.106578 0.759657 -0.635653
O78   O     O_3   0.893433 0.208756 0.240359 -0.635979
O79   O     O_R   0.060550 0.500000 0.200300 -0.639780
O80   O     O_3   0.106567 0.791244 0.759641 -0.635957
O81   O     O_3   0.208774 0.106578 0.240344 -0.635643
O82   O     O_3   0.791226 0.893422 0.759657 -0.635653
O83   O     O_3   0.106567 0.791244 0.240359 -0.635977
O84   O     O_3   0.893433 0.208756 0.759641 -0.635957
O85   O     O_3   0.291244 0.606567 0.259641 -0.635955
O86   O     O_3   0.708756 0.393433 0.740359 -0.635977
O87   O     O_3   0.393422 0.291226 0.259656 -0.635652
O88   O     O_3   0.606578 0.708774 0.740343 -0.635643
O89   O     O_3   0.708756 0.393433 0.259641 -0.635956
O90   O     O_R   0.500000 0.939450 0.799700 -0.639781
O91   O     O_3   0.291244 0.606567 0.740359 -0.635977
O92   O     O_3   0.606578 0.708774 0.259657 -0.635653
O93   O     O_3   0.393421 0.291226 0.740343 -0.635643
O94   O     O_3   0.291226 0.393421 0.740343 -0.635653
O95   O     O_3   0.708774 0.606578 0.259657 -0.635643
O96   O     O_3   0.393433 0.708756 0.740359 -0.635957
O97   O     O_3   0.606567 0.291244 0.259641 -0.635978
O98   O     O_3   0.708774 0.606578 0.740343 -0.635653
O99   O     O_3   0.291226 0.393422 0.259656 -0.635641
O100  O     O_3   0.606567 0.291244 0.740359 -0.635956
Zn1   Zn    Zn3+2 0.586770 1.000000 0.731050 0.996713
Zn2   Zn    Zn3+2 0.913230 0.500000 0.768950 0.996714
Zn3   Zn    Zn3+2 0.500000 0.086770 0.231050 0.996713
Zn4   Zn    Zn3+2 0.500000 0.913230 0.768950 0.996730
Zn5   Zn    Zn3+2 0.913230 0.500000 0.231050 0.996730
Zn6   Zn    Zn3+2 0.086770 0.500000 0.768950 0.996714
Zn7   Zn    Zn3+2 0.500000 0.913230 0.231050 0.996713
Zn8   Zn    Zn3+2 0.500000 0.086770 0.768950 0.996730
Zn9   Zn    Zn3+2 0.413230 0.000000 0.268950 0.996731
Zn10  Zn    Zn3+2 1.000000 0.586770 0.731050 0.996730
Zn11  Zn    Zn3+2 0.000000 0.413230 0.268950 0.996713
Zn12  Zn    Zn3+2 0.413230 1.000000 0.731050 0.996713
Zn13  Zn    Zn3+2 0.586770 0.000000 0.268950 0.996730
Zn14  Zn    Zn3+2 0.000000 0.413230 0.731050 0.996730
Zn15  Zn    Zn3+2 0.000000 0.586770 0.268950 0.996713
Zn16  Zn    Zn3+2 0.086770 0.500000 0.231050 0.996730

loop_
_geom_bond_atom_site_label_1
_geom_bond_atom_site_label_2
_ccdc_geom_bond_type
C100  C153  A    
C28   C47   A    
C11   O71   S    
C3    O33   A    
C74   O63   S    
C139  H31   S    
C170  C176  A    
C39   O98   S    
H74   O80   S    
C143  H35   S    
C175  C183  A    
C126  C187  A    
C92   C119  A    
H95   O100  S    
C19   O78   S    
C66   O55   S    
C71   N6    A    
C108  H8    S    
C92   C109  A    
C72   C101  A    
C28   C40   A    
C81   C117  A    
C94   C111  A    
C141  H32   S    
C30   C38   A    
C68   C143  A    
C135  H27   S    
C152  C190  A    
C35   C139  A    
O4    Zn6   S    
C80   C116  A    
C78   C96   A    
C91   C122  A    
O36   Zn12  S    
C24   C127  A    
C128  C180  A    
C93   C120  A    
O15   Zn4   S    
C173  O7    A    
C74   N5    A    
O16   Zn3   S    
C85   C103  A    
C93   C110  A    
C101  C130  A    
C131  C134  A    
H62   O67   S    
C167  C180  A    
C62   O51   S    
C87   H22   S    
C213  O22   A    
C146  H38   S    
C140  O4    A    
C69   N4    A    
C141  C197  A    
C70   O59   S    
C25   O84   S    
C77   O66   S    
C104  H34   S    
H63   O69   S    
C12   O72   S    
C98   H67   S    
C33   C50   A    
C177  C186  A    
C119  N5    S    
C29   C45   A    
C184  O8    A    
C123  C185  A    
C138  H30   S    
C83   C115  A    
C19   C49   A    
C13   C63   A    
C62   N2    A    
C99   C156  A    
C12   C20   A    
C97   C154  A    
O34   Zn13  S    
C85   C117  A    
C174  C177  A    
C194  H51   S    
C135  C206  A    
C95   C122  A    
O57   Zn7   S    
C30   C49   A    
O24   Zn2   S    
C83   C100  A    
C82   C118  A    
C197  H53   S    
C151  C157  S    
C61   O50   S    
C199  H55   S    
C54   C214  S    
C198  H54   S    
O13   Zn9   S    
C70   C79   A    
C86   H13   S    
C14   C19   A    
C38   O97   S    
C114  H4    S    
C207  O44   A    
C76   C133  A    
C97   H56   S    
O35   Zn5   S    
C137  C204  A    
H90   O95   S    
C90   C145  A    
H96   O3    S    
C77   N8    A    
C112  O2    A    
C16   C17   A    
C204  H61   S    
C147  H39   S    
C189  H46   S    
C63   N3    A    
H93   O98   S    
O13   Zn13  S    
C169  C182  A    
C22   C45   A    
C149  C188  A    
C215  O36   A    
C82   H17   S    
C6    C52   S    
C23   O83   S    
C11   C56   A    
C21   O81   S    
C121  N7    S    
C15   C18   A    
O49   Zn13  S    
C122  N8    S    
C80   C97   A    
C84   C102  A    
C76   O65   S    
H91   O96   S    
O27   Zn2   S    
C99   H78   S    
C86   C104  A    
C25   C43   A    
O24   Zn10  S    
C57   C142  A    
C172  C199  A    
C63   O52   S    
C34   O94   S    
C10   C58   A    
O68   Zn2   S    
C161  C188  A    
O30   Zn5   S    
C55   C215  S    
C65   N1    A    
C16   O75   S    
O28   Zn7   S    
C200  H57   S    
C109  H89   S    
O39   Zn9   S    
C95   H21   S    
C164  C181  A    
C140  C158  S    
C90   C129  A    
O23   Zn3   S    
C10   O70   S    
C31   O91   S    
O42   Zn11  S    
C216  O32   A    
H85   O91   S    
C161  C179  A    
C36   C52   A    
C150  C191  A    
C84   C116  A    
C142  H33   S    
O14   Zn12  S    
C167  C193  A    
C111  H3    S    
C164  C190  A    
O22   Zn16  S    
C136  C201  A    
C17   O76   S    
C176  C202  A    
C78   C115  A    
C9    C23   A    
C140  O68   A    
C39   C58   A    
H88   O94   S    
C11   C21   A    
C4    O28   A    
C190  H47   S    
C3    C58   S    
C87   C119  A    
O37   Zn15  S    
C174  C187  A    
C137  H29   S    
C87   C105  A    
C149  H41   S    
O44   Zn9   S    
C102  H12   S    
O8    Zn9   S    
H77   O83   S    
C114  C160  A    
C161  C167  A    
H76   O82   S    
C148  H40   S    
C145  C192  A    
C196  H52   S    
C77   C134  A    
C4    O39   A    
C75   C132  A    
C26   C42   A    
C75   O64   S    
C117  N3    S    
C6    O37   A    
C172  C178  A    
C118  N4    S    
C214  O23   A    
C5    C60   S    
C30   O89   S    
C133  C150  A    
C41   C60   A    
C42   C59   A    
C203  H60   S    
C67   O56   S    
C61   C206  A    
C211  O20   A    
C15   O74   S    
C191  H48   S    
C35   C123  A    
C5    O40   A    
O35   Zn16  S    
C144  C193  A    
C152  H43   S    
C71   C90   A    
C105  H5    S    
C216  O26   A    
C192  H49   S    
C56   C216  S    
C12   C55   A    
C64   O53   S    
C37   C55   A    
C2    C125  A    
C71   O60   S    
C112  O57   A    
C50   C210  S    
C40   O99   S    
C170  C197  A    
C213  O47   A    
C74   C124  A    
O43   Zn1   S    
C8    C25   A    
O32   Zn11  S    
C1    O46   A    
C82   C99   A    
C46   C125  A    
C212  O45   A    
O20   Zn7   S    
C17   C51   A    
C139  C198  A    
C176  C185  A    
C76   N7    A    
C10   C22   A    
H69   O74   S    
C124  C148  A    
O1    Zn4   S    
O2    Zn3   S    
C193  H50   S    
C15   C53   A    
C46   C66   A    
C171  C198  A    
C214  O34   A    
C81   C98   A    
C35   C65   A    
C95   C114  A    
C88   H24   S    
C73   C113  A    
C147  C194  A    
H75   O81   S    
C111  C159  A    
O40   Zn1   S    
C26   O85   S    
C105  C157  A    
C68   C69   A    
C40   C56   A    
C5    O29   A    
C177  C203  A    
C85   H11   S    
H94   O99   S    
C88   C120  A    
C7    O31   A    
C211  O49   A    
C110  C158  A    
H92   O97   S    
C124  C128  A    
C129  C132  A    
C61   N1    A    
C209  O18   A    
O18   Zn5   S    
C109  C157  A    
C24   C64   A    
C29   O88   S    
O47   Zn15  S    
C132  C149  A    
C145  H37   S    
C66   N2    A    
C1    O90   A    
O26   Zn16  S    
O1    Zn8   S    
C26   C44   A    
C44   C213  S    
C163  C166  A    
O9    Zn1   S    
O12   Zn13  S    
C171  C185  A    
C23   C44   A    
C123  C206  A    
C9    O69   S    
C32   C51   A    
C195  O9    A    
C138  C203  A    
C162  O6    A    
C96   C153  A    
C38   C54   A    
C91   H26   S    
O13   Zn7   S    
C134  C152  A    
C188  H44   S    
C86   C118  A    
C43   C212  S    
C68   C127  A    
C20   C48   A    
C13   C126  A    
C37   O96   S    
C103  C155  A    
O48   Zn12  S    
C67   N3    A    
H73   O78   S    
C130  C133  A    
O21   Zn2   S    
C73   O62   S    
C32   C36   A    
C205  O43   A    
C75   N6    A    
C212  O21   A    
C18   C50   A    
H87   O93   S    
H64   O70   S    
C98   C155  A    
C45   C205  S    
H70   O75   S    
C142  C200  A    
C208  O41   A    
C1    C160  S    
H68   O73   S    
C16   C52   A    
C6    O30   A    
C7    O38   A    
C210  O48   A    
C65   O54   S    
O24   Zn14  S    
C78   H14   S    
H86   O92   S    
C174  C200  A    
C113  C147  A    
C102  C154  A    
C8    C60   A    
C131  C181  A    
C42   O3    S    
C89   C121  A    
C162  O10   A    
C165  C191  A    
C166  C192  A    
H65   O71   S    
H66   O72   S    
C94   C121  A    
C27   C43   A    
O35   Zn11  S    
C34   C53   A    
C103  H23   S    
C49   C209  S    
C209  O42   A    
C9    C59   A    
H71   O76   S    
H83   O88   S    
C208  O17   A    
C79   C128  A    
O29   Zn8   S    
C96   H45   S    
C112  C159  S    
C178  C204  A    
C170  C183  A    
C125  C183  A    
C14   O73   S    
C173  O11   A    
C84   H10   S    
C8    O67   S    
H84   O89   S    
C93   H19   S    
C129  C179  A    
C151  O79   A    
C48   C208  S    
O7    Zn14  S    
O90   Zn4   S    
O79   Zn16  S    
C27   O86   S    
C46   C141  A    
O6    Zn15  S    
C207  O16   A    
C168  C181  A    
O1    Zn1   S    
C127  C186  A    
C210  O19   A    
C20   O80   S    
O45   Zn14  S    
C18   O77   S    
C135  C202  A    
C172  C186  A    
C81   H16   S    
C153  C195  S    
H79   O84   S    
C91   C108  A    
C120  N6    S    
C151  O5    A    
C201  H58   S    
C155  C173  S    
C144  H36   S    
C156  C162  S    
C168  C194  A    
O11   Zn10  S    
C89   C107  A    
C164  C169  A    
C64   N4    A    
C69   O58   S    
C57   C67   A    
C115  N1    S    
C169  C196  A    
C107  H7    S    
C31   C37   A    
O41   Zn10  S    
C101  C146  A    
O24   Zn6   S    
C136  H28   S    
C175  C201  A    
C28   O87   S    
C163  C189  A    
C130  C182  A    
C41   O100  S    
C57   C126  A    
H81   O86   S    
C24   C138  A    
C106  C158  A    
C171  C175  A    
C2    C136  A    
C154  C184  S    
C13   C137  A    
C116  N2    S    
O25   Zn4   S    
O35   Zn15  S    
C88   C106  A    
C27   C41   A    
C72   N7    A    
C79   C144  A    
O19   Zn8   S    
C29   C39   A    
C33   C34   A    
O5    Zn5   S    
O17   Zn6   S    
C104  C156  A    
H82   O87   S    
H72   O77   S    
C195  O14   A    
C184  O12   A    
C14   C54   A    
C100  H1    S    
C165  C168  A    
C205  O15   A    
O1    Zn12  S    
O38   Zn14  S    
C89   H25   S    
C73   N8    A    
C178  C187  A    
C80   H15   S    
C146  C196  A    
C3    O27   A    
C83   H9    S    
C148  C189  A    
O33   Zn10  S    
C113  C131  A    
C36   O95   S    
C32   O92   S    
C165  C182  A    
C22   O82   S    
C70   N5    A    
C107  C159  A    
C108  C160  A    
O13   Zn3   S    
C143  C199  A    
C72   O61   S    
C47   C207  S    
C31   C48   A    
O10   Zn11  S    
C150  H42   S    
C94   H20   S    
C106  H6    S    
C4    C59   S    
C92   H18   S    
C33   O93   S    
H80   O85   S    
C215  O25   A    
C110  H2    S    
O31   Zn6   S    
C51   C211  S    
C202  H59   S    
C163  C180  A    
C7    C53   S    
C166  C179  A    
C21   C47   A    
C2    C62   A    
O46   Zn8   S    
