data_mof_unit_29224.cif
_audit_creation_date              2012-10-26T21:21:04-0400
_audit_creation_method            fapswitch 2.2
_symmetry_space_group_name_H-M    P1
_symmetry_Int_Tables_number       1
_space_group_crystal_system       triclinic
_cell_length_a                    10.795801
_cell_length_b                    10.963135
_cell_length_c                    9.754925
_cell_angle_alpha                 87.113273
_cell_angle_beta                  89.27739
_cell_angle_gamma                 90.201915
_cell_volume                      1152.98541215

loop_
_atom_site_label
_atom_site_type_symbol
_atom_type_description
_atom_site_fract_x
_atom_site_fract_y
_atom_site_fract_z
_atom_type_partial_charge
C1    C     C_R   0.505189 0.265840 0.504223 0.565857
C2    C     C_2   0.513045 0.134057 0.520409 0.238645
C3    C     C_2   0.457575 0.410930 0.933730 0.347949
C4    C     C_R   0.263410 0.516820 0.500558 0.546693
C5    C     C_2   0.489530 0.403011 0.083007 0.026342
C6    C     C_R   0.500272 0.733751 0.495686 0.561386
C7    C     C_R   0.738200 0.494131 0.499980 0.538555
C8    C     C_R   0.107976 0.545534 0.761412 0.304833
C9    C     C_R   0.056490 0.484649 0.877843 -0.038989
C10   C     C_R   0.950475 0.412818 0.868008 -0.011276
C11   C     C_R   0.890633 0.410700 0.741314 -0.066972
C12   C     C_R   0.061575 0.521081 0.629991 0.020109
C13   C     C_R   0.940859 0.474031 0.623344 -0.028582
C14   C     C_2   0.122034 0.633854 0.261692 0.265314
C15   C     C_2   0.604275 0.566105 0.889077 0.386078
C16   C     C_2   0.897780 0.350569 0.993687 0.253445
C17   C     C_R   0.128888 0.542473 0.505109 -0.012051
C18   C     C_R   0.062920 0.568833 0.383161 -0.018113
C19   C     C_R   0.935570 0.545954 0.382898 -0.103167
C20   C     C_R   0.874093 0.496269 0.500435 -0.010373
C21   C     C_2   0.413521 0.935655 0.478247 -0.100164
C22   C     C_2   0.512368 0.863796 0.479873 -0.002857
C23   C     C_2   0.427069 0.068073 0.457728 -0.142655
Cu1   Cu    Cu3+1 0.500020 0.500020 0.638630 1.210127
Cu2   Cu    Cu3+1 0.499980 0.499980 0.361370 0.994113
H1    H     H_    0.493749 0.313492 0.134897 0.202127
H2    H     H_    0.712919 0.137877 0.823071 0.406463
H3    H     H_    0.366996 0.096213 0.887783 0.385847
H4    H     H_    0.671342 0.525338 0.959566 0.092373
H5    H     H_    0.144885 0.848313 0.888170 0.382980
H6    H     H_    0.946553 0.354040 0.090104 0.139722
H7    H     H_    0.475529 0.580794 0.104350 0.238522
H8    H     H_    0.095605 0.498461 0.977413 0.187715
H9    H     H_    0.806210 0.358737 0.735360 0.210055
H10   H     H_    0.883314 0.570341 0.291491 0.186502
H11   H     H_    0.320889 0.897078 0.483913 0.174540
H12   H     H_    0.602769 0.899618 0.450158 0.165500
H13   H     H_    0.356525 0.114796 0.396459 0.132412
H14   H     H_    0.215974 0.668503 0.266131 0.148268
N1    N     N_2   0.498640 0.498660 0.846910 -0.233513
N2    N     N_2   0.498610 0.498630 0.153040 -0.390435
O1    O     O_R   0.500020 0.321960 0.617040 -0.410959
O2    O     O_2   0.559145 0.969697 0.732006 -0.213637
O3    O     O_2   0.733341 0.029672 0.578348 -0.288559
O4    O     O_3   0.659881 0.181210 0.754550 -0.477594
O5    O     O_2   0.254619 0.283587 0.004029 -0.330950
O6    O     O_2   0.290214 0.308299 0.757860 -0.267470
O7    O     O_3   0.430841 0.159973 0.898839 -0.458062
O8    O     O_2   0.621843 0.670884 0.845280 -0.401724
O9    O     O_2   0.297487 0.654608 0.882958 -0.276126
O10   O     O_2   0.235555 0.743232 0.657787 -0.321319
O11   O     O_3   0.093332 0.776725 0.867636 -0.452831
O12   O     O_R   0.499980 0.321920 0.382900 -0.532646
O13   O     O_2   0.799232 0.295832 0.991906 -0.513869
O14   O     O_R   0.319670 0.500020 0.617100 -0.427543
O15   O     O_R   0.319630 0.499980 0.382950 -0.522511
O16   O     O_R   0.500020 0.678080 0.617100 -0.383347
O17   O     O_R   0.499980 0.678040 0.382960 -0.531049
O18   O     O_R   0.680370 0.500020 0.617050 -0.514112
O19   O     O_R   0.680330 0.499980 0.382900 -0.500381
O20   O     O_2   0.064230 0.655005 0.156479 -0.482684
S1    S     S_3+6 0.617883 0.073548 0.647746 0.049683
S2    S     S_3+6 0.352912 0.292381 0.893349 0.047211
S3    S     S_3+6 0.190365 0.681652 0.789877 0.057155

loop_
_geom_bond_atom_site_label_1
_geom_bond_atom_site_label_2
_ccdc_geom_bond_type
C12   C17   A    
C8    C9    A    
H7    N2    S    
Cu1   Cu2   S    
C22   H12   S    
Cu2   O19   S    
C3    S2    S    
C23   H13   S    
Cu1   O1    S    
C9    C10   A    
C6    O17   A    
C19   C20   A    
Cu2   O15   S    
O5    S2    D    
C8    C12   A    
H2    O4    S    
C15   O8    D    
C17   C18   A    
C21   H11   S    
C10   C16   S    
C21   C22   D    
C4    O15   A    
Cu1   O14   S    
C9    H8    S    
C11   C13   A    
C6    O16   A    
H5    O11   S    
C8    S3    S    
Cu1   O18   S    
C4    C17   S    
C7    O18   A    
Cu1   N1    S    
Cu2   O12   S    
C3    N1    D    
C15   H4    S    
C10   C11   A    
C21   C23   S    
C4    O14   A    
O6    S2    D    
C16   O13   D    
C15   N1    S    
Cu2   O17   S    
O10   S3    D    
C5    N2    D    
C5    H1    S    
C6    C22   S    
C3    C5    S    
O4    S1    S    
C1    O1    A    
O9    S3    D    
C12   C13   A    
C1    C2    S    
O11   S3    S    
Cu2   N2    S    
C2    C23   D    
C1    O12   A    
C18   C19   A    
O7    S2    S    
C19   H10   S    
C13   C20   A    
O3    S1    D    
C14   H14   S    
C14   O20   D    
C14   C18   S    
C7    C20   S    
C11   H9    S    
H3    O7    S    
C7    O19   A    
C2    S1    S    
O2    S1    D    
Cu1   O16   S    
C16   H6    S    
