data_mof_unit_30213.cif
_audit_creation_date              2012-12-10T18:47:40-0500
_audit_creation_method            fapswitch 2.2
_symmetry_space_group_name_H-M    P1
_symmetry_Int_Tables_number       1
_space_group_crystal_system       triclinic
_cell_length_a                    9.943408
_cell_length_b                    10.635292
_cell_length_c                    15.493646
_cell_angle_alpha                 90.869203
_cell_angle_beta                  66.736763
_cell_angle_gamma                 88.44543
_cell_volume                      1504.10988231

loop_
_atom_site_label
_atom_site_type_symbol
_atom_type_description
_atom_site_fract_x
_atom_site_fract_y
_atom_site_fract_z
_atom_type_partial_charge
C1    C     C_R   0.498360 0.739696 0.500657 0.875200
C2    C     C_R   0.501668 0.260298 0.499305 0.876760
C3    C     C_R   0.319793 0.501579 0.109242 -0.198557
C4    C     C_R   0.637217 0.626036 0.910714 -0.208777
C5    C     C_R   0.218034 0.487123 0.069391 -0.217185
C6    C     C_R   0.738318 0.641264 0.951121 -0.211935
C7    C     C_R   0.560512 0.934990 0.554700 -0.163119
C8    C     C_R   0.439624 0.064982 0.445181 -0.162502
C9    C     C_R   0.563685 0.063866 0.553353 -0.107099
C10   C     C_R   0.436509 0.936099 0.446495 -0.106336
C11   C     C_R   0.503650 0.127707 0.498388 -0.012807
C12   C     C_R   0.496456 0.872272 0.501511 -0.011859
C13   C     C_R   0.965182 0.408537 0.450375 0.477291
C14   C     C_R   0.034857 0.591544 0.549555 0.482584
C15   C     C_R   0.106758 0.409920 0.451684 -0.231687
C16   C     C_R   0.893248 0.590109 0.548296 -0.227982
C17   C     C_R   0.407574 0.502298 0.676268 0.870016
C18   C     C_R   0.592278 0.500327 0.323763 0.874993
C19   C     C_R   0.348467 0.510888 0.778796 -0.045080
C20   C     C_R   0.648249 0.516047 0.222372 -0.042303
C21   C     C_R   0.160734 0.473936 0.931643 -0.218983
C22   C     C_R   0.811948 0.612938 0.081438 -0.223637
C23   C     C_R   0.205377 0.478175 0.834410 -0.157006
C24   C     C_R   0.780242 0.574266 0.172911 -0.186631
C25   C     C_R   0.442617 0.547368 0.820933 -0.253792
C26   C     C_R   0.552425 0.492107 0.178922 -0.246102
C27   C     C_R   0.401006 0.543593 0.918040 0.097052
C28   C     C_R   0.574103 0.541795 0.091855 0.095918
C29   C     C_R   0.258804 0.502700 0.973494 0.160194
C30   C     C_R   0.709104 0.598283 0.040907 0.160127
C31   C     C_R   0.501436 0.569373 0.960018 0.056261
C32   C     C_R   0.465043 0.536147 0.054497 0.061456
H1    H     H_    0.108619 0.458887 0.113250 0.173791
H2    H     H_    0.840316 0.686084 0.911536 0.178939
H3    H     H_    0.458226 0.437257 0.216168 0.161589
H4    H     H_    0.552204 0.570887 0.775729 0.164643
H5    H     H_    0.855442 0.594108 0.205935 0.165464
H6    H     H_    0.130686 0.450964 0.802666 0.172371
H7    H     H_    0.051864 0.442955 0.973640 0.158177
H8    H     H_    0.914091 0.658521 0.043765 0.154790
H9    H     H_    0.280240 0.488057 0.183942 0.168804
H10   H     H_    0.666507 0.664001 0.841806 0.185676
H11   H     H_    0.606534 0.884365 0.597480 0.162926
H12   H     H_    0.393576 0.115609 0.402418 0.163623
H13   H     H_    0.610266 0.113632 0.595964 0.169616
H14   H     H_    0.389993 0.886320 0.403852 0.169511
H15   H     H_    0.189094 0.337929 0.414539 0.220296
H16   H     H_    0.810906 0.662101 0.585439 0.218593
N1    N     N_R   0.142780 0.500030 0.500020 -0.171420
N2    N     N_R   0.857220 0.499970 0.499980 -0.171182
O1    O     O_R   0.385370 0.683250 0.500010 -0.537133
O2    O     O_R   0.614630 0.316750 0.499990 -0.536507
O3    O     O_R   0.614700 0.683220 0.500000 -0.639118
O4    O     O_R   0.385300 0.316780 0.500000 -0.637373
O5    O     O_R   0.319830 0.500020 0.632250 -0.563623
O6    O     O_R   0.680170 0.499980 0.367750 -0.563879
O7    O     O_R   0.549160 0.499990 0.632240 -0.631056
O8    O     O_R   0.450840 0.500010 0.367760 -0.631075
Zn1   Zn    Zn3+2 0.346870 0.500020 0.500000 1.020943
Zn2   Zn    Zn3+2 0.653130 0.499980 0.500000 1.019992
S1    S     S_3+6 0.938626 0.277596 0.387052 0.023739
O9    O     O_2   0.866571 0.176918 0.455256 -0.304771
O10   O     O_2   0.848961 0.309908 0.331854 -0.294714
O11   O     O_3   0.102204 0.219198 0.310672 -0.604486
H17   H     H_    0.080331 0.140297 0.284759 0.389865
S2    S     S_3+6 0.061541 0.722687 0.612665 0.021775
O12   O     O_2   0.151046 0.690405 0.667975 -0.297897
O13   O     O_2   0.133861 0.823127 0.544316 -0.302291
O14   O     O_3   0.898059 0.781511 0.688844 -0.620186
H18   H     H_    0.920671 0.857623 0.717533 0.387116

loop_
_geom_bond_atom_site_label_1
_geom_bond_atom_site_label_2
_ccdc_geom_bond_type
C21   C29   A    
C10   H14   S    
S1    O11   S    
S2    O13   D    
C9    H13   S    
C14   C16   A    
C7    H11   S    
C27   C29   A    
C23   H6    S    
C1    O1    A    
C17   O5    A    
C5    C29   A    
C31   C32   A    
N1    Zn1   S    
C13   C15   A    
C18   O6    A    
C3    C5    A    
C22   H8    S    
O11   H17   S    
C16   H16   S    
C28   C30   A    
C24   H5    S    
C14   S2    S    
N2    Zn2   S    
C9    C11   A    
C8    H12   S    
C3    C32   A    
C1    C12   S    
C2    O2    A    
O2    Zn2   S    
C8    C11   A    
C2    C11   S    
C10   C12   A    
C8    C10   A    
C17   C19   S    
O3    Zn2   S    
C16   N2    A    
S2    O12   D    
O5    Zn1   S    
O4    Zn1   S    
C15   N1    A    
C21   C23   A    
O14   H18   S    
C19   C25   A    
C4    H10   S    
C22   C24   A    
C7    C12   A    
C4    C31   A    
O1    Zn1   S    
S1    O9    D    
C25   H4    S    
C27   C31   A    
C13   N2    A    
S2    O14   S    
C6    H2    S    
C26   H3    S    
C28   C32   A    
C13   S1    S    
C14   N1    A    
C18   C20   S    
C4    C6    A    
C2    O4    A    
O7    Zn2   S    
C7    C9    A    
C20   C24   A    
C19   C23   A    
C3    H9    S    
C15   H15   S    
C1    O3    A    
C22   C30   A    
C6    C30   A    
O8    Zn1   S    
C26   C28   A    
C21   H7    S    
C18   O8    A    
S1    O10   D    
O6    Zn2   S    
C17   O7    A    
C20   C26   A    
C25   C27   A    
C5    H1    S    
