data_mof_unit_41075.cif
_audit_creation_date              2012-12-10T17:03:59-0500
_audit_creation_method            fapswitch 2.2
_symmetry_space_group_name_H-M    P1
_symmetry_Int_Tables_number       1
_space_group_crystal_system       triclinic
_cell_length_a                    18.937683
_cell_length_b                    18.567324
_cell_length_c                    19.087789
_cell_angle_alpha                 110.245931
_cell_angle_beta                  110.528587
_cell_angle_gamma                 109.474462
_cell_volume                      5045.90430675

loop_
_atom_site_label
_atom_site_type_symbol
_atom_type_description
_atom_site_fract_x
_atom_site_fract_y
_atom_site_fract_z
_atom_type_partial_charge
C1    C     C_R   0.006676 0.127496 0.620077 0.874971
C2    C     C_R   0.286820 0.284069 0.669531 0.131738
C3    C     C_R   0.904635 0.222999 0.580546 0.412021
C4    C     C_R   0.120965 0.122273 0.502823 0.831573
C5    C     C_R   0.824448 0.220075 0.555068 -0.354494
C6    C     C_R   0.788289 0.221756 0.607599 -0.005100
C7    C     C_R   0.838294 0.238853 0.692322 0.397767
C8    C     C_R   0.926276 0.258001 0.723552 -0.127934
C9    C     C_R   0.949749 0.229146 0.661792 -0.048842
C10   C     C_R   0.014478 0.204938 0.685156 -0.045495
C11   C     C_R   0.075877 0.243405 0.773877 -0.178287
C12   C     C_R   0.177161 0.168123 0.418839 0.035318
C13   C     C_R   0.069066 0.299802 0.837550 -0.167853
C14   C     C_R   0.993649 0.305975 0.812944 0.017916
C15   C     C_R   0.923454 0.773554 0.584553 0.381319
C16   C     C_R   0.003004 0.882648 0.379795 0.940742
C17   C     C_R   0.954564 0.775311 0.663990 0.031505
C18   C     C_R   0.899968 0.759929 0.696973 -0.272983
C19   C     C_R   0.811739 0.733391 0.647273 0.077677
C20   C     C_R   0.779158 0.729975 0.566384 0.044666
C21   C     C_R   0.839674 0.765861 0.543788 -0.108330
C22   C     C_R   0.813627 0.794332 0.483579 -0.074802
C23   C     C_R   0.313044 0.307790 0.493470 -0.162047
C24   C     C_R   0.723356 0.757432 0.425342 0.108727
C25   C     C_R   0.661608 0.702420 0.434716 -0.248513
C26   C     C_R   0.688748 0.691204 0.506041 -0.065015
C27   C     C_R   0.153015 0.919471 0.350328 -0.123952
C28   C     C_R   0.879543 0.872239 0.492613 0.939997
C29   C     C_R   0.205070 0.952195 0.317857 0.465155
C30   C     C_R   0.171996 0.904337 0.227401 -0.005223
C31   C     C_R   0.093084 0.819970 0.171634 0.048365
C32   C     C_R   0.047460 0.782907 0.207128 0.000971
C33   C     C_R   0.068351 0.839743 0.291467 -0.039528
C34   C     C_R   0.334847 0.312608 0.574386 0.062373
C35   C     C_R   0.001786 0.815376 0.311465 -0.038512
C36   C     C_R   0.921235 0.733077 0.251977 0.006723
C37   C     C_R   0.909788 0.668920 0.176344 0.408421
C38   C     C_R   0.979967 0.691522 0.161128 -0.248870
C39   C     C_R   0.622057 0.502523 0.621871 0.859723
C40   C     C_R   0.110042 0.084208 0.340730 -0.148664
C41   C     C_R   0.376599 0.378210 0.495031 0.918004
C42   C     C_R   0.376356 0.496607 0.379515 0.955907
C43   C     C_R   0.621654 0.621944 0.502756 0.921126
C44   C     C_R   0.879688 0.497056 0.877978 0.865621
C45   C     C_R   0.268167 0.260252 0.582031 0.066023
C46   C     C_R   0.996855 0.377571 0.878265 0.856360
C47   C     C_R   0.120557 0.501405 0.120635 0.895657
C48   C     C_R   0.992155 0.621139 0.110698 0.937807
C49   C     C_R   0.728478 0.654062 0.815710 -0.311245
C50   C     C_R   0.776576 0.719436 0.905175 0.462180
C51   C     C_R   0.835644 0.711424 0.965255 -0.193543
C52   C     C_R   0.090862 0.070406 0.258513 0.143447
C53   C     C_R   0.847487 0.639487 0.936071 -0.175862
C54   C     C_R   0.799728 0.572726 0.846108 0.091517
C55   C     C_R   0.737620 0.577798 0.783672 0.039866
C56   C     C_R   0.189042 0.186070 0.502110 -0.145236
C57   C     C_R   0.690143 0.507399 0.692675 -0.113447
C58   C     C_R   0.706192 0.437088 0.667987 -0.179334
C59   C     C_R   0.767611 0.434187 0.730011 -0.178139
C60   C     C_R   0.813722 0.501119 0.817471 -0.050598
C61   C     C_R   0.221166 0.497908 0.389706 0.084940
C62   C     C_R   0.163871 0.524240 0.405822 -0.028311
C63   C     C_R   0.120672 0.552522 0.354651 0.382074
C64   C     C_R   0.137832 0.140778 0.251557 0.103552
C65   C     C_R   0.130478 0.547830 0.284550 -0.230191
C66   C     C_R   0.185387 0.519030 0.265968 -0.052213
C67   C     C_R   0.422342 0.369997 0.648242 -0.105799
C68   C     C_R   0.238799 0.503372 0.324090 0.019503
C69   C     C_R   0.306354 0.493159 0.312707 -0.129541
C70   C     C_R   0.312941 0.488684 0.240038 0.030231
C71   C     C_R   0.250911 0.491280 0.176575 0.042432
C72   C     C_R   0.187970 0.506155 0.189982 -0.076609
C73   C     C_R   0.208582 0.223845 0.328518 0.064988
C74   C     C_R   0.233486 0.234968 0.413560 0.084507
C75   C     C_R   0.441368 0.382894 0.730124 -0.148902
C76   C     C_R   0.373511 0.342864 0.741236 -0.105460
H1    H     H_    0.388005 0.359335 0.806813 0.157782
H2    H     H_    0.894637 0.636548 0.984813 0.179922
H3    H     H_    0.780322 0.380155 0.709870 0.164251
H4    H     H_    0.096101 0.568902 0.245263 0.181785
H5    H     H_    0.477151 0.404847 0.643248 0.146260
H6    H     H_    0.508403 0.427547 0.785956 0.172043
H7    H     H_    0.128857 0.230160 0.793789 0.159931
H8    H     H_    0.842260 0.129745 0.393825 0.333768
H9    H     H_    0.657833 0.141933 0.517720 0.234700
H10   H     H_    0.697607 0.252236 0.556344 0.177286
H11   H     H_    0.802912 0.163329 0.837367 0.386366
H12   H     H_    0.788660 0.214205 0.492969 0.192682
H13   H     H_    0.655759 0.802030 0.362427 0.197569
H14   H     H_    0.653371 0.711766 0.295885 0.196221
H15   H     H_    0.090623 0.884208 0.635736 0.325086
H16   H     H_    0.034757 0.734758 0.716007 0.220660
H17   H     H_    0.075710 0.846380 0.773315 0.177575
H18   H     H_    0.760979 0.665502 0.694503 0.175127
H19   H     H_    0.785667 0.772795 0.742725 0.209370
H20   H     H_    0.801804 0.717580 0.227011 0.233717
H21   H     H_    0.828631 0.654016 0.265912 0.287576
H22   H     H_    0.247083 0.961223 0.472093 0.259618
H23   H     H_    0.120650 0.335976 0.906025 0.137768
H24   H     H_    0.201360 0.025901 0.467800 0.232223
H25   H     H_    0.374960 0.170827 0.383405 0.387479
H26   H     H_    0.237762 0.896205 0.163537 0.191396
H27   H     H_    0.180757 0.948499 0.145355 0.180013
H28   H     H_    0.038613 0.819255 0.058780 0.169625
H29   H     H_    0.098430 0.768770 0.061662 0.204505
H30   H     H_    0.733279 0.459350 0.964618 0.393448
H31   H     H_    0.676656 0.804782 0.826153 0.355861
H32   H     H_    0.046325 0.960159 0.145284 0.192267
H33   H     H_    0.973136 0.993331 0.144065 0.264316
H34   H     H_    0.924569 0.763031 0.759128 0.164289
H35   H     H_    0.358540 0.425130 0.173776 0.192957
H36   H     H_    0.420531 0.539271 0.231061 0.177613
H37   H     H_    0.201381 0.401906 0.420404 0.202868
H38   H     H_    0.289086 0.504789 0.502838 0.240591
H39   H     H_    0.165978 0.583769 0.518812 0.214761
H40   H     H_    0.084454 0.473742 0.446355 0.263751
H41   H     H_    0.137767 0.697800 0.514829 0.372471
H42   H     H_    0.243500 0.415914 0.064688 0.170240
H43   H     H_    0.310953 0.528476 0.114785 0.198567
H44   H     H_    0.096183 0.172475 0.159183 0.197803
H45   H     H_    0.072153 0.027104 0.342128 0.151970
H46   H     H_    0.167929 0.136617 0.158625 0.191351
H47   H     H_    0.278072 0.277535 0.281510 0.212153
H48   H     H_    0.204908 0.309426 0.286166 0.172627
H49   H     H_    0.214546 0.208615 0.701934 0.213754
H50   H     H_    0.161360 0.247061 0.644007 0.220816
H51   H     H_    0.591966 0.669703 0.387071 0.141268
H52   H     H_    0.670741 0.383382 0.600089 0.176465
H53   H     H_    0.688129 0.668751 0.774582 0.205234
H54   H     H_    0.873797 0.761655 0.034748 0.181574
N1    N     N_3   0.700587 0.205840 0.574581 -0.358397
N2    N     N_3   0.384282 0.483698 0.232301 -0.433105
N3    N     N_3   0.254735 0.458699 0.435331 -0.433143
N4    N     N_3   0.150471 0.520594 0.474259 -0.434173
N5    N     N_3   0.250806 0.478496 0.097808 -0.449581
N6    N     N_3   0.113721 0.126389 0.165645 -0.460604
N7    N     N_3   0.251577 0.296552 0.319294 -0.452170
N8    N     N_3   0.220864 0.261385 0.691402 -0.458005
N9    N     N_3   0.693914 0.773577 0.355288 -0.418439
N10   N     N_3   0.041056 0.790157 0.710067 -0.417307
N11   N     N_3   0.757570 0.715077 0.682386 -0.433164
N12   N     N_3   0.852421 0.716252 0.271012 -0.388352
N13   N     N_3   0.188570 0.960564 0.442735 -0.375463
N14   N     N_3   0.220587 0.940846 0.192841 -0.358538
N15   N     N_3   0.053489 0.777388 0.078118 -0.443808
N16   N     N_3   0.020922 0.984509 0.182079 -0.436838
O1    O     O_R   0.051710 0.091600 0.643330 -0.653980
O2    O     O_R   0.856640 0.448280 0.908400 -0.542709
O3    O     O_R   0.051720 0.460120 0.908370 -0.621607
O4    O     O_R   0.948270 0.091620 0.539910 -0.567893
O5    O     O_R   0.948290 0.356670 0.908380 -0.550104
O6    O     O_R   0.143340 0.551720 0.091580 -0.604160
O7    O     O_R   0.039910 0.448270 0.091590 -0.621953
O8    O     O_R   0.051690 0.643330 0.091600 -0.634101
O9    O     O_R   0.948270 0.539880 0.091610 -0.534728
O10   O     O_R   0.143340 0.091610 0.551710 -0.657712
O11   O     O_R   0.039890 0.091630 0.448290 -0.549804
O12   O     O_R   0.591640 0.448340 0.539940 -0.615841
O13   O     O_R   0.051730 0.908380 0.460090 -0.520836
O14   O     O_R   0.948290 0.908400 0.356670 -0.637589
O15   O     O_R   0.960110 0.908370 0.551710 -0.620729
O16   O     O_R   0.856660 0.908390 0.448290 -0.597009
O17   O     O_R   0.591600 0.551770 0.643360 -0.636377
O18   O     O_2   0.942742 0.312100 0.502306 -0.270040
O19   O     O_2   0.050882 0.277232 0.571544 -0.308360
O20   O     O_3   0.905198 0.147996 0.423857 -0.494760
O21   O     O_2   0.762966 0.270591 0.786205 -0.288619
O22   O     O_2   0.693315 0.116135 0.668638 -0.251344
O23   O     O_R   0.408370 0.460150 0.551730 -0.627561
O24   O     O_3   0.837476 0.178616 0.810599 -0.538684
O25   O     O_2   0.987324 0.675439 0.524618 -0.208553
O26   O     O_2   0.924451 0.729419 0.434395 -0.273978
O27   O     O_3   0.078703 0.842890 0.577976 -0.471275
O28   O     O_2   0.334940 0.106442 0.479319 -0.332080
O29   O     O_2   0.378858 0.026211 0.388336 -0.264342
O30   O     O_3   0.314920 0.116920 0.342743 -0.556352
O31   O     O_2   0.810849 0.500756 0.133809 -0.225945
O32   O     O_2   0.730937 0.574276 0.095808 -0.326995
O33   O     O_3   0.789436 0.517580 0.999710 -0.566256
O34   O     O_R   0.408410 0.356720 0.448320 -0.612995
O35   O     O_2   0.773655 0.840290 0.029391 -0.247157
O36   O     O_2   0.838512 0.890777 0.952734 -0.332376
O37   O     O_3   0.667624 0.791940 0.869560 -0.515993
O38   O     O_2   0.996682 0.593730 0.297782 -0.235629
O39   O     O_2   0.996902 0.539470 0.397354 -0.248026
O40   O     O_3   0.120674 0.701644 0.461526 -0.466635
O41   O     O_R   0.408360 0.551760 0.460120 -0.616434
O42   O     O_R   0.408400 0.448330 0.356700 -0.610754
O43   O     O_R   0.591600 0.643380 0.551740 -0.602693
O44   O     O_R   0.591640 0.539950 0.448320 -0.606947
O45   O     O_R   0.960070 0.551730 0.908390 -0.647350
S1    S     S_3+6 0.954206 0.242900 0.520489 0.053378
S2    S     S_3+6 0.780247 0.201023 0.739931 0.053153
S3    S     S_3+6 0.977528 0.753106 0.526902 0.112048
S4    S     S_3+6 0.311454 0.052285 0.386653 0.016306
S5    S     S_3+6 0.807620 0.563525 0.101552 0.033162
S6    S     S_3+6 0.765800 0.814022 0.941971 0.025573
S7    S     S_3+6 0.054581 0.594843 0.376262 0.081677
Zn1   Zn    Zn3+2 0.069070 0.999990 0.569050 1.015650
Zn2   Zn    Zn3+2 0.930930 0.000010 0.430950 1.084032
Zn3   Zn    Zn3+2 0.499980 0.569110 0.569080 0.996283
Zn4   Zn    Zn3+2 0.500030 0.430990 0.430980 0.994682
Zn5   Zn    Zn3+2 0.069050 0.569070 0.999980 0.971458
Zn6   Zn    Zn3+2 0.930930 0.430930 0.000000 1.133093

loop_
_geom_bond_atom_site_label_1
_geom_bond_atom_site_label_2
_ccdc_geom_bond_type
C42   O41   A    
C66   C68   A    
C63   C65   A    
C58   H52   S    
O31   S5    D    
C12   C74   A    
H22   N13   S    
C16   O14   A    
C73   C74   A    
C41   O34   A    
O26   S3    D    
C35   C36   A    
O5    Zn6   S    
O35   S6    D    
H27   N14   S    
C64   N6    S    
O8    Zn5   S    
C61   N3    S    
C7    C8    A    
O14   Zn2   S    
C54   C60   A    
C53   C54   A    
C27   C33   A    
C40   H45   S    
O37   S6    S    
O45   Zn5   S    
C36   C37   A    
O34   Zn4   S    
H41   O40   S    
C44   O45   A    
C71   N5    S    
C30   C31   A    
H10   N1    S    
C27   C29   A    
C39   C57   S    
O16   Zn2   S    
O19   S1    D    
C30   N14   S    
C47   O6    A    
H15   O27   S    
C18   C19   A    
O4    Zn2   S    
C36   N12   S    
C13   H23   S    
C33   C35   A    
C5    H12   S    
O1    Zn1   S    
C50   S6    S    
C66   C72   A    
C19   C20   A    
C43   O44   A    
C20   C26   A    
C8    C9    A    
H13   N9    S    
C28   O15   A    
C27   N13   S    
C64   C73   A    
O6    Zn5   S    
C70   C71   A    
O18   S1    D    
C32   C38   A    
O39   S7    D    
C7    S2    S    
C29   C30   A    
C9    C10   A    
O3    Zn5   S    
C38   C48   S    
O28   S4    D    
O7    Zn6   S    
O13   Zn1   S    
C46   O5    A    
C59   C60   A    
C19   N11   S    
C65   H4    S    
H37   N3    S    
C13   C14   A    
C4    C56   S    
C16   O13   A    
O21   S2    D    
C61   C62   A    
O36   S6    D    
H26   N14   S    
C8    C14   A    
O25   S3    D    
C73   N7    S    
O29   S4    D    
C51   H54   S    
C26   C43   S    
C50   C51   A    
H32   N16   S    
O33   S5    S    
C24   N9    S    
H21   N12   S    
O15   Zn1   S    
C28   O16   A    
C2    N8    S    
C37   S5    S    
H48   N7    S    
C24   C25   A    
C45   C56   A    
C14   C46   S    
C52   C64   A    
C59   H3    S    
C68   C69   A    
C2    C45   A    
C47   O7    A    
C11   H7    S    
C25   C26   A    
C40   C52   A    
H11   O24   S    
C41   O23   A    
C42   C69   S    
H43   N5    S    
H31   O37   S    
H44   N6    S    
C12   C40   A    
C75   C76   A    
C37   C38   A    
C3    C9    A    
C29   S4    S    
C4    O11   A    
C23   C34   A    
H29   N15   S    
C62   C63   A    
C70   N2    S    
C17   C18   A    
C1    O4    A    
C34   C45   A    
H36   N2    S    
H46   N6    S    
C12   C56   A    
C15   S3    S    
H47   N7    S    
C4    O10   A    
C48   O9    A    
H19   N11   S    
O38   S7    D    
O22   S2    D    
C55   C57   A    
C39   O12   A    
H20   N12   S    
O12   Zn4   S    
C22   C24   A    
C1    O1    A    
O10   Zn1   S    
C67   C75   A    
C23   C74   A    
C39   O17   A    
O9    Zn6   S    
H16   N10   S    
H30   O33   S    
H14   N9    S    
C2    C76   A    
O2    Zn6   S    
O17   Zn3   S    
C42   O42   A    
C15   C17   A    
C48   O8    A    
C54   C55   A    
H50   N8    S    
C52   N16   S    
H18   N11   S    
H28   N15   S    
C31   C32   A    
O44   Zn4   S    
C1    C10   S    
C18   H34   S    
C6    N1    S    
C3    C5    A    
H24   N13   S    
C34   C67   A    
O24   S2    S    
C75   H6    S    
C67   H5    S    
C6    C7    A    
H39   N4    S    
H49   N8    S    
O41   Zn3   S    
C23   C41   S    
C63   S7    S    
O11   Zn2   S    
O43   Zn3   S    
C32   C33   A    
C62   N4    S    
C53   H2    S    
C58   C59   A    
C71   C72   A    
C16   C35   S    
H17   N10   S    
C49   C55   A    
C3    S1    S    
H9    N1    S    
C76   H1    S    
C11   C13   A    
C61   C68   A    
C57   C58   A    
C5    C6    A    
O32   S5    D    
C44   C60   S    
C49   H53   S    
O42   Zn4   S    
C44   O2    A    
H38   N3    S    
C17   N10   S    
O20   S1    S    
C65   C66   A    
O30   S4    S    
C25   H51   S    
C69   C70   A    
C47   C72   S    
H33   N16   S    
H8    O20   S    
C10   C11   A    
O23   Zn3   S    
C31   N15   S    
H35   N2    S    
C15   C21   A    
C46   O3    A    
H40   N4    S    
C20   C21   A    
C43   O43   A    
C49   C50   A    
O27   S3    S    
O40   S7    S    
H25   O30   S    
C22   C28   S    
C51   C53   A    
C21   C22   A    
H42   N5    S    
