data_mof_unit_43613.cif
_audit_creation_date              2012-10-26T19:48:08-0400
_audit_creation_method            fapswitch 2.2
_symmetry_space_group_name_H-M    P1
_symmetry_Int_Tables_number       1
_space_group_crystal_system       triclinic
_cell_length_a                    10.729801
_cell_length_b                    9.497782
_cell_length_c                    10.627527
_cell_angle_alpha                 90.209892
_cell_angle_beta                  89.263314
_cell_angle_gamma                 90.326128
_cell_volume                      1082.92990652

loop_
_atom_site_label
_atom_site_type_symbol
_atom_type_description
_atom_site_fract_x
_atom_site_fract_y
_atom_site_fract_z
_atom_type_partial_charge
C1    C     C_R   0.259975 0.499806 0.502406 0.528589
C2    C     C_3   0.929411 0.446042 0.376327 -0.235763
C3    C     C_3   0.608525 0.083277 0.428005 0.744185
C4    C     C_3   0.611673 0.914163 0.432577 0.734951
C5    C     C_3   0.508477 0.083887 0.632426 -0.118902
C6    C     C_3   0.504705 0.917072 0.632681 -0.130551
C7    C     C_3   0.382798 0.082510 0.451996 -0.196790
C8    C     C_3   0.385438 0.915962 0.446405 -0.188375
C9    C     C_R   0.500240 0.500098 0.259677 0.548266
C10   C     C_R   0.739873 0.500370 0.502466 0.553585
C11   C     C_R   0.500063 0.500105 0.740406 0.580576
C12   C     C_3   0.500630 0.501043 0.122935 -0.057019
C13   C     C_3   0.500238 0.635169 0.041892 -0.105968
C14   C     C_3   0.397468 0.433314 0.043718 -0.141196
C15   C     C_3   0.397484 0.566837 0.960027 -0.222761
C16   C     C_3   0.499892 0.500239 0.877153 0.060662
C17   C     C_3   0.601146 0.566995 0.957803 0.341906
C18   C     C_3   0.500375 0.368936 0.959740 0.337930
C19   C     C_3   0.603674 0.434413 0.040856 -0.081950
C20   C     C_3   0.546749 0.099004 0.206386 -0.097771
C21   C     C_3   0.739426 0.850163 0.258301 -0.063284
C22   C     C_3   0.072311 0.651207 0.526880 -0.243686
C23   C     C_3   0.070155 0.404005 0.610912 -0.239165
C24   C     C_3   0.929800 0.651384 0.528010 -0.212436
C25   C     C_3   0.926100 0.404131 0.610774 -0.232315
C26   C     C_3   0.073191 0.445192 0.376349 -0.238589
C27   C     C_3   0.121973 0.499839 0.504221 0.048994
C28   C     C_3   0.878119 0.500659 0.504395 0.021450
Cu1   Cu    Cu3+1 0.499860 0.642410 0.500060 0.992388
Cu2   Cu    Cu3+1 0.499860 0.357590 0.500060 0.999157
F1    F     F_    0.716533 0.124434 0.488838 -0.608161
F2    F     F_    0.717357 0.876359 0.499455 -0.631796
F3    F     F_    0.705298 0.635978 0.910385 -0.648305
F4    F     F_    0.500082 0.231776 0.915854 -0.676027
H1    H     H_    0.313593 0.620738 0.924232 0.119311
H2    H     H_    0.429797 0.123295 0.691707 0.168061
H3    H     H_    0.421758 0.881133 0.688043 0.114425
H4    H     H_    0.501308 0.745127 0.077705 0.156148
H5    H     H_    0.314291 0.377090 0.081835 0.116895
H6    H     H_    0.687710 0.380241 0.076004 0.133695
H7    H     H_    0.106766 0.722950 0.451221 0.122696
H8    H     H_    0.103874 0.294237 0.597862 0.133173
H9    H     H_    0.106591 0.693165 0.618184 0.126896
H10   H     H_    0.104051 0.441919 0.703683 0.118186
H11   H     H_    0.894690 0.692481 0.620028 0.189875
H12   H     H_    0.896359 0.514119 0.298699 0.104589
H13   H     H_    0.890076 0.441487 0.703674 0.147586
H14   H     H_    0.898852 0.724191 0.453802 0.177678
H15   H     H_    0.891713 0.294459 0.597297 0.195881
H16   H     H_    0.109599 0.512640 0.298535 0.110916
H17   H     H_    0.106906 0.336213 0.358428 0.122805
H18   H     H_    0.482947 0.011562 0.227161 0.092337
H19   H     H_    0.607577 0.067430 0.126169 0.169927
H20   H     H_    0.488502 0.185881 0.172360 0.169993
H21   H     H_    0.798222 0.941027 0.288005 0.167341
H22   H     H_    0.732278 0.853979 0.154362 0.134345
H23   H     H_    0.894179 0.337526 0.357884 0.179289
H24   H     H_    0.784800 0.749239 0.281023 0.138656
H25   H     H_    0.594677 0.121485 0.679139 0.217546
H26   H     H_    0.586793 0.876603 0.683769 0.211539
H27   H     H_    0.302711 0.114181 0.513232 0.126540
H28   H     H_    0.302030 0.876791 0.498790 0.128047
H29   H     H_    0.360196 0.128914 0.359822 0.122058
H30   H     H_    0.373637 0.876047 0.349123 0.135808
N1    N     N_3   0.500250 0.143650 0.502780 -0.257064
N2    N     N_3   0.500250 0.856350 0.502780 -0.241390
O1    O     O_R   0.317570 0.620260 0.500070 -0.535723
O2    O     O_3   0.617683 0.851982 0.310886 -0.575723
O3    O     O_R   0.317570 0.379740 0.500070 -0.533212
O4    O     O_R   0.499850 0.620240 0.316900 -0.462466
O5    O     O_R   0.499850 0.379760 0.316900 -0.483226
O6    O     O_R   0.682190 0.620260 0.500030 -0.433491
O7    O     O_R   0.682190 0.379740 0.500030 -0.425253
O8    O     O_R   0.499910 0.620280 0.683200 -0.509679
O9    O     O_R   0.499910 0.379720 0.683200 -0.485011
O10   O     O_3   0.622953 0.146626 0.306295 -0.531833

loop_
_geom_bond_atom_site_label_1
_geom_bond_atom_site_label_2
_ccdc_geom_bond_type
C8    N2    S    
C14   C18   S    
Cu2   O5    S    
C2    H23   S    
C7    C8    S    
C2    H12   S    
C25   C28   S    
C26   C27   S    
C23   H8    S    
C24   H11   S    
C26   H16   S    
C5    C6    S    
C10   O7    A    
C22   H7    S    
C15   C16   S    
C5    H2    S    
C20   O10   S    
C9    O5    A    
C18   C19   S    
C7    H27   S    
C17   C19   S    
C14   H5    S    
Cu1   O1    S    
C16   C17   S    
C23   C27   S    
C25   H13   S    
Cu1   O6    S    
C3    N1    S    
C17   F3    S    
C15   H1    S    
C5    H25   S    
C24   H14   S    
C6    H26   S    
C9    O4    A    
C20   H20   S    
C21   H21   S    
Cu2   O7    S    
Cu1   O8    S    
C1    O3    A    
C23   H10   S    
Cu1   Cu2   S    
C7    N1    S    
C11   C16   S    
C22   H9    S    
C6    H3    S    
C2    C26   S    
C3    F1    S    
C3    O10   S    
C18   F4    S    
C7    H29   S    
C13   H4    S    
C4    F2    S    
C8    H30   S    
C5    N1    S    
C12   C14   S    
C22   C27   S    
C13   C15   S    
C21   O2    S    
C22   C24   S    
C3    C4    S    
Cu2   O3    S    
C4    O2    S    
Cu1   O4    S    
C10   C28   S    
C24   C28   S    
C20   H19   S    
C11   O8    A    
C21   H22   S    
C13   C17   S    
C21   H24   S    
C20   H18   S    
C11   O9    A    
C26   H17   S    
C4    N2    S    
Cu2   O9    S    
C12   C19   S    
C1    O1    A    
C23   C25   S    
C9    C12   S    
C25   H15   S    
Cu2   N1    S    
C19   H6    S    
Cu1   N2    S    
C6    N2    S    
C12   C13   S    
C16   C18   S    
C1    C27   S    
C14   C15   S    
C2    C28   S    
C8    H28   S    
C10   O6    A    
