data_mof_unit_65146.cif
_audit_creation_date              2012-12-10T18:24:14-0500
_audit_creation_method            fapswitch 2.2
_symmetry_space_group_name_H-M    P1
_symmetry_Int_Tables_number       1
_space_group_crystal_system       triclinic
_cell_length_a                    16.089532
_cell_length_b                    16.085767
_cell_length_c                    16.099003
_cell_angle_alpha                 95.864032
_cell_angle_beta                  84.410419
_cell_angle_gamma                 90.110367
_cell_volume                      4124.97570082

loop_
_atom_site_label
_atom_site_type_symbol
_atom_type_description
_atom_site_fract_x
_atom_site_fract_y
_atom_site_fract_z
_atom_type_partial_charge
C1    C     C_R   0.510595 0.724337 0.510662 0.510014
C2    C     C_1   0.485399 0.186219 0.485171 0.030452
C3    C     C_1   0.515044 0.483396 0.184802 0.010558
C4    C     C_R   0.489340 0.275666 0.489291 0.505185
C5    C     C_2   0.522277 0.475002 0.018490 0.266138
C6    C     C_2   0.475686 0.527932 0.982210 0.311684
C7    C     C_1   0.480980 0.521613 0.890715 -0.007066
C8    C     C_1   0.518448 0.479498 0.109366 -0.003176
C9    C     C_1   0.484986 0.516849 0.815202 -0.000582
C10   C     C_R   0.510778 0.488128 0.274578 0.510143
C11   C     C_R   0.489259 0.511839 0.725426 0.508045
C12   C     C_1   0.111112 0.520681 0.520554 -0.041602
C13   C     C_R   0.724327 0.488148 0.488198 0.505531
C14   C     C_R   0.275677 0.511872 0.511832 0.508324
C15   C     C_1   0.813752 0.483382 0.483478 0.018715
C16   C     C_2   0.978706 0.474417 0.474607 -0.118062
C17   C     C_2   0.021298 0.525616 0.525433 -0.119820
C18   C     C_3   0.622917 0.974896 0.627213 -0.002022
C19   C     C_3   0.676381 0.030157 0.682708 -0.357665
C20   C     C_3   0.379231 0.638349 0.989019 -0.013791
C21   C     C_3   0.326155 0.699191 0.050702 -0.358633
C22   C     C_1   0.888892 0.479348 0.479487 -0.040381
C23   C     C_1   0.186251 0.516643 0.516559 0.017004
C24   C     C_1   0.515624 0.813762 0.515792 -0.021119
C25   C     C_2   0.526637 0.979740 0.527395 0.277753
C26   C     C_2   0.480417 0.021109 0.479743 -0.072437
C27   C     C_1   0.482789 0.111069 0.482367 0.011412
C28   C     C_1   0.520314 0.888913 0.520700 -0.082134
H1    H     H_    0.988879 0.571740 0.571208 0.137306
H2    H     H_    0.422458 0.675284 0.949039 0.136546
H3    H     H_    0.366745 0.738246 0.090708 0.165064
H4    H     H_    0.290173 0.740597 0.015919 0.101368
H5    H     H_    0.281780 0.664315 0.091281 0.166293
H6    H     H_    0.602424 0.383758 0.006768 0.325024
H7    H     H_    0.011127 0.428292 0.428833 0.140303
H8    H     H_    0.439929 0.987453 0.437870 0.079256
H9    H     H_    0.665086 0.930963 0.584720 0.138015
H10   H     H_    0.579470 0.939404 0.668429 0.137429
H11   H     H_    0.636089 0.074466 0.726412 0.172487
H12   H     H_    0.712133 0.990895 0.719865 0.097822
H13   H     H_    0.720974 0.066100 0.643425 0.169305
H14   H     H_    0.336763 0.600695 0.949627 0.138842
O1    O     O_3   0.500000 0.500000 0.500000 -0.440175
O2    O     O_R   0.689040 0.536050 0.444000 -0.536716
O3    O     O_R   0.315570 0.560650 0.560630 -0.536025
O4    O     O_R   0.679800 0.444450 0.536560 -0.532255
O5    O     O_R   0.315590 0.458850 0.458810 -0.533483
O6    O     O_3   0.577879 0.025680 0.580398 -0.538944
O7    O     O_3   0.424577 0.586173 0.034165 -0.580498
O8    O     O_3   0.573476 0.416634 0.969160 -0.712196
O9    O     O_R   0.458170 0.444480 0.314880 -0.533388
O10   O     O_R   0.445130 0.560630 0.690220 -0.546365
O11   O     O_R   0.559450 0.679320 0.457680 -0.532839
O12   O     O_R   0.537250 0.315570 0.537220 -0.524401
O13   O     O_R   0.458120 0.689530 0.559970 -0.536150
O14   O     O_R   0.445170 0.315580 0.445130 -0.540587
O15   O     O_R   0.559480 0.536070 0.314410 -0.532914
O16   O     O_R   0.537220 0.458810 0.680490 -0.519543
Zn1   Zn    Zn3+2 0.430930 0.430930 0.430910 0.954079
Zn2   Zn    Zn3+2 0.575680 0.561790 0.430230 0.952928
Zn3   Zn    Zn3+2 0.562480 0.430910 0.562480 0.967268
Zn4   Zn    Zn3+2 0.430910 0.576380 0.576380 0.944675

loop_
_geom_bond_atom_site_label_1
_geom_bond_atom_site_label_2
_ccdc_geom_bond_type
C12   C17   S    
C14   C23   S    
C5    C8    S    
C2    C4    S    
C2    C27   T    
O12   Zn3   S    
C11   O16   A    
C17   H1    S    
C20   H14   S    
C25   O6    S    
O14   Zn1   S    
O1    Zn1   S    
C9    C11   S    
O16   Zn3   S    
C1    O13   A    
C6    O7    S    
C3    C10   S    
C20   H2    S    
C4    O14   A    
C25   C28   S    
C13   O2    A    
C21   H3    S    
C12   C23   T    
C26   C27   S    
C6    C7    S    
C19   H11   S    
O1    Zn2   S    
O2    Zn2   S    
C20   O7    S    
C10   O9    A    
C26   H8    S    
C18   H9    S    
C3    C8    T    
C14   O3    A    
C13   C15   S    
C16   H7    S    
C18   H10   S    
C5    C6    D    
C21   H4    S    
C5    O8    S    
H6    O8    S    
C21   H5    S    
C19   H12   S    
O4    Zn3   S    
O5    Zn1   S    
O13   Zn4   S    
C19   H13   S    
O3    Zn4   S    
C10   O15   A    
O9    Zn1   S    
C20   C21   S    
O1    Zn3   S    
C1    C24   S    
C18   C19   S    
C7    C9    T    
C1    O11   A    
C13   O4    A    
O15   Zn2   S    
O10   Zn4   S    
C11   O10   A    
C4    O12   A    
C25   C26   D    
C14   O5    A    
O11   Zn2   S    
C15   C22   T    
C24   C28   T    
O1    Zn4   S    
C16   C22   S    
C16   C17   D    
C18   O6    S    
