data_mof_unit_63316.cif
_audit_creation_date              2012-12-11T15:08:32-0500
_audit_creation_method            fapswitch 2.2
_symmetry_space_group_name_H-M    P1
_symmetry_Int_Tables_number       1
_space_group_crystal_system       triclinic
_cell_length_a                    26.84961
_cell_length_b                    7.097378
_cell_length_c                    11.895552
_cell_angle_alpha                 89.999929
_cell_angle_beta                  103.37573
_cell_angle_gamma                 89.999983
_cell_volume                      2205.34782474

loop_
_atom_site_label
_atom_site_type_symbol
_atom_type_description
_atom_site_fract_x
_atom_site_fract_y
_atom_site_fract_z
_atom_type_partial_charge
O1    O     O_R   0.437360 0.505910 0.042120 -0.528532
O2    O     O_R   0.562640 0.005910 0.957880 -0.528532
O3    O     O_R   0.542480 0.176660 0.157100 -0.533609
O4    O     O_R   0.457520 0.676660 0.842900 -0.533609
C1    C     C_R   0.557193 0.344267 0.197952 0.774300
C2    C     C_R   0.442807 0.844267 0.802048 0.774300
O5    O     O_R   0.436520 0.176250 0.054800 -0.533772
O6    O     O_R   0.563480 0.676250 0.945200 -0.533772
O7    O     O_R   0.455920 0.005040 0.854840 -0.533323
O8    O     O_R   0.544080 0.505040 0.145160 -0.533323
C3    C     C_R   0.417611 0.345059 0.064007 0.740224
C4    C     C_R   0.582389 0.845059 0.935993 0.740224
O9    O     O_3   0.506490 0.338900 0.934520 -0.366383
O10   O     O_3   0.493510 0.838900 0.065480 -0.366383
V1    V     V_3+5 0.498800 0.064400 0.012150 1.620284
V2    V     V_3+5 0.501200 0.564400 0.987850 1.620284
C5    C     C_R   0.677523 0.906937 0.749293 -0.115116
C6    C     C_R   0.322477 0.406936 0.250707 -0.115117
H1    H     H_    0.676689 0.935253 0.659501 0.156283
H2    H     H_    0.323311 0.435252 0.340498 0.156283
C7    C     C_R   0.630369 0.857129 0.896710 -0.023447
C8    C     C_R   0.369630 0.357129 0.103289 -0.023447
C9    C     C_R   0.864729 0.835386 0.202840 0.373444
C10   C     C_R   0.135271 0.335387 0.797160 0.373444
C11   C     C_R   0.819191 0.861624 0.238325 0.442305
C12   C     C_R   0.180808 0.361625 0.761675 0.442304
C13   C     C_R   0.773258 0.896729 0.155749 -0.106200
C14   C     C_R   0.226742 0.396729 0.844251 -0.106199
C15   C     C_R   0.771687 0.873862 0.035157 -0.052868
C16   C     C_R   0.228313 0.373861 0.964842 -0.052867
C17   C     C_R   0.819109 0.869039 0.998979 -0.067919
C18   C     C_R   0.180891 0.369038 0.001021 -0.067920
C19   C     C_R   0.724376 0.863767 0.949377 0.106338
C20   C     C_R   0.275624 0.363767 0.050623 0.106338
C21   C     C_R   0.724338 0.884155 0.831011 0.064235
C22   C     C_R   0.275662 0.384154 0.168989 0.064235
C23   C     C_R   0.770623 0.883016 0.795660 0.303327
C24   C     C_R   0.229377 0.383015 0.204340 0.303326
C25   C     C_R   0.817563 0.874211 0.877524 0.274973
C26   C     C_R   0.182437 0.374210 0.122476 0.274973
C27   C     C_R   0.676742 0.826258 0.976971 -0.177530
C28   C     C_R   0.323258 0.326258 0.023029 -0.177529
C29   C     C_R   0.630990 0.907288 0.782510 -0.008822
C30   C     C_R   0.369010 0.407288 0.217490 -0.008821
C31   C     C_R   0.865882 0.858027 0.086220 -0.176325
C32   C     C_R   0.134117 0.358027 0.913780 -0.176325
H3    H     H_    0.674794 0.773963 0.061119 0.109825
H4    H     H_    0.325206 0.273964 0.938881 0.109825
C33   C     C_R   0.091442 0.863140 0.312934 -0.097718
C34   C     C_R   0.908558 0.363140 0.687066 -0.097719
C35   C     C_R   0.408226 0.852626 0.686090 -0.122369
C36   C     C_R   0.591774 0.352625 0.313910 -0.122369
C37   C     C_R   0.106325 0.808705 0.518266 0.514597
C38   C     C_R   0.893675 0.308703 0.481734 0.514597
C39   C     C_R   0.074307 0.800867 0.407777 -0.115057
C40   C     C_R   0.925693 0.300865 0.592223 -0.115056
C41   C     C_R   0.141684 0.925376 0.327862 -0.127883
C42   C     C_R   0.858316 0.425378 0.672137 -0.127884
C43   C     C_R   0.178447 0.893533 0.432107 0.056140
C44   C     C_R   0.821553 0.393533 0.567893 0.056139
C45   C     C_R   0.159296 0.856657 0.532849 0.012597
C46   C     C_R   0.840704 0.356656 0.467151 0.012597
C47   C     C_R   0.233030 0.900075 0.439438 0.033148
C48   C     C_R   0.766970 0.400076 0.560562 0.033147
C49   C     C_R   0.266835 0.905806 0.551855 0.076653
C50   C     C_R   0.733165 0.405806 0.448145 0.076653
C51   C     C_R   0.245450 0.903228 0.649469 -0.129802
C52   C     C_R   0.754550 0.403229 0.350530 -0.129803
C53   C     C_R   0.193729 0.872713 0.642009 0.423805
C54   C     C_R   0.806271 0.372713 0.357990 0.423806
C55   C     C_R   0.255339 0.891176 0.340213 -0.043549
C56   C     C_R   0.744661 0.391177 0.659787 -0.043548
C57   C     C_R   0.309031 0.892223 0.354610 0.347199
C58   C     C_R   0.690969 0.392224 0.645389 0.347199
C59   C     C_R   0.341405 0.880917 0.465515 -0.051145
C60   C     C_R   0.658595 0.380917 0.534485 -0.051145
C61   C     C_R   0.321220 0.899620 0.564906 0.094314
C62   C     C_R   0.678780 0.399620 0.435093 0.094314
C63   C     C_R   0.393669 0.836757 0.478719 -0.144966
C64   C     C_R   0.606331 0.336757 0.521281 -0.144966
C65   C     C_R   0.425571 0.807934 0.587247 0.400349
C66   C     C_R   0.574429 0.307935 0.412753 0.400349
C67   C     C_R   0.356673 0.901259 0.674622 -0.215292
C68   C     C_R   0.643327 0.401258 0.325377 -0.215291
H5    H     H_    0.345587 0.933459 0.753830 0.112127
H6    H     H_    0.654413 0.433456 0.246170 0.112126
H7    H     H_    0.034900 0.756010 0.396582 0.203881
H8    H     H_    0.965099 0.256008 0.603419 0.203881
H9    H     H_    0.150998 0.999102 0.256465 0.165251
H10   H     H_    0.849002 0.499105 0.743534 0.165253
H11   H     H_    0.268558 0.915259 0.735872 0.136279
H12   H     H_    0.731442 0.415260 0.264128 0.136279
H13   H     H_    0.409859 0.811921 0.405048 0.219413
H14   H     H_    0.590141 0.311922 0.594952 0.219414
O11   O     O_R   0.955980 0.206520 0.854760 -0.521841
O12   O     O_R   0.044020 0.706520 0.145240 -0.521841
O13   O     O_R   0.063490 0.536770 0.945200 -0.525768
O14   O     O_R   0.936510 0.036770 0.054800 -0.525768
C69   C     C_R   0.083254 0.368108 0.939933 0.854641
C70   C     C_R   0.916746 0.868108 0.060067 0.854641
O15   O     O_R   0.957530 0.536190 0.842880 -0.518935
O16   O     O_R   0.042470 0.036190 0.157120 -0.518935
O17   O     O_R   0.937350 0.707210 0.042130 -0.526523
O18   O     O_R   0.062650 0.207210 0.957870 -0.526524
C71   C     C_R   0.943224 0.368377 0.802086 0.746063
C72   C     C_R   0.056776 0.868376 0.197914 0.746062
O19   O     O_3   0.993540 0.373870 0.065440 -0.361100
O20   O     O_3   0.006460 0.873870 0.934560 -0.361100
V3    V     V_3+5 0.001200 0.648440 0.987860 1.722108
V4    V     V_3+5 0.998800 0.148440 0.012140 1.722107
C73   C     C_2   0.584609 0.960943 0.694525 0.476801
H15   H     H_    0.583940 0.943882 0.603486 0.101793
O21   O     O_2   0.547852 0.033642 0.721427 -0.491718
C74   C     C_2   0.415391 0.460943 0.305475 0.476802
H16   H     H_    0.416060 0.443883 0.396514 0.101793
O22   O     O_2   0.452148 0.533643 0.278572 -0.491718
Cl1   Cl    Cl    0.485869 0.705257 0.595011 -0.591590
Cl2   Cl    Cl    0.514131 0.205259 0.404990 -0.591591
Cl3   Cl    Cl    0.336259 0.892959 0.231396 -0.639449
Cl4   Cl    Cl    0.663741 0.392960 0.768604 -0.639449
Cl5   Cl    Cl    0.075946 0.748773 0.629753 -0.464502
Cl6   Cl    Cl    0.924053 0.248768 0.370248 -0.464502
C75   C     C_2   0.224686 0.848307 0.222032 0.444618
H17   H     H_    0.195758 0.739498 0.209711 0.067758
O23   O     O_2   0.229687 0.938925 0.138102 -0.484244
C76   C     C_2   0.775314 0.348308 0.777968 0.444617
H18   H     H_    0.804243 0.239500 0.790289 0.067759
O24   O     O_2   0.770313 0.438926 0.861897 -0.484244
Cl7   Cl    Cl    0.770324 0.888824 0.645872 -0.577833
Cl8   Cl    Cl    0.229676 0.388822 0.354128 -0.577832
Cl9   Cl    Cl    0.921639 0.780653 0.306966 -0.515365
Cl10  Cl    Cl    0.078361 0.280656 0.693034 -0.515365
C77   C     C_2   0.730157 0.988346 0.194413 0.435197
H19   H     H_    0.708058 0.097558 0.141304 0.050430
O25   O     O_2   0.717682 0.939589 0.282431 -0.487809
C78   C     C_2   0.269843 0.488346 0.805587 0.435195
H20   H     H_    0.291942 0.597558 0.858696 0.050429
O26   O     O_2   0.282318 0.439589 0.717569 -0.487808
Cl11  Cl    Cl    0.821764 0.864790 0.388516 -0.474163
Cl12  Cl    Cl    0.178236 0.364792 0.611483 -0.474163
Cl13  Cl    Cl    0.872576 0.877891 0.818745 -0.606392
Cl14  Cl    Cl    0.127423 0.377890 0.181255 -0.606391
Cl15  Cl    Cl    0.176469 0.867089 0.776615 -0.601840
Cl16  Cl    Cl    0.823531 0.367088 0.223385 -0.601840

loop_
_geom_bond_atom_site_label_1
_geom_bond_atom_site_label_2
_ccdc_geom_bond_type
C50   C52   A    
C32   C69   S    
C47   C49   A    
C76   H18   S    
C57   Cl3   S    
C26   Cl14  S    
C13   C15   A    
O19   V3    S    
C73   H15   S    
O1    C3    A    
O2    C4    A    
C2    O7    A    
C74   H16   S    
C75   H17   S    
O5    C3    A    
C52   H12   S    
C59   C63   A    
C41   H9    S    
C9    C31   A    
C24   Cl8   S    
C55   C75   S    
C11   Cl11  S    
C60   C62   A    
C63   H13   S    
C12   Cl12  S    
C75   O23   D    
C61   C67   A    
O15   V3    S    
C65   Cl1   S    
C33   C41   A    
O20   V3    S    
C46   C54   A    
C44   C46   A    
C36   C68   A    
C54   Cl16  S    
O11   C71   A    
C19   C21   A    
C7    C29   A    
C37   C45   A    
C8    C30   A    
C25   Cl13  S    
C15   C19   A    
O20   V4    S    
C49   C51   A    
C20   C28   A    
C34   C71   S    
C1    C36   S    
C2    C35   S    
C35   C65   A    
C20   C22   A    
O5    V1    S    
C69   O18   A    
C38   Cl6   S    
C30   C74   S    
O6    V2    S    
C24   C26   A    
C57   C59   A    
C29   C73   S    
O14   V4    S    
C12   C14   A    
O13   C69   A    
C37   C39   A    
O15   C71   A    
C50   C62   A    
C38   C40   A    
C43   C45   A    
C49   C61   A    
C16   C20   A    
C34   C42   A    
C56   C58   A    
C63   C65   A    
C38   C46   A    
C33   C39   A    
C4    C7    S    
C31   C70   S    
C70   O17   A    
C34   C40   A    
C56   C76   S    
C51   C53   A    
C48   C50   A    
O4    V2    S    
C5    C29   A    
C6    C30   A    
O13   V3    S    
C10   Cl10  S    
O6    C4    A    
C51   H11   S    
C27   H3    S    
C9    Cl9   S    
C73   O21   D    
O1    V2    S    
C28   H4    S    
C36   C66   A    
O2    V1    S    
C59   C61   A    
C58   C60   A    
C42   H10   S    
C7    C27   A    
O4    C2    A    
C67   H5    S    
C47   C55   A    
O14   C70   A    
C77   H19   S    
O19   V4    S    
O16   V4    S    
C11   C13   A    
C66   Cl2   S    
C64   H14   S    
C35   C67   A    
C18   C26   A    
O3    V1    S    
O18   V4    S    
C78   O26   D    
C55   C57   A    
C45   C53   A    
O12   C72   A    
C76   O24   D    
C21   C23   A    
C14   C78   S    
C18   C32   A    
C60   C64   A    
C10   C12   A    
C78   H20   S    
O3    C1    A    
O11   V4    S    
C74   O22   D    
O9    V2    S    
C33   C72   S    
C53   Cl15  S    
C58   Cl4   S    
O12   V3    S    
C3    C8    S    
C43   C47   A    
O17   V3    S    
C44   C48   A    
C19   C27   A    
C22   C24   A    
O7    V1    S    
C10   C32   A    
C1    O8    A    
C15   C17   A    
O8    V2    S    
C16   C18   A    
C8    C28   A    
C6    C22   A    
C14   C16   A    
C5    H1    S    
C64   C66   A    
C17   C25   A    
O16   C72   A    
C6    H2    S    
C48   C56   A    
C39   H7    S    
C41   C43   A    
C62   C68   A    
C23   C25   A    
C9    C11   A    
C40   H8    S    
C52   C54   A    
C17   C31   A    
C13   C77   S    
C77   O25   D    
O10   V1    S    
C68   H6    S    
C37   Cl5   S    
C5    C21   A    
C42   C44   A    
C23   Cl7   S    
