data_mof_unit_58527.cif
_audit_creation_date              2012-12-11T21:12:14-0500
_audit_creation_method            fapswitch 2.2
_symmetry_space_group_name_H-M    P1
_symmetry_Int_Tables_number       1
_space_group_crystal_system       triclinic
_cell_length_a                    8.203049
_cell_length_b                    18.81349
_cell_length_c                    26.974041
_cell_angle_alpha                 99.213938
_cell_angle_beta                  92.500994
_cell_angle_gamma                 88.712743
_cell_volume                      4104.71768989

loop_
_atom_site_label
_atom_site_type_symbol
_atom_type_description
_atom_site_fract_x
_atom_site_fract_y
_atom_site_fract_z
_atom_type_partial_charge
Ba1   Ba    Ba6+2 0.160810 0.465630 0.521640 1.641099
Ba2   Ba    Ba6+2 0.649380 0.534380 0.478400 1.642024
C1    C     C_3   0.395827 0.292440 0.701996 -0.319669
C2    C     C_3   0.414870 0.312476 0.650170 0.340375
C3    C     C_3   0.468100 0.314091 0.398182 0.307092
C4    C     C_3   0.466841 0.232727 0.382827 -0.387666
C5    C     C_3   0.853850 0.723523 0.378492 0.328411
C6    C     C_3   0.864231 0.798344 0.364415 -0.375804
C7    C     C_3   0.322457 0.702178 0.352547 0.289388
C8    C     C_3   0.320226 0.725607 0.300785 -0.110647
C9    C     C_R   0.991673 0.047483 0.474489 0.012587
C10   C     C_R   0.066258 0.096212 0.448133 -0.095672
C11   C     C_R   0.205099 0.951723 0.454248 -0.111139
C12   C     C_3   0.946512 0.270997 0.625221 0.367538
C13   C     C_R   0.055280 0.976131 0.475514 0.012393
C14   C     C_R   0.262470 0.881436 0.454153 -0.092176
C15   C     C_R   0.173557 0.831825 0.475210 -0.028880
C16   C     C_R   0.027322 0.855372 0.499179 0.003305
C17   C     C_R   0.968810 0.927728 0.499735 0.025532
C18   C     C_R   0.225961 0.759235 0.473074 -0.006685
C19   C     C_R   0.128630 0.710547 0.491914 -0.300512
C20   C     C_R   0.988924 0.733113 0.517995 0.035399
C21   C     C_R   0.940275 0.806776 0.523129 -0.046330
C22   C     C_R   0.845002 0.070321 0.498917 0.025521
C23   C     C_3   0.977995 0.197222 0.640262 -0.366716
C24   C     C_R   0.783709 0.142642 0.499930 -0.033808
C25   C     C_R   0.872253 0.192280 0.477138 -0.030358
C26   C     C_R   0.007147 0.166252 0.449103 -0.015059
C27   C     C_R   0.808837 0.833715 0.552115 -0.034308
C28   C     C_R   0.751692 0.903848 0.552810 -0.087281
C29   C     C_R   0.823799 0.950942 0.524493 0.016936
C30   C     C_R   0.758165 0.021007 0.521861 0.000647
C31   C     C_R   0.602844 0.041769 0.539241 -0.127604
C32   C     C_R   0.632585 0.164578 0.522566 -0.021662
C33   C     C_R   0.539321 0.111100 0.539565 0.126184
C34   C     C_3   0.841930 0.621053 0.631676 0.298226
C35   C     C_R   0.581966 0.238382 0.526121 0.013837
C36   C     C_R   0.680721 0.287479 0.507818 -0.323373
C37   C     C_R   0.822245 0.265971 0.482344 0.044837
C38   C     C_R   0.288075 0.448117 0.174090 0.586356
C39   C     C_R   0.183266 0.568502 0.176059 0.591845
C40   C     C_2   0.028400 0.526339 0.269159 -0.074166
C41   C     C_3   0.991186 0.519670 0.322931 -0.048874
C42   C     C_1   0.278552 0.491782 0.336355 0.017243
C43   C     C_2   0.314137 0.494953 0.289421 -0.097636
C44   C     C_2   0.181866 0.512214 0.252668 0.204654
C45   C     C_3   0.842477 0.638345 0.688709 -0.362443
C46   C     C_R   0.299374 0.505095 0.099124 -0.080623
C47   C     C_R   0.330821 0.445248 0.123715 -0.032602
C48   C     C_R   0.405431 0.383714 0.097648 -0.061590
C49   C     C_R   0.224526 0.567057 0.125550 -0.028696
C50   C     C_2   0.146097 0.523683 0.355687 -0.286695
C51   C     C_2   0.646841 0.471658 0.637249 -0.293928
C52   C     C_R   0.451785 0.435950 0.970233 0.020896
C53   C     C_R   0.361868 0.562591 0.973538 0.020579
C54   C     C_R   0.428319 0.498052 0.946657 0.049153
C55   C     C_R   0.511352 0.372159 0.941139 -0.102725
C56   C     C_3   0.976961 0.368820 0.365310 0.295014
C57   C     C_R   0.551396 0.370078 0.891481 -0.061240
C58   C     C_R   0.533512 0.431312 0.868241 -0.023329
C59   C     C_R   0.471698 0.495437 0.895578 -0.080669
C60   C     C_R   0.453473 0.556812 0.871854 -0.034631
C61   C     C_R   0.498078 0.553296 0.821334 0.596235
C62   C     C_R   0.574800 0.428924 0.817866 0.573664
C63   C     C_2   0.735095 0.451433 0.724452 -0.082906
C64   C     C_3   0.748115 0.426904 0.668905 -0.046740
C65   C     C_1   0.519555 0.509337 0.656462 0.034232
C66   C     C_2   0.480070 0.513012 0.704257 -0.107016
C67   C     C_3   0.009732 0.338774 0.310703 -0.364065
C68   C     C_2   0.596452 0.485139 0.741748 0.191778
C69   C     C_R   0.414128 0.439169 0.021657 0.021180
C70   C     C_R   0.342481 0.502843 0.048068 0.049806
C71   C     C_R   0.313571 0.564221 0.024024 0.019930
C72   C     C_R   0.446710 0.380707 0.047962 -0.100873
C73   C     C_R   0.192788 0.626405 0.101033 -0.054437
C74   C     C_R   0.347037 0.623520 0.948758 -0.099117
C75   C     C_R   0.391914 0.620579 0.899211 -0.061231
C76   C     C_R   0.236066 0.625153 0.051538 -0.100030
C77   C     C_3   0.328657 0.686031 0.593266 0.365192
C78   C     C_3   0.314248 0.766967 0.611820 -0.119706
H1    H     H_    0.344029 0.363026 0.648039 0.089503
H2    H     H_    0.749502 0.680828 0.700474 0.131983
H3    H     H_    0.814178 0.589577 0.704664 0.072900
H4    H     H_    0.964764 0.657439 0.703747 0.129880
H5    H     H_    0.091288 0.390169 0.384551 0.022767
H6    H     H_    0.882971 0.412292 0.366858 0.039954
H7    H     H_    0.095626 0.292027 0.308979 0.148905
H8    H     H_    0.893723 0.320953 0.290175 0.118164
H9    H     H_    0.205186 0.665019 0.582888 -0.035669
H10   H     H_    0.405562 0.676526 0.559901 0.059990
H11   H     H_    0.275993 0.267317 0.704383 0.146514
H12   H     H_    0.255225 0.793710 0.581788 0.042235
H13   H     H_    0.401850 0.341749 0.730513 0.122385
H14   H     H_    0.596236 0.331159 0.406481 0.024317
H15   H     H_    0.396999 0.327832 0.432615 0.059582
H16   H     H_    0.539744 0.216801 0.348973 0.133397
H17   H     H_    0.520401 0.206252 0.413825 0.056147
H18   H     H_    0.494143 0.253970 0.710245 0.117281
H19   H     H_    0.909859 0.155886 0.613791 0.069496
H20   H     H_    0.737072 0.719701 0.396676 0.125701
H21   H     H_    0.955448 0.716270 0.405616 -0.015181
H22   H     H_    0.853892 0.839606 0.398544 0.086457
H23   H     H_    0.982830 0.804564 0.347369 0.112732
H24   H     H_    0.763317 0.807112 0.337164 0.134342
H25   H     H_    0.199428 0.713699 0.367548 -0.046856
H26   H     H_    0.348320 0.643424 0.348613 0.052845
H27   H     H_    0.206444 0.706423 0.279579 0.149282
H28   H     H_    0.990665 0.269780 0.586728 0.077971
H29   H     H_    0.318878 0.785374 0.305107 0.114484
H30   H     H_    0.166383 0.654557 0.488276 0.071608
H31   H     H_    0.377521 0.866609 0.437001 0.109637
H32   H     H_    0.070586 0.199614 0.427472 0.096241
H33   H     H_    0.748012 0.801085 0.574807 0.126306
H34   H     H_    0.642300 0.343374 0.511235 0.074210
H35   H     H_    0.283255 0.986028 0.437809 0.071693
H36   H     H_    0.170814 0.081776 0.425653 0.059698
H37   H     H_    0.652170 0.920205 0.577113 0.064820
H38   H     H_    0.812354 0.280884 0.624818 -0.071953
H39   H     H_    0.522574 0.003777 0.551246 0.070889
H40   H     H_    0.437842 0.484219 0.277240 0.110390
H41   H     H_    0.433219 0.337189 0.115745 0.122717
H42   H     H_    0.825656 0.432361 0.750000 0.118959
H43   H     H_    0.596606 0.319596 0.871186 0.121666
H44   H     H_    0.526271 0.321905 0.955162 0.068703
H45   H     H_    0.506897 0.331665 0.031645 0.069237
H46   H     H_    0.928910 0.535770 0.243004 0.100349
H47   H     H_    0.134039 0.674633 0.120181 0.123518
H48   H     H_    0.303183 0.675158 0.966795 0.069549
H49   H     H_    0.109940 0.183174 0.639061 0.148307
H50   H     H_    0.377687 0.668961 0.882288 0.121146
H51   H     H_    0.204518 0.672921 0.035760 0.069582
H52   H     H_    0.147229 0.549794 0.394659 0.071553
H53   H     H_    0.659941 0.460093 0.596892 0.086412
H54   H     H_    0.936391 0.197009 0.678866 0.118166
H55   H     H_    0.718138 0.605246 0.617142 0.014838
H56   H     H_    0.929084 0.575837 0.621017 0.078692
N1    N     N_R   0.217135 0.509678 0.200008 -0.427838
N2    N     N_R   0.556744 0.489500 0.794517 -0.422283
O1    O     O_2   0.106080 0.324280 0.466820 -0.471366
O2    O     O_3   0.397453 0.652590 0.632022 -0.634095
O3    O     O_3   0.029793 0.323831 0.659410 -0.593849
O4    O     O_2   0.704230 0.675760 0.533200 -0.459038
O5    O     O_3   0.951180 0.586390 0.529420 -0.490437
O6    O     O_3   0.434080 0.629720 0.443130 -0.469571
O7    O     O_3   0.886895 0.682546 0.612940 -0.641943
O8    O     O_3   0.351080 0.462080 0.440130 -0.475365
O9    O     O_3   0.839200 0.593040 0.416790 -0.484191
O10   O     O_2   0.660173 0.566330 0.331890 -0.496962
O11   O     O_3   0.864245 0.671473 0.335182 -0.608147
O12   O     O_3   0.859130 0.413620 0.470620 -0.483144
O13   O     O_3   0.459240 0.537930 0.559910 -0.488616
O14   O     O_2   0.583120 0.462390 0.379940 -0.466652
O15   O     O_3   0.398751 0.346590 0.358681 -0.633594
O16   O     O_2   0.568382 0.756845 0.475898 -0.492996
O17   O     O_3   0.441610 0.740616 0.384282 -0.618157
O18   O     O_2   0.312490 0.395367 0.194784 -0.597259
O19   O     O_2   0.625765 0.372255 0.794635 -0.621354
O20   O     O_2   0.118540 0.622393 0.198818 -0.600272
O21   O     O_2   0.486495 0.607326 0.801516 -0.599485
O22   O     O_3   0.376230 0.370290 0.556910 -0.494281
O23   O     O_2   0.240996 0.245389 0.521880 -0.465249
O24   O     O_3   0.919310 0.312861 0.387394 -0.644446
O25   O     O_3   0.355670 0.256603 0.613678 -0.588280
O26   O     O_2   0.227190 0.537650 0.620070 -0.466244
O27   O     O_3   0.971110 0.406970 0.583250 -0.482822
O28   O     O_2   0.084653 0.462811 0.675314 -0.499260
P1    P     P_3+3 0.929380 0.335110 0.452880 0.977362
P2    P     P_3+3 0.398530 0.559060 0.613740 0.992316
P3    P     P_3+3 0.959862 0.408257 0.647649 0.943078
P4    P     P_3+3 0.880940 0.664900 0.547160 0.979495
P5    P     P_3+3 0.836386 0.585981 0.351320 0.964646
P6    P     P_3+3 0.389995 0.277233 0.554033 0.973286
P7    P     P_3+3 0.399367 0.440190 0.376994 0.960295
P8    P     P_3+3 0.418253 0.722761 0.445230 0.934922
H57   H     H_    0.064827 0.379732 0.291738 0.082063
H58   H     H_    0.236166 0.777035 0.645030 0.097929
N3    N     N_3   0.475168 0.797727 0.624873 -0.491879
H59   H     H_    0.519199 0.781102 0.658219 0.209292
H60   H     H_    0.460349 0.853681 0.632895 0.164540
H61   H     H_    0.545881 0.320898 0.645256 -0.054847
H62   H     H_    0.339519 0.214232 0.374382 0.115664
N4    N     N_3   0.460685 0.696706 0.272117 -0.468457
H63   H     H_    0.457165 0.640437 0.266544 0.198672
H64   H     H_    0.567657 0.712371 0.293100 0.233688
N5    N     N_3   0.376361 0.124219 0.555917 -0.447750
H65   H     H_    0.298791 0.088948 0.532577 0.170338
H66   H     H_    0.371554 0.112323 0.592398 0.177438
H67   H     H_    0.362300 0.535131 0.716270 0.128887

loop_
_geom_bond_atom_site_label_1
_geom_bond_atom_site_label_2
_ccdc_geom_bond_type
C65   P2    S    
Ba2   O12   S    
C53   C54   A    
C34   H55   S    
O2    P2    S    
O15   P7    S    
C32   C35   A    
Ba2   O6    S    
C64   P3    S    
C61   O21   D    
C17   C29   A    
C52   C55   A    
C15   C18   A    
C35   P6    S    
C3    H14   S    
Ba1   O8    S    
C5    C6    S    
C62   N2    Am   
C43   C44   S    
C26   H32   S    
C13   C17   A    
C24   C25   A    
C27   C28   A    
C10   C26   A    
C21   C27   A    
C35   C36   A    
C2    H61   S    
C16   C17   A    
C48   C72   A    
C36   C37   A    
C36   H34   S    
C41   C50   S    
C55   C57   A    
C72   H45   S    
Ba1   P1    S    
C7    H25   S    
C38   C47   A    
O8    P7    S    
C56   H6    S    
C9    C22   A    
O10   P5    D    
C8    H29   S    
C1    H11   S    
C32   C33   A    
C40   C44   D    
C45   H2    S    
C47   C48   A    
N4    H63   S    
C77   H10   S    
C60   C75   A    
C5    O11   S    
O23   P6    D    
C9    C13   A    
C23   H19   S    
C46   C49   A    
C18   P8    S    
C52   C69   A    
Ba1   O26   S    
C25   C37   A    
C14   C15   A    
N3    H60   S    
C62   O19   D    
C71   C76   A    
C45   H3    S    
C7    C8    S    
C39   N1    Am   
C67   H7    S    
C77   C78   S    
O4    P4    D    
C42   C50   D    
C12   H28   S    
C77   O2    S    
C12   O3    S    
C23   H49   S    
C57   C58   A    
C19   C20   A    
C57   H43   S    
Ba2   O5    S    
C8    H27   S    
C48   H41   S    
C46   C70   A    
C34   H56   S    
C73   C76   A    
C3    H15   S    
O9    P5    S    
C19   H30   S    
C20   C21   A    
Ba2   O14   S    
O13   P2    S    
C52   C54   A    
C5    H20   S    
C2    H1    S    
C4    H62   S    
C16   C21   A    
C50   H52   S    
C4    H17   S    
O26   P2    D    
C51   H53   S    
C74   C75   A    
C78   H58   S    
C41   P5    S    
Ba1   P2    S    
C12   H38   S    
C7    H26   S    
C45   H4    S    
C65   C66   D    
C58   C59   A    
C78   H12   S    
C76   H51   S    
C22   C30   A    
C60   C61   A    
Ba1   O5    S    
C29   C30   A    
Ba1   O27   S    
C28   C29   A    
C33   N5    S    
C38   N1    Am   
O27   P3    S    
O3    P3    S    
C15   C16   A    
O22   P6    S    
C2    O25   S    
Ba1   O12   S    
C1    H13   S    
C20   P4    S    
C63   H42   S    
C42   P7    S    
O1    P1    D    
C23   H54   S    
C6    H24   S    
Ba2   O4    S    
C7    O17   S    
C11   H35   S    
C67   H8    S    
Ba2   P4    S    
C44   N1    S    
O14   P7    D    
C43   H40   S    
C46   C47   A    
C31   H39   S    
C4    H16   S    
C11   C13   A    
C8    N4    S    
C61   N2    Am   
C34   C45   S    
C40   C41   S    
C53   C74   A    
C1    C2    S    
C56   O24   S    
C56   H5    S    
C42   C43   D    
O17   P8    S    
Ba2   O13   S    
C27   H33   S    
O7    P4    S    
C39   O20   D    
C24   C32   A    
O11   P5    S    
N3    H59   S    
Ba1   O22   S    
O25   P6    S    
C22   C24   A    
O5    P4    S    
C49   C73   A    
C70   C71   A    
Ba1   O1    S    
C69   C72   A    
C9    C10   A    
C56   C67   S    
C68   N2    S    
C28   H37   S    
Ba2   O8    S    
C58   C62   A    
C78   N3    S    
Ba2   O9    S    
C69   C70   A    
C51   C64   S    
C30   C31   A    
C55   H44   S    
C1    H18   S    
N5    H65   S    
C3    C4    S    
C3    O15   S    
O12   P1    S    
Ba1   Ba2   S    
C31   C33   A    
Ba1   O13   S    
C73   H47   S    
C75   H50   S    
C12   C23   S    
C37   P1    S    
C59   C60   A    
C51   C65   D    
C6    H23   S    
N4    H64   S    
C77   H9    S    
N5    H66   S    
C40   H46   S    
O24   P1    S    
C53   C71   A    
C34   O7    S    
O16   P8    D    
C18   C19   A    
C66   H67   S    
O28   P3    D    
C66   C68   S    
C63   C64   S    
C5    H21   S    
C11   C14   A    
O6    P8    S    
C25   C26   A    
C54   C59   A    
C38   O18   D    
C67   H57   S    
C6    H22   S    
C39   C49   A    
C63   C68   D    
C14   H31   S    
C10   H36   S    
C74   H48   S    
