data_mof_unit_60056.cif
_audit_creation_date              2012-12-10T19:38:18-0500
_audit_creation_method            fapswitch 2.2
_symmetry_space_group_name_H-M    P1
_symmetry_Int_Tables_number       1
_space_group_crystal_system       triclinic
_cell_length_a                    15.83061
_cell_length_b                    15.89675
_cell_length_c                    17.06623
_cell_angle_alpha                 90.32532
_cell_angle_beta                  96.304983
_cell_angle_gamma                 92.165521
_cell_volume                      4265.57137819

loop_
_atom_site_label
_atom_site_type_symbol
_atom_type_description
_atom_site_fract_x
_atom_site_fract_y
_atom_site_fract_z
_atom_type_partial_charge
C1    C     C_R   0.510338 0.501202 0.651532 0.794748
C2    C     C_R   0.442556 0.486842 0.775402 -0.219962
C3    C     C_R   0.446430 0.491476 0.857047 -0.142595
C4    C     C_R   0.499690 0.659828 0.499823 0.832286
C5    C     C_R   0.523764 0.514107 0.902671 0.378409
C6    C     C_R   0.596168 0.532873 0.865004 -0.163636
C7    C     C_R   0.592494 0.527446 0.783126 -0.196485
C8    C     C_R   0.518458 0.556966 0.140370 -0.157735
C9    C     C_R   0.521485 0.561600 0.222164 0.090318
C10   C     C_R   0.478202 0.487145 0.098671 0.305947
C11   C     C_R   0.484182 0.495882 0.263145 -0.126267
C12   C     C_3   0.587067 0.052847 0.543733 0.137851
C13   C     C_R   0.443084 0.426443 0.221357 0.088516
C14   C     C_R   0.439602 0.423258 0.139499 -0.177255
C15   C     C_R   0.247970 0.540014 0.538952 0.057052
C16   C     C_R   0.489666 0.498848 0.348842 0.864480
C17   C     C_R   0.158731 0.537658 0.535985 -0.275508
C18   C     C_R   0.109363 0.482978 0.482152 0.381884
C19   C     C_R   0.152313 0.432337 0.433154 -0.244163
C20   C     C_R   0.241473 0.436512 0.438198 0.084667
C21   C     C_R   0.839099 0.453450 0.466584 0.295114
C22   C     C_R   0.750097 0.453999 0.465403 0.031806
C23   C     C_3   0.502607 0.083019 0.498595 -0.007280
C24   C     C_R   0.890923 0.513554 0.514349 0.296911
C25   C     C_R   0.760153 0.567635 0.556071 0.065102
C26   C     C_R   0.849241 0.570153 0.559143 -0.325394
C27   C     C_R   0.500321 0.340159 0.499805 0.832332
C28   C     C_3   0.588141 0.953759 0.543159 0.385196
C29   C     C_3   0.426548 0.948973 0.540224 -0.451950
C30   C     C_3   0.427275 0.046487 0.541160 0.197519
C31   C     C_1   0.501128 0.250692 0.499150 -0.078850
C32   C     C_3   0.502119 0.917038 0.498858 0.001486
C33   C     C_3   0.494213 0.048162 0.412852 -0.337787
C34   C     C_3   0.493290 0.950533 0.412513 0.016350
C35   C     C_1   0.501791 0.175281 0.498680 0.093559
C36   C     C_1   0.499991 0.824725 0.498812 0.077686
C37   C     C_1   0.499199 0.749273 0.499200 -0.087117
C38   C     C_R   0.515539 0.504517 0.737793 -0.032790
Cl1   Cl    Cl    0.676994 0.913733 0.498510 -0.462836
Cl2   Cl    Cl    0.679108 0.104048 0.508422 -0.458301
Cl3   Cl    Cl    0.878852 0.374675 0.408973 -0.513774
Cl4   Cl    Cl    0.326193 0.082845 0.499119 -0.530853
Cu1   Cu    Cu3+1 0.584780 0.504030 0.503820 0.998822
Cu2   Cu    Cu3+1 0.415220 0.495970 0.496180 0.986399
H1    H     H_    0.589203 0.075375 0.605728 0.121507
H2    H     H_    0.116711 0.389554 0.391063 0.193714
H3    H     H_    0.273579 0.396973 0.400137 0.170474
H4    H     H_    0.729442 0.611673 0.591177 0.156620
H5    H     H_    0.129155 0.578364 0.575149 0.169318
H6    H     H_    0.886015 0.616492 0.596712 0.184532
H7    H     H_    0.285429 0.582255 0.580163 0.138262
H8    H     H_    0.365453 0.922499 0.510074 0.261627
H9    H     H_    0.429448 0.925653 0.601661 0.178933
H10   H     H_    0.435555 0.068714 0.603613 0.128435
H11   H     H_    0.547532 0.929828 0.381975 0.203492
H12   H     H_    0.435489 0.070912 0.379263 0.247130
H13   H     H_    0.548130 0.072800 0.381891 0.215812
H14   H     H_    0.546593 0.608355 0.109502 0.186537
H15   H     H_    0.655738 0.551147 0.899342 0.160454
H16   H     H_    0.649486 0.542201 0.755338 0.167704
H17   H     H_    0.388780 0.478185 0.884236 0.165474
H18   H     H_    0.408396 0.369655 0.107425 0.181632
H19   H     H_    0.382315 0.469429 0.741776 0.171509
H20   H     H_    0.710704 0.408615 0.429022 0.180702
I1    I     I_    0.579856 0.671416 0.279572 -0.247764
I2    I     I_    0.390549 0.321060 0.277793 -0.318659
I3    I     I_    0.608037 0.910137 0.663722 -0.286813
I4    I     I_    0.382820 0.899070 0.339505 -0.236654
N1    N     N_2   0.530485 0.520481 0.985998 -0.238927
N2    N     N_2   0.473218 0.479857 0.015604 -0.235891
N3    N     N_R   0.287860 0.489910 0.490440 -0.178173
N4    N     N_2   0.018019 0.476650 0.474429 -0.133210
N5    N     N_2   0.982645 0.520030 0.521801 -0.216464
N6    N     N_R   0.712150 0.510100 0.509550 -0.204090
O1    O     O_R   0.579470 0.503770 0.617500 -0.586481
O2    O     O_R   0.436280 0.496960 0.611050 -0.593407
O3    O     O_R   0.571630 0.623970 0.503220 -0.557176
O4    O     O_R   0.428430 0.617160 0.496770 -0.582370
O5    O     O_R   0.563720 0.503040 0.388950 -0.564002
O6    O     O_R   0.420530 0.496230 0.382500 -0.568754
O7    O     O_R   0.571570 0.382840 0.503230 -0.575098
O8    O     O_R   0.428370 0.376030 0.496780 -0.563839

loop_
_geom_bond_atom_site_label_1
_geom_bond_atom_site_label_2
_ccdc_geom_bond_type
C19   C20   A    
C19   H2    S    
C30   H10   S    
C12   C23   S    
C12   C28   S    
C32   C36   S    
C36   C37   T    
C24   C26   A    
C25   N6    A    
C29   C32   S    
Cu2   O8    S    
C26   H6    S    
C5    C6    A    
C24   N5    S    
Cu1   O5    S    
C14   H18   S    
Cu2   N3    S    
C18   C19   A    
Cu2   O2    S    
C5    N1    S    
C8    H14   S    
C8    C9    A    
C23   C33   S    
C20   N3    A    
C15   H7    S    
Cu1   N6    S    
C34   H11   S    
C21   C22   A    
Cu1   O1    S    
C17   C18   A    
C13   I2    S    
C3    H17   S    
C18   N4    S    
C27   C31   S    
C1    O1    A    
C23   C30   S    
Cu2   O6    S    
C28   I3    S    
C10   C14   A    
C34   I4    S    
N4    N5    D    
C27   O7    A    
C28   Cl1   S    
C25   C26   A    
C16   O6    A    
C32   C34   S    
C12   Cl2   S    
Cu1   Cu2   S    
C4    O4    A    
C29   C30   S    
C11   C16   S    
C2    C38   A    
C28   C32   S    
C33   C34   S    
C9    C11   A    
C25   H4    S    
C1    C38   S    
C21   Cl3   S    
C10   N2    S    
C23   C35   S    
Cu1   O7    S    
C31   C35   T    
C22   N6    A    
C17   H5    S    
C7    H16   S    
C2    H19   S    
C15   C17   A    
C33   H13   S    
C1    O2    A    
C6    H15   S    
C27   O8    A    
C12   H1    S    
C3    C5    A    
C6    C7    A    
Cu1   O3    S    
C15   N3    A    
C16   O5    A    
Cu2   O4    S    
C2    C3    A    
C4    O3    A    
C11   C13   A    
C29   H9    S    
C33   H12   S    
C7    C38   A    
N1    N2    D    
C9    I1    S    
C20   H3    S    
C22   H20   S    
C4    C37   S    
C8    C10   A    
C21   C24   A    
C30   Cl4   S    
C13   C14   A    
C29   H8    S    
