data_mof_unit_53519.cif
_audit_creation_date              2012-12-11T14:01:39-0500
_audit_creation_method            fapswitch 2.2
_symmetry_space_group_name_H-M    P1
_symmetry_Int_Tables_number       1
_space_group_crystal_system       triclinic
_cell_length_a                    19.033762
_cell_length_b                    11.029897
_cell_length_c                    18.734094
_cell_angle_alpha                 89.524803
_cell_angle_beta                  89.1277
_cell_angle_gamma                 90.183796
_cell_volume                      3932.4309124

loop_
_atom_site_label
_atom_site_type_symbol
_atom_type_description
_atom_site_fract_x
_atom_site_fract_y
_atom_site_fract_z
_atom_type_partial_charge
C1    C     C_R   0.271637 0.042440 0.852544 0.559422
C2    C     C_R   0.007705 0.666516 0.965140 -0.129990
C3    C     C_R   0.500788 0.166770 0.038943 -0.134030
C4    C     C_R   0.507734 0.166511 0.965131 -0.129981
C5    C     C_2   0.265353 0.652188 0.934999 0.324195
C6    C     C_2   0.727579 0.681291 0.063791 0.278966
C7    C     C_2   0.765358 0.152201 0.935001 0.324186
C8    C     C_2   0.227582 0.181275 0.063791 0.279055
C9    C     C_2   0.266411 0.625072 0.096385 0.266995
C10   C     C_2   0.735161 0.615177 0.904678 0.291489
C11   C     C_2   0.766413 0.125076 0.096388 0.267308
C12   C     C_R   0.730536 0.049317 0.150554 0.551125
C13   C     C_2   0.235157 0.115186 0.904675 0.291462
C14   C     C_2   0.310436 0.572392 0.048728 -0.164382
C15   C     C_2   0.701412 0.557681 0.959020 -0.108416
C16   C     C_2   0.810442 0.072406 0.048731 -0.164035
C17   C     C_2   0.201393 0.057696 0.959011 -0.108356
C18   C     C_2   0.320359 0.615983 0.974419 -0.078188
C19   C     C_2   0.682185 0.610318 0.028677 -0.028679
C20   C     C_2   0.820365 0.116008 0.974423 -0.077621
C21   C     C_2   0.182176 0.110330 0.028673 -0.028651
C22   C     C_2   0.514066 0.840826 0.584811 -0.114792
C23   C     C_R   0.771639 0.542436 0.852545 0.559440
C24   C     C_2   0.514607 0.827684 0.429109 -0.104768
C25   C     C_2   0.014066 0.340826 0.584811 -0.114796
C26   C     C_2   0.014607 0.327684 0.429109 -0.104769
C27   C     C_2   0.549496 0.751548 0.472548 -0.149367
C28   C     C_2   0.535407 0.744147 0.548639 -0.155584
C29   C     C_2   0.049496 0.251548 0.472548 -0.149364
C30   C     C_2   0.035407 0.244147 0.548639 -0.155587
C31   C     C_2   0.246922 0.562557 0.584724 0.265825
C32   C     C_2   0.752503 0.561284 0.415795 0.257869
C33   C     C_2   0.746922 0.062557 0.584724 0.265826
C34   C     C_R   0.230536 0.549317 0.150555 0.551193
C35   C     C_2   0.252503 0.061285 0.415795 0.257870
C36   C     C_2   0.238124 0.571464 0.426717 -0.090529
C37   C     C_2   0.762211 0.572759 0.573203 -0.090991
C38   C     C_2   0.738124 0.071464 0.426717 -0.090532
C39   C     C_2   0.262211 0.072759 0.573203 -0.090989
C40   C     C_R   0.468607 0.822207 0.854525 0.521293
C41   C     C_R   0.527833 0.822656 0.147892 0.539929
C42   C     C_R   0.968608 0.322207 0.854525 0.521285
C43   C     C_R   0.027832 0.322656 0.147893 0.539811
C44   C     C_2   0.183667 0.556060 0.472555 -0.154744
C45   C     C_R   0.490301 0.058172 0.076069 -0.102258
C46   C     C_2   0.816267 0.554391 0.527554 -0.153351
C47   C     C_2   0.683667 0.056060 0.472555 -0.154746
C48   C     C_2   0.316267 0.054390 0.527554 -0.153346
C49   C     C_2   0.188627 0.584422 0.547677 -0.156017
C50   C     C_2   0.811425 0.581487 0.452060 -0.155013
C51   C     C_2   0.688627 0.084421 0.547677 -0.156016
C52   C     C_2   0.311425 0.081488 0.452060 -0.155008
C53   C     C_R   0.273642 0.684628 0.859293 0.576465
C54   C     C_R   0.724395 0.692747 0.142021 0.587996
C55   C     C_R   0.773643 0.184633 0.859292 0.576452
C56   C     C_R   0.503778 0.057710 0.928157 -0.110401
C57   C     C_R   0.224396 0.192743 0.142020 0.588041
C58   C     C_R   0.273733 0.043894 0.646997 0.560152
C59   C     C_R   0.726162 0.042914 0.353116 0.543208
C60   C     C_R   0.773733 0.543894 0.646997 0.560159
C61   C     C_R   0.226162 0.542914 0.353116 0.543197
C62   C     C_R   0.472661 0.824929 0.649479 0.559110
C63   C     C_R   0.532075 0.822776 0.353983 0.546948
C64   C     C_R   0.972661 0.324929 0.649479 0.559101
C65   C     C_R   0.032075 0.322776 0.353983 0.546940
C66   C     C_R   0.260304 0.634500 0.647436 0.583297
C67   C     C_R   0.990281 0.558166 0.076076 -0.102433
C68   C     C_R   0.739548 0.633992 0.352720 0.581144
C69   C     C_R   0.760304 0.134500 0.647436 0.583294
C70   C     C_R   0.239548 0.133992 0.352720 0.581149
C71   C     C_R   0.496079 0.832920 0.077635 0.000589
C72   C     C_R   0.489779 0.832175 0.928796 0.024873
C73   C     C_R   0.996070 0.332918 0.077638 0.000632
C74   C     C_R   0.989780 0.332177 0.928797 0.024984
C75   C     C_R   0.492632 0.945528 0.040356 0.004820
C76   C     C_R   0.494406 0.945350 0.964738 0.017993
C77   C     C_R   0.992621 0.445526 0.040359 0.004701
C78   C     C_R   0.003762 0.557716 0.928164 -0.110380
C79   C     C_R   0.994397 0.445351 0.964741 0.018083
C80   C     C_R   0.490536 0.723763 0.967673 -0.120210
C81   C     C_R   0.490432 0.724127 0.040483 -0.151838
C82   C     C_R   0.990538 0.223764 0.967673 -0.120029
C83   C     C_R   0.990425 0.224127 0.040485 -0.151421
C84   C     C_3   0.285234 0.369508 0.572706 -0.097700
C85   C     C_3   0.711317 0.369615 0.430437 -0.100387
C86   C     C_3   0.785234 0.869508 0.572706 -0.097699
C87   C     C_3   0.211315 0.869616 0.430433 -0.100384
C88   C     C_3   0.166161 0.553259 0.968703 -0.052720
C89   C     C_R   0.000758 0.666768 0.038953 -0.134004
C90   C     C_3   0.841631 0.703145 0.026712 -0.089138
C91   C     C_3   0.666176 0.053240 0.968697 -0.052803
C92   C     C_3   0.341643 0.203006 0.026721 -0.089113
Cr1   Cr    Cr6+3 0.230530 0.836340 0.748870 1.045869
Cr2   Cr    Cr6+3 0.614360 0.677860 0.250770 1.059440
Cr3   Cr    Cr6+3 0.885640 0.177860 0.749230 1.063098
Cr4   Cr    Cr6+3 0.114360 0.177860 0.250770 1.059433
Cr5   Cr    Cr6+3 0.769470 0.836340 0.251130 1.024198
Cr6   Cr    Cr6+3 0.730530 0.336340 0.748870 1.045892
Cr7   Cr    Cr6+3 0.269470 0.336340 0.251130 1.024223
Cr8   Cr    Cr6+3 0.387420 0.989430 0.750820 1.030289
Cr9   Cr    Cr6+3 0.612580 0.989430 0.249180 1.034482
Cr10  Cr    Cr6+3 0.887420 0.489430 0.750820 1.030293
Cr11  Cr    Cr6+3 0.112580 0.489430 0.249180 1.034460
Cr12  Cr    Cr6+3 0.385640 0.677860 0.749230 1.063106
H1    H     H_    0.489633 0.636300 0.941835 0.142727
H2    H     H_    0.855840 0.629110 0.427676 0.120588
H3    H     H_    0.644770 0.133705 0.571099 0.118953
H4    H     H_    0.355840 0.129110 0.427677 0.120590
H5    H     H_    0.290194 0.598320 0.443429 0.149997
H6    H     H_    0.710588 0.601603 0.556221 0.139927
H7    H     H_    0.790194 0.098320 0.443429 0.149996
H8    H     H_    0.210588 0.101604 0.556221 0.139924
H9    H     H_    0.479688 0.064220 0.132726 0.147968
H10   H     H_    0.514567 0.063497 0.871564 0.144580
H11   H     H_    0.979668 0.564206 0.132733 0.147924
H12   H     H_    0.491504 0.636734 0.067316 0.142034
H13   H     H_    0.014552 0.563510 0.871571 0.144567
H14   H     H_    0.002028 0.751714 0.067452 0.133403
H15   H     H_    0.016553 0.750877 0.936402 0.139403
H16   H     H_    0.502064 0.251717 0.067441 0.133428
H17   H     H_    0.516588 0.250868 0.936390 0.139443
H18   H     H_    0.327230 0.479609 0.057689 0.138159
H19   H     H_    0.699960 0.459119 0.959048 0.172339
H20   H     H_    0.827238 0.979624 0.057690 0.137946
H21   H     H_    0.199923 0.959135 0.959032 0.172348
H22   H     H_    0.370119 0.597655 0.948166 0.100572
H23   H     H_    0.989641 0.136302 0.941834 0.142629
H24   H     H_    0.641893 0.561133 0.058746 0.134556
H25   H     H_    0.870126 0.097687 0.948170 0.100474
H26   H     H_    0.141871 0.061171 0.058738 0.134499
H27   H     H_    0.585752 0.684675 0.451027 0.187743
H28   H     H_    0.535956 0.654498 0.573129 0.171729
H29   H     H_    0.085753 0.184675 0.451027 0.187742
H30   H     H_    0.035956 0.154498 0.573129 0.171726
H31   H     H_    0.478273 0.895806 0.448770 0.084516
H32   H     H_    0.517807 0.931258 0.561486 0.094652
H33   H     H_    0.978273 0.395806 0.448770 0.084514
H34   H     H_    0.991498 0.136734 0.067317 0.141949
H35   H     H_    0.017807 0.431258 0.561486 0.094653
H36   H     H_    0.237880 0.339199 0.543539 0.120552
H37   H     H_    0.278172 0.353169 0.631144 0.151269
H38   H     H_    0.330182 0.313651 0.554250 0.156460
H39   H     H_    0.758273 0.337761 0.459793 0.122699
H40   H     H_    0.717894 0.352784 0.372168 0.144881
H41   H     H_    0.665568 0.315419 0.449684 0.155612
H42   H     H_    0.737880 0.839199 0.543539 0.120555
H43   H     H_    0.778172 0.853168 0.631143 0.151265
H44   H     H_    0.830183 0.813651 0.554250 0.156459
H45   H     H_    0.131881 0.531155 0.453662 0.147831
H46   H     H_    0.258273 0.837758 0.459784 0.122699
H47   H     H_    0.217888 0.852790 0.372162 0.144875
H48   H     H_    0.165567 0.815419 0.449681 0.155611
H49   H     H_    0.349033 0.860869 0.058358 0.339801
H50   H     H_    0.615743 0.846962 0.874829 0.344682
H51   H     H_    0.848935 0.361836 0.058739 0.339996
H52   H     H_    0.115750 0.346959 0.874804 0.344679
H53   H     H_    0.201098 0.476973 0.983725 0.193415
H54   H     H_    0.142124 0.536422 0.916308 0.162303
H55   H     H_    0.125619 0.555105 0.011266 0.171783
H56   H     H_    0.867636 0.527545 0.546714 0.141352
H57   H     H_    0.841481 0.602179 0.024179 0.141540
H58   H     H_    0.870105 0.734774 0.074237 0.138465
H59   H     H_    0.870630 0.737023 0.978851 0.172457
H60   H     H_    0.701120 0.976963 0.983714 0.193405
H61   H     H_    0.642140 0.036406 0.916301 0.162313
H62   H     H_    0.625634 0.055066 0.011261 0.171784
H63   H     H_    0.341458 0.102036 0.024217 0.141891
H64   H     H_    0.370131 0.234642 0.074236 0.138502
H65   H     H_    0.370645 0.236816 0.978845 0.172439
H66   H     H_    0.631881 0.031154 0.453662 0.147831
H67   H     H_    0.367636 0.027544 0.546713 0.141352
H68   H     H_    0.144770 0.633706 0.571099 0.118952
O1    O     O_R   0.215090 0.709860 0.828130 -0.489302
O2    O     O_R   0.543740 0.718170 0.330000 -0.501607
O3    O     O_R   0.956260 0.218170 0.670000 -0.495193
O4    O     O_R   0.043740 0.218170 0.330000 -0.501606
O5    O     O_R   0.320940 0.626760 0.674370 -0.455446
O6    O     O_R   0.679060 0.626760 0.325630 -0.466232
O7    O     O_R   0.820940 0.126760 0.674370 -0.455448
O8    O     O_R   0.179060 0.126760 0.325630 -0.466238
O9    O     O_3   0.334530 0.834540 0.749640 -0.290590
O10   O     O_3   0.665470 0.834540 0.250360 -0.291608
O11   O     O_3   0.834530 0.334540 0.749640 -0.290587
O12   O     O_R   0.784910 0.709860 0.171870 -0.510402
O13   O     O_3   0.165470 0.334540 0.250360 -0.291617
O14   O     O_R   0.236990 0.958390 0.823710 -0.528010
O15   O     O_R   0.763010 0.958390 0.176290 -0.544097
O16   O     O_R   0.736990 0.458390 0.823710 -0.527992
O17   O     O_R   0.263010 0.458390 0.176290 -0.544098
O18   O     O_R   0.332380 0.074750 0.830850 -0.486353
O19   O     O_R   0.667620 0.074750 0.169150 -0.465982
O20   O     O_R   0.832380 0.574750 0.830850 -0.486358
O21   O     O_R   0.167620 0.574750 0.169150 -0.465977
O22   O     O_R   0.445800 0.917770 0.825070 -0.522423
O23   O     O_R   0.715090 0.209860 0.828130 -0.489305
O24   O     O_R   0.554200 0.917770 0.174930 -0.514144
O25   O     O_R   0.945800 0.417770 0.825070 -0.522420
O26   O     O_R   0.054200 0.417770 0.174930 -0.514134
O27   O     O_R   0.456410 0.716580 0.829970 -0.525895
O28   O     O_R   0.543590 0.716580 0.170030 -0.532096
O29   O     O_R   0.956410 0.216580 0.829970 -0.525909
O30   O     O_R   0.043590 0.216580 0.170030 -0.532107
O31   O     O_R   0.321080 0.625290 0.822650 -0.501825
O32   O     O_R   0.678920 0.625290 0.177350 -0.492429
O33   O     O_R   0.821080 0.125290 0.822650 -0.501846
O34   O     O_R   0.284910 0.209860 0.171870 -0.510313
O35   O     O_R   0.178920 0.125290 0.177350 -0.492415
O36   O     O_R   0.214930 0.711450 0.668160 -0.546060
O37   O     O_R   0.785070 0.711450 0.331840 -0.540326
O38   O     O_R   0.714930 0.211450 0.668160 -0.546060
O39   O     O_R   0.285070 0.211450 0.331840 -0.540320
O40   O     O_R   0.236850 0.959870 0.675420 -0.480096
O41   O     O_R   0.763150 0.959870 0.324580 -0.484901
O42   O     O_R   0.736850 0.459870 0.675420 -0.480091
O43   O     O_R   0.263150 0.459870 0.324580 -0.484904
O44   O     O_R   0.332230 0.076350 0.670880 -0.510172
O45   O     O_R   0.445660 0.919250 0.676780 -0.508595
O46   O     O_R   0.667770 0.076350 0.329120 -0.514891
O47   O     O_R   0.832230 0.576350 0.670880 -0.510178
O48   O     O_R   0.167770 0.576350 0.329120 -0.514902
O49   O     O_3   0.300990 0.491872 0.557605 -0.571930
O50   O     O_3   0.697585 0.492568 0.444198 -0.586527
O51   O     O_3   0.800990 0.991872 0.557605 -0.571931
O52   O     O_3   0.197585 0.992568 0.444198 -0.586529
O53   O     O_2   0.175449 0.809707 0.085132 -0.240279
O54   O     O_2   0.268769 0.829662 0.171777 -0.301416
O55   O     O_3   0.301555 0.858481 0.037695 -0.566304
O56   O     O_R   0.554340 0.919250 0.323220 -0.503712
O57   O     O_2   0.775395 0.849770 0.895747 -0.267788
O58   O     O_2   0.709741 0.766252 0.796971 -0.314709
O59   O     O_3   0.641199 0.808198 0.914555 -0.574619
O60   O     O_2   0.675466 0.309730 0.085079 -0.240336
O61   O     O_2   0.768712 0.329634 0.171806 -0.301737
O62   O     O_3   0.801620 0.358475 0.037747 -0.566441
O63   O     O_2   0.275408 0.349776 0.895783 -0.267710
O64   O     O_2   0.209785 0.266300 0.796973 -0.314709
O65   O     O_3   0.141203 0.308221 0.914539 -0.574710
O66   O     O_3   0.199773 0.666667 0.966246 -0.535058
O67   O     O_R   0.945660 0.419250 0.676780 -0.508598
O68   O     O_3   0.774204 0.754315 0.025997 -0.558118
O69   O     O_3   0.699776 0.166667 0.966247 -0.535072
O70   O     O_3   0.274235 0.254250 0.026001 -0.558147
O71   O     O_R   0.054340 0.419250 0.323220 -0.503714
O72   O     O_R   0.456260 0.718170 0.670000 -0.495187
S1    S     S_3+6 0.251621 0.784119 0.098647 0.025992
S2    S     S_3+6 0.716958 0.764624 0.876870 0.015938
S3    S     S_3+6 0.751624 0.284120 0.098653 0.025911
S4    S     S_3+6 0.216973 0.264646 0.876876 0.015927

loop_
_geom_bond_atom_site_label_1
_geom_bond_atom_site_label_2
_ccdc_geom_bond_type
C44   C49   S    
C43   C73   S    
C31   C66   S    
C29   H29   S    
Cr3   O33   S    
C74   C79   A    
C14   H18   S    
H50   O59   S    
C27   H27   S    
C14   C18   S    
C91   H62   S    
C55   O23   A    
Cr11  O13   S    
C24   C27   D    
C7    C55   S    
C20   H25   S    
C75   C76   A    
C26   H33   S    
Cr3   O11   S    
C86   H43   S    
C85   H39   S    
C53   O1    A    
Cr5   O10   S    
C40   O22   A    
C1    O14   A    
C15   C19   S    
C6    C19   D    
Cr6   O38   S    
Cr10  O67   S    
C53   O31   A    
Cr5   O37   S    
C90   H58   S    
Cr9   O56   S    
C56   C76   A    
Cr10  O11   S    
C5    C53   S    
C25   H35   S    
C85   H41   S    
C84   O49   S    
C41   O24   A    
C10   C15   D    
C23   O16   A    
O62   S3    S    
C22   C62   S    
C34   O17   A    
C19   H24   S    
C67   C89   A    
Cr2   O6    S    
C88   H55   S    
Cr1   O1    S    
Cr6   O11   S    
C67   H11   S    
C64   O67   A    
Cr3   O3    S    
C31   O49   S    
C43   O30   A    
Cr1   O9    S    
Cr9   O46   S    
Cr4   O4    S    
C91   O69   S    
C35   C70   S    
C30   H30   S    
C87   H46   S    
C67   C77   A    
C4    H17   S    
Cr10  O20   S    
C61   O48   A    
C10   S2    S    
C88   H54   S    
C9    S1    S    
C85   O50   S    
O58   S2    D    
Cr9   O24   S    
C33   C69   S    
Cr11  O48   S    
C41   C71   S    
Cr1   O14   S    
Cr12  O9    S    
Cr6   O42   S    
C88   O66   S    
C87   H47   S    
C4    C56   A    
C84   H36   S    
C70   O39   A    
C92   O70   S    
C63   O2    A    
C31   C49   D    
C41   O28   A    
C68   O37   A    
C86   H42   S    
C85   H40   S    
C23   O20   A    
C22   C28   D    
C91   H61   S    
C69   O7    A    
Cr8   O22   S    
C77   C79   A    
O53   S1    D    
C55   O33   A    
C66   O5    A    
C42   C74   S    
C5    O66   S    
Cr7   O34   S    
C62   O45   A    
C90   O68   S    
C78   H13   S    
C60   O47   A    
Cr7   O17   S    
C78   C79   A    
O61   S3    D    
Cr4   O35   S    
Cr7   O39   S    
C5    C18   D    
C70   O8    A    
H51   O62   S    
Cr12  O72   S    
C39   C58   S    
C6    O68   S    
C57   O34   A    
C3    C45   A    
C17   C21   S    
C33   C51   D    
O65   S4    S    
C22   H32   S    
C28   H28   S    
Cr11  O26   S    
C2    C89   A    
C9    C14   D    
Cr12  O31   S    
C29   C30   S    
C2    C78   A    
C8    C57   S    
O55   S1    S    
C48   H67   S    
C66   O36   A    
C11   C16   D    
C92   H64   S    
Cr11  O71   S    
Cr12  O5    S    
C84   H38   S    
C92   H65   S    
C16   C20   S    
C46   H56   S    
C32   O50   S    
C7    O69   S    
Cr1   O40   S    
C8    C21   D    
C37   H6    S    
C72   C76   A    
C60   O42   A    
C88   H53   S    
C65   O71   A    
C64   O3    A    
Cr4   O30   S    
Cr8   O9    S    
O64   S4    D    
C32   C50   D    
C38   C47   D    
C15   H19   S    
Cr10  O47   S    
Cr2   O2    S    
O57   S2    D    
C33   O51   S    
C34   O21   A    
Cr3   O7    S    
C39   H8    S    
Cr8   O45   S    
C6    C54   S    
C24   C63   S    
C58   O40   A    
C87   H48   S    
C65   O4    A    
C9    C34   S    
H52   O65   S    
Cr12  O27   S    
C54   O12   A    
C91   H60   S    
Cr10  O25   S    
O59   S2    S    
Cr2   O32   S    
C86   O51   S    
C36   C61   S    
O54   S1    D    
C21   H26   S    
O63   S4    D    
C36   H5    S    
C47   H66   S    
C24   H31   S    
Cr5   O12   S    
C74   C82   A    
C25   C30   D    
Cr5   O15   S    
C12   O19   A    
C57   O35   A    
C35   C52   D    
Cr8   O44   S    
C73   C77   A    
C40   C72   S    
C26   C65   S    
Cr4   O13   S    
H49   O55   S    
C42   O25   A    
Cr8   O18   S    
C80   C81   A    
Cr9   O19   S    
C59   O46   A    
C86   H44   S    
C49   H68   S    
C47   C51   S    
C2    H15   S    
C59   O41   A    
C62   O72   A    
C63   O56   A    
C40   O27   A    
C13   C17   D    
C10   C23   S    
Cr3   O29   S    
Cr2   O10   S    
C46   C50   S    
C44   H45   S    
C32   C68   S    
C90   H59   S    
C45   C75   A    
O60   S3    D    
C11   S3    S    
C87   O52   S    
Cr4   O8    S    
C38   H7    S    
C72   C80   A    
C35   O52   S    
C1    O18   A    
C71   C75   A    
C12   O15   A    
C92   H63   S    
C17   H21   S    
Cr7   O43   S    
C84   H37   S    
C54   O32   A    
C80   H1    S    
C81   H12   S    
C68   O6    A    
C37   C46   D    
Cr7   O13   S    
C73   C83   A    
Cr6   O23   S    
C43   O26   A    
Cr2   O28   S    
C16   H20   S    
C82   H23   S    
C37   C60   S    
C36   C44   D    
C3    H16   S    
C38   C59   S    
C45   H9    S    
C90   H57   S    
C48   C52   S    
C13   S4    S    
C1    C13   S    
C89   H14   S    
C52   H4    S    
C26   C29   D    
C51   H3    S    
C7    C20   D    
C27   C28   S    
C50   H2    S    
C56   H10   S    
C42   O29   A    
Cr5   O41   S    
C69   O38   A    
C61   O43   A    
C82   C83   A    
C8    O70   S    
Cr1   O36   S    
Cr6   O16   S    
C25   C64   S    
C83   H34   S    
C18   H22   S    
Cr9   O10   S    
C3    C4    A    
C11   C12   S    
Cr11  O21   S    
C39   C48   D    
C71   C81   A    
C58   O44   A    
