data_mof_unit_13613.cif
_audit_creation_date              2012-12-10T21:26:09-0500
_audit_creation_method            fapswitch 2.2
_symmetry_space_group_name_H-M    P1
_symmetry_Int_Tables_number       1
_space_group_crystal_system       triclinic
_cell_length_a                    8.569346
_cell_length_b                    16.197618
_cell_length_c                    16.859624
_cell_angle_alpha                 87.126086
_cell_angle_beta                  92.222192
_cell_angle_gamma                 100.436204
_cell_volume                      2297.5082929

loop_
_atom_site_label
_atom_site_type_symbol
_atom_type_description
_atom_site_fract_x
_atom_site_fract_y
_atom_site_fract_z
_atom_type_partial_charge
C1    C     C_R   0.498179 0.488617 0.652137 0.830909
C2    C     C_R   0.354001 0.148474 0.437861 -0.118592
C3    C     C_R   0.632962 0.763463 0.556930 -0.086247
C4    C     C_R   0.367039 0.236537 0.443069 -0.086219
C5    C     C_R   0.800515 0.521636 0.501257 0.946308
C6    C     C_R   0.199485 0.478365 0.498735 0.946045
C7    C     C_2   0.966267 0.533444 0.502244 -0.338004
C8    C     C_2   0.033732 0.466558 0.497742 -0.338032
C9    C     C_R   0.492333 0.482540 0.737654 -0.256752
C10   C     C_R   0.507650 0.517427 0.262343 -0.256881
C11   C     C_R   0.627282 0.521331 0.781011 -0.104075
C12   C     C_R   0.501807 0.511380 0.347862 0.831175
C13   C     C_R   0.372767 0.478510 0.219014 -0.104109
C14   C     C_R   0.612598 0.535861 0.861587 -0.028287
C15   C     C_R   0.387551 0.463803 0.138486 -0.028227
C16   C     C_R   0.464483 0.509313 0.897803 0.092398
C17   C     C_R   0.535695 0.490298 0.102282 0.092328
C18   C     C_R   0.329163 0.472487 0.853492 0.221668
C19   C     C_R   0.670967 0.527219 0.146574 0.221591
C20   C     C_R   0.342683 0.459912 0.772315 -0.058486
C21   C     C_R   0.657322 0.540010 0.227699 -0.058247
C22   C     C_2   0.221777 0.448418 0.261507 0.575019
C23   C     C_R   0.412892 0.758338 0.466473 0.084768
C24   C     C_2   0.778254 0.551469 0.738518 0.575244
C25   C     C_2   0.252774 0.417662 0.091544 0.508242
C26   C     C_2   0.747462 0.581864 0.908571 0.508268
C27   C     C_3   0.104381 0.362197 0.893011 -0.633982
C28   C     C_3   0.895919 0.637351 0.106942 -0.635050
C29   C     C_2   0.199632 0.429551 0.721343 0.444941
C30   C     C_2   0.800285 0.570541 0.278660 0.444657
C31   C     C_2   0.710835 0.287833 0.586803 0.411615
C32   C     C_2   0.289164 0.712167 0.413197 0.411576
C33   C     C_2   0.774661 0.895695 0.614312 0.452961
C34   C     C_R   0.587107 0.241662 0.533527 0.084781
C35   C     C_2   0.225344 0.104305 0.385685 0.452965
C36   C     C_R   0.420770 0.845568 0.470641 -0.237418
C37   C     C_R   0.579229 0.154432 0.529359 -0.237406
C38   C     C_R   0.537758 0.894115 0.517796 0.281421
C39   C     C_R   0.462243 0.105885 0.482203 0.281427
C40   C     C_R   0.646001 0.851527 0.562137 -0.118582
H1    H     H_    0.032354 0.597127 0.506816 0.199084
H2    H     H_    0.725461 0.628296 0.948816 0.054767
H3    H     H_    0.160458 0.483228 0.938705 0.280263
H4    H     H_    0.082293 0.339003 0.955193 0.224612
H5    H     H_    0.178798 0.322186 0.865965 0.214178
H6    H     H_    0.987670 0.355019 0.860819 0.277127
H7    H     H_    0.839736 0.516221 0.061483 0.280295
H8    H     H_    0.918940 0.660282 0.044749 0.225072
H9    H     H_    0.012204 0.644616 0.139547 0.277215
H10   H     H_    0.821101 0.677516 0.133465 0.214130
H11   H     H_    0.208609 0.391443 0.671215 0.087927
H12   H     H_    0.967645 0.402875 0.493169 0.199123
H13   H     H_    0.791264 0.609011 0.328543 0.088065
H14   H     H_    0.701577 0.348090 0.607962 0.129741
H15   H     H_    0.298422 0.651909 0.392038 0.129768
H16   H     H_    0.854260 0.860152 0.646830 0.076582
H17   H     H_    0.145745 0.139849 0.353166 0.076639
H18   H     H_    0.663551 0.124350 0.564289 0.237167
H19   H     H_    0.336448 0.875649 0.435711 0.237169
H20   H     H_    0.714945 0.730648 0.590612 0.156255
H21   H     H_    0.285058 0.269353 0.409387 0.156322
H22   H     H_    0.189553 0.484840 0.308608 0.058748
H23   H     H_    0.810418 0.515130 0.691337 0.058490
H24   H     H_    0.274893 0.371178 0.051389 0.054644
N1    N     N_2   0.450769 0.516702 0.980109 -0.196327
N2    N     N_2   0.549421 0.482867 0.019982 -0.196296
N3    N     N_R   0.519180 0.718290 0.509780 -0.128424
N4    N     N_R   0.480820 0.281710 0.490220 -0.128426
N5    N     N_2   0.549399 0.983946 0.521335 -0.114314
N6    N     N_2   0.450602 0.016054 0.478663 -0.114314
N7    N     N_2   0.178795 0.450250 0.890251 -0.245668
N8    N     N_2   0.821414 0.549315 0.109864 -0.245677
O1    O     O_R   0.493140 0.422050 0.612640 -0.658834
O2    O     O_2   0.862034 0.618982 0.751955 -0.536843
O3    O     O_2   0.119227 0.433520 0.094777 -0.538831
O4    O     O_2   0.880952 0.565945 0.905271 -0.538761
O5    O     O_2   0.072059 0.449524 0.732867 -0.556923
O6    O     O_2   0.927796 0.550304 0.267405 -0.557083
O7    O     O_2   0.826782 0.257842 0.609133 -0.574063
O8    O     O_2   0.173218 0.742159 0.390866 -0.574106
O9    O     O_2   0.794220 0.971448 0.621949 -0.533157
O10   O     O_2   0.205785 0.028553 0.378047 -0.533165
O11   O     O_R   0.506860 0.577950 0.387360 -0.658905
O12   O     O_R   0.505450 0.562230 0.618920 -0.591897
O13   O     O_R   0.494550 0.437770 0.381080 -0.591815
O14   O     O_R   0.723530 0.446300 0.497600 -0.640961
O15   O     O_R   0.276470 0.553700 0.502400 -0.640983
O16   O     O_R   0.735850 0.586490 0.503880 -0.619169
O17   O     O_R   0.264150 0.413510 0.496120 -0.619148
O18   O     O_2   0.138067 0.380857 0.248174 -0.536779
Zn1   Zn    Zn3+2 0.491780 0.406400 0.495810 0.950936
Zn2   Zn    Zn3+2 0.508220 0.593600 0.504190 0.950844

loop_
_geom_bond_atom_site_label_1
_geom_bond_atom_site_label_2
_ccdc_geom_bond_type
C2    C35   S    
C34   C37   A    
C36   H19   S    
O13   Zn1   S    
C7    C8    D    
C1    O12   A    
O11   Zn2   S    
C17   N2    S    
C12   O13   A    
C19   C21   A    
O14   Zn1   S    
C11   C14   A    
C15   C25   S    
C32   O8    D    
C11   C24   S    
N4    Zn1   S    
C23   N3    A    
C5    O16   A    
C28   H10   S    
C27   H4    S    
O16   Zn2   S    
C26   O4    D    
O17   Zn1   S    
C8    H12   S    
C32   H15   S    
C37   H18   S    
C3    H20   S    
C27   H5    S    
C33   H16   S    
C38   N5    S    
O15   Zn2   S    
C19   N8    S    
C28   N8    S    
C2    C39   A    
C35   O10   D    
C20   C29   S    
C10   C21   A    
C30   H13   S    
C33   C40   S    
C1    C9    S    
O1    Zn1   S    
C34   N4    A    
C4    N4    A    
C6    C8    S    
C4    H21   S    
C6    O15   A    
C12   O11   A    
C25   O3    D    
C25   H24   S    
C2    C4    A    
C22   H22   S    
C28   H9    S    
C9    C20   A    
C22   O18   D    
C31   C34   S    
C14   C26   S    
C9    C11   A    
C10   C12   S    
C5    O14   A    
C27   H6    S    
C3    C40   A    
C23   C36   A    
C24   H23   S    
C13   C15   A    
C14   C16   A    
C27   N7    S    
C26   H2    S    
C5    C7    S    
C29   H11   S    
C18   N7    S    
C15   C17   A    
C28   H8    S    
H3    N7    S    
C3    N3    A    
C10   C13   A    
C31   O7    D    
C6    O17   A    
C21   C30   S    
C35   H17   S    
C1    O1    A    
C23   C32   S    
C36   C38   A    
C37   C39   A    
C38   C40   A    
C24   O2    D    
N3    Zn2   S    
C17   C19   A    
C39   N6    S    
C13   C22   S    
C18   C20   A    
C7    H1    S    
C31   H14   S    
N5    N6    D    
H7    N8    S    
C30   O6    D    
C29   O5    D    
C16   C18   A    
N1    N2    D    
C16   N1    S    
O12   Zn2   S    
C33   O9    D    
