data_mof_unit_25523.cif
_audit_creation_date              2012-12-11T21:12:17-0500
_audit_creation_method            fapswitch 2.2
_symmetry_space_group_name_H-M    P1
_symmetry_Int_Tables_number       1
_space_group_crystal_system       triclinic
_cell_length_a                    8.368947
_cell_length_b                    18.880754
_cell_length_c                    27.053923
_cell_angle_alpha                 99.696765
_cell_angle_beta                  91.808156
_cell_angle_gamma                 88.612738
_cell_volume                      4210.89770905

loop_
_atom_site_label
_atom_site_type_symbol
_atom_type_description
_atom_site_fract_x
_atom_site_fract_y
_atom_site_fract_z
_atom_type_partial_charge
Ba1   Ba    Ba6+2 0.160810 0.465630 0.521640 1.702233
Ba2   Ba    Ba6+2 0.649380 0.534380 0.478400 1.674482
C1    C     C_3   0.453820 0.340658 0.674550 -0.320538
C2    C     C_3   0.492205 0.268952 0.641544 0.240418
C3    C     C_3   0.440463 0.309865 0.381268 0.269233
C4    C     C_3   0.392553 0.234098 0.357006 -0.087546
C5    C     C_3   0.872830 0.725504 0.380927 0.267379
C6    C     C_3   0.847716 0.802139 0.370473 -0.190685
C7    C     C_3   0.398623 0.690708 0.350629 0.292906
C8    C     C_3   0.448128 0.705261 0.299713 -0.263407
C9    C     C_R   0.999010 0.048560 0.478588 0.006797
C10   C     C_R   0.076003 0.096534 0.452615 -0.071488
C11   C     C_R   0.209140 0.952755 0.459763 -0.081100
C12   C     C_3   0.967262 0.279303 0.620019 0.318909
C13   C     C_R   0.059672 0.977245 0.479756 0.016999
C14   C     C_R   0.262594 0.882048 0.458260 -0.025810
C15   C     C_R   0.170114 0.831859 0.476566 -0.017374
C16   C     C_R   0.024881 0.855648 0.500220 -0.007269
C17   C     C_R   0.969969 0.928757 0.502239 0.029604
C18   C     C_R   0.219063 0.758677 0.472325 0.000223
C19   C     C_R   0.120819 0.709972 0.489887 -0.304907
C20   C     C_R   0.983498 0.732680 0.516570 0.042618
C21   C     C_R   0.935865 0.806675 0.522529 -0.044213
C22   C     C_R   0.852861 0.071973 0.502001 0.036679
C23   C     C_3   0.981070 0.204329 0.633410 -0.328101
C24   C     C_R   0.792349 0.143579 0.500955 0.026933
C25   C     C_R   0.879315 0.191945 0.477361 -0.031562
C26   C     C_R   0.016872 0.165887 0.451732 0.012752
C27   C     C_R   0.803347 0.833676 0.550636 -0.019654
C28   C     C_R   0.748765 0.904286 0.552289 -0.085298
C29   C     C_R   0.825776 0.952627 0.526637 0.015564
C30   C     C_R   0.765091 0.023996 0.525581 0.020178
C31   C     C_R   0.615634 0.048366 0.545681 -0.074579
C32   C     C_R   0.642879 0.166330 0.522400 -0.031002
C33   C     C_R   0.556316 0.117442 0.543923 -0.079970
C34   C     C_3   0.823545 0.635716 0.634772 0.277419
C35   C     C_R   0.580614 0.236025 0.518979 0.032678
C36   C     C_R   0.665052 0.280143 0.493126 -0.221080
C37   C     C_R   0.819879 0.263333 0.477427 0.041890
C38   C     C_R   0.265895 0.458192 0.172231 0.616033
C39   C     C_R   0.248645 0.586804 0.183873 0.596906
C40   C     C_2   0.051091 0.540420 0.271219 -0.041237
C41   C     C_3   0.012386 0.531317 0.324115 -0.028380
C42   C     C_1   0.290728 0.503490 0.338277 0.021434
C43   C     C_2   0.328639 0.506454 0.291376 -0.115238
C44   C     C_2   0.201474 0.525136 0.254925 0.208687
C45   C     C_3   0.806677 0.665792 0.690276 -0.330523
C46   C     C_R   0.328035 0.519885 0.102957 -0.081372
C47   C     C_R   0.307808 0.455513 0.121767 -0.033315
C48   C     C_R   0.331283 0.389843 0.089968 -0.039183
C49   C     C_R   0.301650 0.585933 0.134724 -0.059645
C50   C     C_2   0.161207 0.536883 0.357519 -0.313322
C51   C     C_2   0.656635 0.482618 0.643649 -0.159531
C52   C     C_R   0.450373 0.449243 0.970560 0.021974
C53   C     C_R   0.427328 0.581290 0.982489 0.028296
C54   C     C_R   0.459879 0.514462 0.951338 0.054791
C55   C     C_R   0.488888 0.384304 0.938365 -0.093085
C56   C     C_3   0.984311 0.376114 0.368420 0.286514
C57   C     C_R   0.528253 0.383373 0.888663 -0.035557
C58   C     C_R   0.532546 0.447096 0.868793 -0.027636
C59   C     C_R   0.499318 0.512860 0.900124 -0.083751
C60   C     C_R   0.504587 0.577072 0.880232 -0.047154
C61   C     C_R   0.551636 0.574997 0.830315 0.700426
C62   C     C_R   0.568907 0.446294 0.818114 0.621503
C63   C     C_2   0.769094 0.486590 0.731411 -0.108559
C64   C     C_3   0.808132 0.484738 0.676477 -0.088715
C65   C     C_1   0.525291 0.518616 0.660454 0.008909
C66   C     C_2   0.493337 0.526988 0.709451 0.102413
C67   C     C_3   0.003855 0.353284 0.312040 -0.032049
C68   C     C_2   0.618878 0.507831 0.747027 0.167714
C69   C     C_R   0.400797 0.450974 0.020762 0.029018
C70   C     C_R   0.375226 0.518243 0.052477 0.036942
C71   C     C_R   0.399267 0.583803 0.034535 -0.003265
C72   C     C_R   0.375353 0.387492 0.040567 -0.089188
C73   C     C_R   0.339023 0.649591 0.118035 -0.030239
C74   C     C_R   0.412447 0.642836 0.959411 -0.057887
C75   C     C_R   0.456808 0.641556 0.910074 -0.029586
C76   C     C_R   0.397568 0.648767 0.070197 0.136788
C77   C     C_3   0.328414 0.683294 0.589149 0.306469
C78   C     C_3   0.325460 0.764618 0.604868 -0.362036
H1    H     H_    0.605993 0.273265 0.622276 -0.099853
H2    H     H_    0.736579 0.717079 0.694752 0.146056
H3    H     H_    0.743502 0.627984 0.709466 0.087324
H4    H     H_    0.926699 0.675821 0.708460 0.153225
H5    H     H_    0.101522 0.391788 0.386198 -0.010755
H6    H     H_    0.899574 0.422644 0.375539 0.052354
H7    H     H_    0.078174 0.391740 0.296824 0.054387
H8    H     H_    0.064799 0.299818 0.304245 0.130367
H9    H     H_    0.205244 0.664691 0.579904 0.010059
H10   H     H_    0.404186 0.669303 0.555826 0.065051
H11   H     H_    0.414314 0.380378 0.650882 0.150528
H12   H     H_    0.247336 0.780085 0.637524 0.143223
H13   H     H_    0.279126 0.791359 0.573830 0.052117
H14   H     H_    0.448384 0.783733 0.615360 0.120074
H15   H     H_    0.562214 0.361542 0.696065 0.103052
H16   H     H_    0.572908 0.312739 0.384925 0.063606
H17   H     H_    0.386423 0.322814 0.418794 0.042867
H18   H     H_    0.427455 0.223912 0.317108 0.163006
H19   H     H_    0.260813 0.229143 0.358268 0.093277
H20   H     H_    0.356904 0.335063 0.700706 0.163657
H21   H     H_    0.864407 0.187893 0.645536 0.121492
H22   H     H_    0.791045 0.719591 0.411504 0.092802
H23   H     H_    0.998626 0.717654 0.393456 -0.024726
H24   H     H_    0.861622 0.840755 0.406008 0.016862
H25   H     H_    0.723669 0.808943 0.355969 0.108338
H26   H     H_    0.266058 0.687905 0.351027 0.017444
H27   H     H_    0.452398 0.638111 0.355429 0.081045
H28   H     H_    0.440418 0.655082 0.271934 0.107824
H29   H     H_    0.573521 0.723023 0.301284 0.156221
H30   H     H_    0.080591 0.289737 0.602712 0.121951
H31   H     H_    0.369638 0.747340 0.287191 0.147735
H32   H     H_    0.157883 0.654039 0.485708 0.063649
H33   H     H_    0.377297 0.867311 0.441921 0.119778
H34   H     H_    0.079367 0.198152 0.429493 0.108531
H35   H     H_    0.738437 0.800720 0.571740 0.102705
H36   H     H_    0.438593 0.130971 0.558276 0.127037
H37   H     H_    0.609107 0.329249 0.485255 0.066695
H38   H     H_    0.289930 0.987300 0.445307 0.092600
H39   H     H_    0.180886 0.081489 0.430993 0.106979
H40   H     H_    0.645954 0.919524 0.574895 0.070483
H41   H     H_    0.867459 0.280423 0.592101 -0.021560
H42   H     H_    0.537532 0.014394 0.561717 0.084081
H43   H     H_    0.448010 0.491540 0.278382 0.130190
H44   H     H_    0.314829 0.339473 0.103153 0.138094
H45   H     H_    0.555442 0.331990 0.865688 0.143352
H46   H     H_    0.491409 0.332789 0.950415 0.083076
H47   H     H_    0.386695 0.334534 0.018720 0.081747
H48   H     H_    0.955914 0.551651 0.245270 0.101301
H49   H     H_    0.334703 0.700179 0.143770 0.156572
H50   H     H_    0.359694 0.692154 0.978411 0.124947
H51   H     H_    0.017241 0.165363 0.599958 0.085851
H52   H     H_    0.448426 0.691079 0.894839 0.140504
H53   H     H_    0.158398 0.561529 0.396767 0.065266
H54   H     H_    0.072567 0.203092 0.663907 0.182281
H55   H     H_    0.703587 0.621926 0.618127 0.030214
H56   H     H_    0.903622 0.587511 0.630270 0.045882
N1    N     N_R   0.237999 0.523477 0.202708 -0.431755
N2    N     N_R   0.577778 0.509859 0.799268 -0.412778
O1    O     O_2   0.106080 0.324280 0.466820 -0.472583
O2    O     O_3   0.390521 0.652887 0.629452 -0.615295
O3    O     O_3   0.938954 0.330483 0.663266 -0.580252
O4    O     O_2   0.704230 0.675760 0.533200 -0.471998
O5    O     O_3   0.951180 0.586390 0.529420 -0.480208
O6    O     O_3   0.434080 0.629720 0.443130 -0.491781
O7    O     O_3   0.891134 0.688559 0.612422 -0.638733
O8    O     O_3   0.351080 0.462080 0.440130 -0.471925
O9    O     O_3   0.839200 0.593040 0.416790 -0.488082
O10   O     O_2   0.683354 0.556365 0.330372 -0.488904
O11   O     O_3   0.836891 0.675853 0.337355 -0.603532
O12   O     O_3   0.859130 0.413620 0.470620 -0.461003
O13   O     O_3   0.459240 0.537930 0.559910 -0.460588
O14   O     O_2   0.583120 0.462390 0.379940 -0.439483
O15   O     O_3   0.382383 0.356022 0.349095 -0.637806
O16   O     O_2   0.551596 0.756856 0.481540 -0.496227
O17   O     O_3   0.455171 0.745429 0.388357 -0.596721
O18   O     O_2   0.253161 0.402426 0.188995 -0.560802
O19   O     O_2   0.593585 0.388926 0.790773 -0.590933
O20   O     O_2   0.212644 0.643912 0.209947 -0.585683
O21   O     O_2   0.569838 0.631125 0.814493 -0.548831
O22   O     O_3   0.376230 0.370290 0.556910 -0.445839
O23   O     O_2   0.248473 0.244408 0.518060 -0.488390
O24   O     O_3   0.926311 0.317630 0.387304 -0.624502
O25   O     O_3   0.362153 0.250055 0.607819 -0.610013
O26   O     O_2   0.227190 0.537650 0.620070 -0.448803
O27   O     O_3   0.971110 0.406970 0.583250 -0.472004
O28   O     O_2   0.137756 0.436001 0.668399 -0.439626
P1    P     P_3+3 0.929380 0.335110 0.452880 1.003482
P2    P     P_3+3 0.398530 0.559060 0.613740 1.048309
P3    P     P_3+3 0.966099 0.416705 0.648926 1.054403
P4    P     P_3+3 0.880940 0.664900 0.547160 0.982797
P5    P     P_3+3 0.843791 0.588701 0.351932 0.967946
P6    P     P_3+3 0.394752 0.275602 0.549570 0.963981
P7    P     P_3+3 0.399524 0.446352 0.376553 0.987599
P8    P     P_3+3 0.413828 0.722963 0.446812 0.929491
I1    I     I_    0.776034 0.347615 0.273567 -0.358219
C79   C     C_2   0.517993 0.211622 0.674106 0.892776
O29   O     O_2   0.431843 0.159390 0.668276 -0.549188
O30   O     O_R   0.639134 0.217102 0.711282 -0.705138
H57   H     H_    0.706891 0.261115 0.712619 0.304725
I2    I     I_    0.503352 0.151705 0.391765 -0.511646
C80   C     C_2   0.965404 0.819986 0.333996 0.924727
O31   O     O_2   0.919515 0.829548 0.292234 -0.551312
O32   O     O_R   0.126595 0.827343 0.348449 -0.773046
H58   H     H_    0.192920 0.843053 0.321673 0.322147
C81   C     C_2   0.898914 0.477845 0.768902 0.930010
O33   O     O_2   0.991372 0.426322 0.761810 -0.557358
O34   O     O_R   0.913969 0.528445 0.812842 -0.743724
H59   H     H_    0.006164 0.516661 0.835491 0.317802
I3    I     I_    0.273306 0.575811 0.737897 -0.355781
I4    I     I_    0.526312 0.743494 0.064615 -0.372695
I5    I     I_    0.665523 0.429931 0.569545 -0.352550

loop_
_geom_bond_atom_site_label_1
_geom_bond_atom_site_label_2
_ccdc_geom_bond_type
C65   P2    S    
Ba2   O12   S    
C53   C54   A    
C34   H55   S    
O2    P2    S    
C50   H53   S    
C32   C35   A    
Ba2   O6    S    
C64   P3    S    
C8    H28   S    
C76   I4    S    
C61   O21   D    
C17   C29   A    
C14   H33   S    
C3    H16   S    
C35   P6    S    
O30   H57   S    
C5    C6    S    
C62   N2    Am   
C43   C44   S    
C43   H43   S    
C13   C17   A    
C24   C25   A    
C27   C28   A    
C10   C26   A    
C56   H6    S    
C4    H18   S    
C35   C36   A    
C22   C24   A    
Ba1   Ba2   S    
C48   C72   A    
C36   C37   A    
C41   C50   S    
C81   O34   S    
Ba1   P1    S    
C38   C47   A    
O8    P7    S    
O15   P7    S    
C9    C22   A    
O10   P5    D    
C8    H29   S    
C1    H11   S    
C32   C33   A    
C40   C44   D    
C45   H2    S    
C47   C48   A    
C77   H10   S    
C60   C75   A    
C5    O11   S    
O23   P6    D    
C9    C13   A    
C1    H20   S    
C24   C32   A    
C46   C49   A    
C18   P8    S    
C52   C69   A    
C29   C30   A    
Ba1   O26   S    
C25   C37   A    
C14   C15   A    
C5    H22   S    
C62   O19   D    
C71   C76   A    
C45   H3    S    
C7    C8    S    
C39   N1    Am   
C67   H7    S    
C77   C78   S    
C40   H48   S    
O4    P4    D    
C42   C50   D    
C79   O30   S    
C77   O2    S    
C27   H35   S    
C12   O3    S    
C57   C58   A    
C12   H41   S    
C5    H23   S    
C19   C20   A    
C6    H25   S    
O27   P3    S    
Ba2   O5    S    
C36   H37   S    
Ba1   O8    S    
C74   H50   S    
C46   C70   A    
C78   H13   S    
C34   H56   S    
C20   C21   A    
O9    P5    S    
C11   H38   S    
Ba1   O12   S    
C63   C81   S    
C80   O32   S    
Ba2   O14   S    
C52   C54   A    
C2    H1    S    
C16   C21   A    
C8    H31   S    
C48   H44   S    
C74   C75   A    
C55   H46   S    
O16   P8    D    
C16   C17   A    
Ba1   P2    S    
C7    H26   S    
C80   O31   D    
C65   C66   D    
C58   C59   A    
C75   H52   S    
C78   H12   S    
O32   H58   S    
C22   C30   A    
C60   C61   A    
Ba1   O5    S    
C10   H39   S    
C6    H24   S    
C72   H47   S    
Ba1   O27   S    
C28   C29   A    
C38   N1    Am   
O3    P3    S    
C15   C16   A    
O22   P6    S    
C2    O25   S    
C33   H36   S    
C45   H4    S    
C42   P7    S    
O1    P1    D    
C23   H54   S    
C51   I5    S    
C20   P4    S    
C67   H8    S    
C26   H34   S    
Ba2   P4    S    
C44   N1    S    
O14   P7    D    
O26   P2    D    
C46   C47   A    
C3    H17   S    
C68   N2    S    
C11   C13   A    
C31   H42   S    
Ba2   O4    S    
C61   N2    Am   
C34   C45   S    
C7    H27   S    
C40   C41   S    
C53   C74   A    
C78   H14   S    
C1    C2    S    
C23   H51   S    
C56   H5    S    
C21   C27   A    
C19   H32   S    
C42   C43   D    
O17   P8    S    
Ba2   O13   S    
C12   H30   S    
O7    P4    S    
C79   O29   D    
C41   P5    S    
C39   O20   D    
C4    I2    S    
O11   P5    S    
C15   C18   A    
Ba1   O22   S    
O25   P6    S    
O5    P4    S    
C49   C73   A    
C70   C71   A    
Ba1   O1    S    
C69   C72   A    
C9    C10   A    
C56   C67   S    
Ba2   O8    S    
C6    C80   S    
C58   C62   A    
C4    H19   S    
Ba2   O9    S    
C69   C70   A    
C51   C64   S    
C57   H45   S    
C30   C31   A    
C23   H21   S    
C81   O33   D    
C3    C4    S    
C28   H40   S    
C66   I3    S    
C3    O15   S    
O12   P1    S    
C31   C33   A    
Ba1   O13   S    
C12   C23   S    
C37   P1    S    
C59   C60   A    
C51   C65   D    
C73   C76   A    
C77   H9    S    
C55   C57   A    
O24   P1    S    
C53   C71   A    
C73   H49   S    
C34   O7    S    
O34   H59   S    
C18   C19   A    
C7    O17   S    
O28   P3    D    
C66   C68   S    
C63   C64   S    
C2    C79   S    
C11   C14   A    
O6    P8    S    
C25   C26   A    
C54   C59   A    
C38   O18   D    
C1    H15   S    
C67   I1    S    
C63   C68   D    
C39   C49   A    
O13   P2    S    
C52   C55   A    
C56   O24   S    
