data_mof_unit_61777.cif
_audit_creation_date              2012-12-10T19:06:46-0500
_audit_creation_method            fapswitch 2.2
_symmetry_space_group_name_H-M    P1
_symmetry_Int_Tables_number       1
_space_group_crystal_system       triclinic
_cell_length_a                    13.045496
_cell_length_b                    13.639292
_cell_length_c                    16.843864
_cell_angle_alpha                 89.427301
_cell_angle_beta                  92.216388
_cell_angle_gamma                 94.227652
_cell_volume                      2986.58341981

loop_
_atom_site_label
_atom_site_type_symbol
_atom_type_description
_atom_site_fract_x
_atom_site_fract_y
_atom_site_fract_z
_atom_type_partial_charge
C1    C     C_R   0.481319 0.314913 0.500857 0.901908
C2    C     C_2   0.964521 0.473065 0.477348 0.410403
C3    C     C_1   0.853190 0.480445 0.483681 0.183481
C4    C     C_1   0.146808 0.519544 0.516318 0.182766
C5    C     C_R   0.485446 0.502438 0.347387 0.860100
C6    C     C_R   0.514081 0.494595 0.652355 0.857569
C7    C     C_R   0.475699 0.506488 0.261436 -0.044312
C8    C     C_R   0.520140 0.466645 0.735448 -0.036367
C9    C     C_R   0.563303 0.531285 0.217872 -0.170485
C10   C     C_R   0.435653 0.412997 0.767826 -0.171007
C11   C     C_R   0.556658 0.528402 0.135844 -0.137855
C12   C     C_R   0.518683 0.685087 0.499171 0.906475
C13   C     C_R   0.439187 0.385467 0.847062 -0.138408
C14   C     C_R   0.462845 0.499270 0.097065 0.137639
C15   C     C_R   0.526334 0.413382 0.894542 0.137224
C16   C     C_R   0.373897 0.479610 0.139837 -0.141452
C17   C     C_R   0.613553 0.460928 0.861411 -0.140264
C18   C     C_R   0.380234 0.483405 0.222264 -0.171556
C19   C     C_R   0.610810 0.486878 0.781404 -0.174248
C20   C     C_2   0.460146 0.484091 0.011799 -0.107927
C21   C     C_2   0.516787 0.415919 0.980054 -0.113535
C22   C     C_1   0.574627 0.348995 0.028263 0.202466
C23   C     C_1   0.533504 0.788111 0.498461 -0.145920
C24   C     C_1   0.401222 0.550000 0.963210 0.205450
C25   C     C_1   0.466512 0.211896 0.501717 -0.145351
C26   C     C_2   0.544290 0.979098 0.497960 0.481227
C27   C     C_2   0.455748 0.020911 0.502476 0.480260
C28   C     C_1   0.457721 0.124583 0.502270 0.038795
C29   C     C_1   0.542304 0.875425 0.498045 0.039472
C30   C     C_2   0.035478 0.526916 0.522651 0.412940
F1    F     F_    0.364240 0.966704 0.507179 -0.643286
F2    F     F_    0.635795 0.033308 0.493241 -0.642829
F3    F     F_    0.996136 0.409220 0.423487 -0.655371
F4    F     F_    0.003862 0.590761 0.576511 -0.653332
H1    H     H_    0.637180 0.551267 0.247161 0.168862
H2    H     H_    0.366282 0.393727 0.732214 0.166229
H3    H     H_    0.677286 0.526287 0.756392 0.168832
H4    H     H_    0.311742 0.464869 0.255247 0.175259
H5    H     H_    0.301073 0.457811 0.109635 0.148980
H6    H     H_    0.680619 0.483657 0.898529 0.145486
H7    H     H_    0.371399 0.349395 0.872874 0.148356
H8    H     H_    0.625224 0.545389 0.102514 0.144273
N1    N     N_1   0.235630 0.515160 0.512550 -0.089224
N2    N     N_1   0.764370 0.484840 0.487450 -0.088706
N3    N     N_1   0.620804 0.295568 0.066748 -0.163116
N4    N     N_1   0.354263 0.602564 0.924484 -0.165299
O1    O     O_R   0.402910 0.365220 0.504590 -0.606398
O2    O     O_R   0.597090 0.634780 0.495410 -0.602860
O3    O     O_R   0.572660 0.355490 0.496530 -0.583759
O4    O     O_R   0.427340 0.644510 0.503470 -0.583157
O5    O     O_R   0.405090 0.505430 0.388710 -0.611574
O6    O     O_R   0.594910 0.494570 0.611290 -0.608103
O7    O     O_R   0.574840 0.495690 0.380650 -0.611740
O8    O     O_R   0.425160 0.504310 0.619350 -0.610240
Zn1   Zn    Zn3+2 0.386660 0.506500 0.505380 1.025327
Zn2   Zn    Zn3+2 0.613340 0.493500 0.494620 1.027904

loop_
_geom_bond_atom_site_label_1
_geom_bond_atom_site_label_2
_ccdc_geom_bond_type
C12   O4    A    
C26   F2    S    
C4    N1    T    
O3    Zn2   S    
C5    C7    S    
N2    Zn2   S    
O4    Zn1   S    
C12   O2    A    
C2    C30   D    
C7    C18   A    
C24   N4    T    
C7    C9    A    
C13   H7    S    
C2    C3    S    
C18   H4    S    
O1    Zn1   S    
C4    C30   S    
C21   C22   S    
C25   C28   T    
C1    C25   S    
C9    C11   A    
C12   C23   S    
C26   C27   D    
O6    Zn2   S    
C6    O8    A    
C6    C8    S    
C23   C29   T    
C2    F3    S    
N1    Zn1   S    
C17   C19   A    
O5    Zn1   S    
C13   C15   A    
C11   C14   A    
C14   C16   A    
C3    N2    T    
C8    C19   A    
C30   F4    S    
C16   H5    S    
C27   F1    S    
C14   C20   S    
C15   C21   S    
C22   N3    T    
C20   C21   D    
C26   C29   S    
C16   C18   A    
O7    Zn2   S    
C5    O7    A    
C27   C28   S    
O2    Zn2   S    
O8    Zn1   S    
C1    O1    A    
C9    H1    S    
C10   H2    S    
C11   H8    S    
C19   H3    S    
C6    O6    A    
C15   C17   A    
C1    O3    A    
C10   C13   A    
C8    C10   A    
C5    O5    A    
C20   C24   S    
C17   H6    S    
