data_mof_unit_32797.cif
_audit_creation_date              2013-03-05T15:52:07-0500
_audit_creation_method            fapswitch 2.2
_symmetry_space_group_name_H-M    P1
_symmetry_Int_Tables_number       1
_space_group_crystal_system       triclinic
_cell_length_a                    6.956505
_cell_length_b                    19.5868
_cell_length_c                    23.389812
_cell_angle_alpha                 96.08164
_cell_angle_beta                  90.882445
_cell_angle_gamma                 88.966197
_cell_volume                      3168.25046504

loop_
_atom_site_label
_atom_site_type_symbol
_atom_site_description
_atom_site_fract_x
_atom_site_fract_y
_atom_site_fract_z
_atom_type_partial_charge
O1    O     O_R   0.617180 0.809390 0.808140 -0.554953
O2    O     O_R   0.382820 0.190610 0.191860 -0.554724
O3    O     O_R   0.293300 0.672410 0.795490 -0.593611
O4    O     O_R   0.706700 0.327590 0.204510 -0.593192
O5    O     O_R   0.117220 0.690610 0.691850 -0.579480
O6    O     O_R   0.882780 0.309390 0.308150 -0.580370
C1    C     C_R   0.464302 0.648061 0.805678 0.928340
C2    C     C_R   0.535701 0.351925 0.194312 0.927112
O7    O     O_R   0.287840 0.807750 0.814460 -0.571491
O8    O     O_R   0.712160 0.192250 0.185540 -0.570111
O9    O     O_R   0.111720 0.826910 0.710960 -0.594541
O10   O     O_R   0.888280 0.173090 0.289040 -0.594263
C3    C     C_R   0.456471 0.830781 0.833172 0.989631
C4    C     C_R   0.543532 0.169211 0.166833 0.988131
O11   O     O_R   0.622680 0.673080 0.789040 -0.588974
O12   O     O_R   0.377320 0.326920 0.210960 -0.588316
O13   O     O_3   0.448820 0.756130 0.716020 -0.257246
O14   O     O_3   0.551180 0.243870 0.283980 -0.258380
V1    V     V_3+5 0.176220 0.748860 0.756300 1.232190
V2    V     V_3+5 0.823780 0.251140 0.243700 1.232274
O15   O     O_R   0.781670 0.827580 0.704500 -0.553558
O16   O     O_R   0.218330 0.172420 0.295500 -0.558819
C5    C     C_R   0.949002 0.851873 0.694318 1.154963
C6    C     C_R   0.050984 0.148154 0.305705 1.157776
O17   O     O_R   0.787130 0.692240 0.685530 -0.574083
O18   O     O_R   0.212870 0.307760 0.314470 -0.572464
C7    C     C_R   0.956135 0.669143 0.666863 0.995019
C8    C     C_R   0.043861 0.330803 0.333174 0.990599
V3    V     V_3+5 0.675510 0.751130 0.743690 1.255460
V4    V     V_3+5 0.324490 0.248870 0.256310 1.253011
O19   O     O_3   0.952780 0.743870 0.783980 -0.268463
O20   O     O_3   0.047220 0.256130 0.216020 -0.266996
C9    C     C_1   0.966743 0.617119 0.614787 -0.249502
C10   C     C_1   0.033257 0.382817 0.385255 -0.250036
C11   C     C_1   0.978290 0.573627 0.571952 0.093167
C12   C     C_1   0.021713 0.426308 0.428090 0.095766
C13   C     C_1   0.993455 0.521830 0.521340 0.029247
C14   C     C_1   0.006550 0.478106 0.478703 0.030339
C15   C     C_R   0.955943 0.913731 0.663140 -0.514162
C16   C     C_R   0.044158 0.085606 0.335974 -0.490482
C17   C     C_R   0.028923 0.035303 0.667922 0.281772
C18   C     C_R   0.966822 0.964360 0.330093 0.267451
C19   C     C_R   0.974684 0.978246 0.695416 0.207872
C20   C     C_R   0.018897 0.021909 0.302958 0.200655
C21   C     C_R   0.973478 0.907829 0.602441 0.373332
C22   C     C_R   0.034485 0.090150 0.396798 0.263923
C23   C     C_R   0.991988 0.968337 0.573693 -0.025029
C24   C     C_R   0.017092 0.028990 0.424779 -0.047172
C25   C     C_R   0.045380 0.029585 0.607451 -0.204338
C26   C     C_R   0.958131 0.968696 0.390720 -0.091548
C27   C     C_R   0.969686 0.969877 0.512467 0.012755
C28   C     C_R   0.044981 0.026130 0.485678 -0.140142
C29   C     C_R   0.148948 0.076590 0.521074 0.569828
C30   C     C_R   0.865494 0.919382 0.477667 0.575778
C31   C     C_R   0.126201 0.082526 0.580350 -0.079599
C32   C     C_R   0.880265 0.915166 0.417732 -0.253174
H1    H     H_    0.189480 0.126315 0.605318 0.202189
H2    H     H_    0.816784 0.871769 0.392320 0.183632
C33   C     C_R   0.482036 0.585765 0.835865 -0.137987
C34   C     C_R   0.518103 0.414410 0.164381 -0.135592
C35   C     C_R   0.552755 0.464294 0.832188 -0.022620
C36   C     C_R   0.453153 0.536310 0.168901 -0.031633
C37   C     C_R   0.536430 0.523912 0.804902 -0.179772
C38   C     C_R   0.470017 0.476534 0.195944 -0.181870
C39   C     C_R   0.457327 0.588334 0.895559 -0.096522
C40   C     C_R   0.537670 0.411908 0.104514 -0.095832
C41   C     C_R   0.496612 0.529827 0.925568 0.140109
C42   C     C_R   0.498983 0.470812 0.074930 0.142312
C43   C     C_R   0.525799 0.465947 0.891974 -0.062017
C44   C     C_R   0.472684 0.534676 0.108808 -0.060789
C45   C     C_R   0.500668 0.532016 0.987264 -0.141755
C46   C     C_R   0.494204 0.468861 0.013283 -0.137750
C47   C     C_R   0.480387 0.406012 0.976759 0.229676
C48   C     C_R   0.513977 0.594865 0.023882 0.232923
C49   C     C_R   0.516723 0.404437 0.917694 0.195432
C50   C     C_R   0.480435 0.596229 0.083100 0.196027
H3    H     H_    0.586736 0.363903 0.082243 0.145183
H4    H     H_    0.404148 0.636047 0.917298 0.146523
H5    H     H_    0.452181 0.479194 0.242077 0.119894
H6    H     H_    0.559572 0.521292 0.759005 0.121721
H7    H     H_    0.585164 0.416720 0.805928 0.173210
H8    H     H_    0.427225 0.583987 0.195702 0.172849
C51   C     C_1   0.467127 0.882849 0.885220 -0.204595
C52   C     C_1   0.532884 0.117133 0.114792 -0.202534
C53   C     C_1   0.478584 0.926359 0.928047 0.158293
C54   C     C_1   0.521434 0.073618 0.071970 0.159243
C55   C     C_1   0.493555 0.978137 0.978679 0.082016
C56   C     C_1   0.506466 0.021835 0.021340 0.082114
N1    N     N_R   0.399357 0.346079 0.996998 0.240618
O21   O     O_R   0.483125 0.286161 0.986900 -0.320220
O22   O     O_R   0.236004 0.350984 0.023641 -0.369522
N2    N     N_R   0.585207 0.656015 0.003187 0.242583
O23   O     O_R   0.748940 0.654146 0.976834 -0.366652
O24   O     O_R   0.492820 0.714332 0.013267 -0.322879
N3    N     N_R   0.009882 0.156673 0.428708 0.249255
O25   O     O_R   0.870339 0.167591 0.465147 -0.346330
O26   O     O_R   0.120426 0.207281 0.419787 -0.392246
N4    N     N_R   0.008781 0.840974 0.572083 0.248449
O27   O     O_R   0.902825 0.789080 0.580807 -0.399080
O28   O     O_R   0.150859 0.831487 0.536401 -0.373196
N5    N     N_R   0.029440 0.017056 0.241247 0.254493
O29   O     O_R   0.175615 0.041915 0.216789 -0.379632
O30   O     O_R   0.891122 0.989205 0.209266 -0.302911
N6    N     N_R   0.956273 0.984452 0.756960 0.253943
O31   O     O_R   0.807870 0.959405 0.780168 -0.377799
O32   O     O_R   0.089566 0.013800 0.790085 -0.300877
N7    N     N_R   0.062219 0.099612 0.701635 0.259456
O33   O     O_R   0.920718 0.132047 0.728979 -0.260618
O34   O     O_R   0.237184 0.120445 0.711775 -0.300044
N8    N     N_R   0.927528 0.900945 0.295758 0.260318
O35   O     O_R   0.064707 0.868347 0.266495 -0.263913
O36   O     O_R   0.750850 0.881273 0.287124 -0.308472
O37   O     O_3   0.283413 0.118168 0.500251 -0.675684
H9    H     H_    0.336072 0.093939 0.464369 0.324952
O38   O     O_3   0.739634 0.877698 0.502439 -0.705759
H10   H     H_    0.674805 0.846826 0.472032 0.344574
N9    N     N_R   0.519791 0.339823 0.882619 0.264545
O39   O     O_R   0.673293 0.300816 0.881393 -0.264327
O40   O     O_R   0.372509 0.321399 0.850015 -0.296470
N10   N     N_R   0.477645 0.660788 0.118269 0.262556
O41   O     O_R   0.637517 0.692265 0.132035 -0.267453
O42   O     O_R   0.315399 0.687412 0.137456 -0.290905

loop_
_geom_bond_atom_site_label_1
_geom_bond_atom_site_label_2
_geom_bond_distance
_ccdc_geom_bond_type
C40   C42   1.426378 A    
C55   C56   1.247140 T    
N5    O29   1.301205 A    
O13   V3    1.700503 S    
C29   C31   1.390219 A    
N3    O25   1.301482 A    
C49   N9    1.433452 S    
C4    C52   1.504808 S    
O4    C2    1.301543 A    
V1    O19   1.701367 S    
N6    O32   1.301255 A    
C23   C25   1.416666 A    
C28   C29   1.421030 A    
C16   C22   1.418581 A    
O9    V1    1.991773 S    
C50   N10   1.433601 S    
C48   C50   1.405530 A    
C48   N2    1.437371 S    
C11   C13   1.478969 S    
C52   C54   1.247054 T    
O3    C1    1.301612 A    
C21   N4    1.440817 S    
N9    O40   1.300960 A    
C9    C11   1.247037 T    
C54   C56   1.478997 S    
O12   V4    1.993280 S    
O38   H10   0.991796 S    
C36   C44   1.411136 A    
C2    O12   1.295579 A    
C21   C23   1.431900 A    
C1    C33   1.475488 S    
C35   C37   1.390939 A    
O7    C3    1.316291 A    
N8    O35   1.300903 A    
C36   C38   1.390806 A    
C6    C16   1.480303 S    
C19   N6    1.439236 S    
O7    V1    1.857760 S    
O6    C8    1.311059 A    
C22   N3    1.440103 S    
O8    V2    1.857760 S    
C39   C41   1.426114 A    
N7    O33   1.300893 A    
O3    V1    1.992404 S    
O14   V4    1.700503 S    
N1    O22   1.301576 A    
C17   N7    1.434043 S    
C41   C45   1.438997 A    
C15   C21   1.419153 A    
C24   C26   1.416204 A    
C36   H8    1.082102 S    
C34   C40   1.404556 A    
N5    O30   1.301269 A    
O5    C7    1.311049 A    
C17   C19   1.407059 A    
C18   C20   1.406429 A    
C17   C25   1.413218 A    
N6    O31   1.301185 A    
C29   O37   1.378773 S    
O11   V3    1.993279 S    
C22   C24   1.432399 A    
C37   H6    1.083681 S    
C53   C55   1.479000 S    
O17   V3    1.857875 S    
C30   C32   1.400798 A    
C27   C28   1.434632 A    
O8    C4    1.316286 A    
C15   C19   1.408731 A    
C1    O11   1.295587 A    
C25   C31   1.401590 A    
O15   V3    1.994859 S    
C26   C32   1.401170 A    
C41   C43   1.418304 A    
C13   C14   1.247117 T    
C16   C20   1.408320 A    
C42   C46   1.438267 A    
C30   O38   1.382230 S    
O10   V2    1.991773 S    
O1    V3    1.837643 S    
C18   C26   1.413748 A    
C51   C53   1.247057 T    
O18   V4    1.857877 S    
N4    O28   1.301483 A    
C31   H1    1.081669 S    
C44   C50   1.405340 A    
C38   H5    1.083702 S    
O16   C6    1.300257 A    
O1    C3    1.311299 A    
C47   C49   1.405323 A    
C12   C14   1.478972 S    
N10   O41   1.300888 A    
N10   O42   1.300759 A    
O37   H9    0.991264 S    
V2    O20   1.701367 S    
C35   C43   1.410647 A    
C40   H3    1.077991 S    
O10   C6    1.295528 A    
C39   H4    1.077691 S    
O16   V4    1.994861 S    
O18   C8    1.316147 A    
C46   C47   1.425954 A    
C45   C48   1.426827 A    
C23   C27   1.441511 A    
C20   N5    1.439362 S    
N3    O26   1.301441 A    
O5    V1    1.837405 S    
O17   C7    1.316169 A    
O6    V2    1.837403 S    
C3    C51   1.504820 S    
C33   C37   1.393335 A    
O2    V4    1.837641 S    
C34   C38   1.392879 A    
C27   C30   1.415341 A    
O15   C5    1.300258 A    
C18   N8    1.434092 S    
C47   N1    1.438633 S    
C45   C46   1.436984 A    
V3    O19   2.142705 S    
C35   H7    1.082503 S    
N9    O39   1.300657 A    
C2    C34   1.475300 S    
V4    O20   2.142706 S    
N2    O24   1.301717 A    
N7    O34   1.301047 A    
C5    C15   1.480705 S    
O9    C5    1.295637 A    
N2    O23   1.301522 A    
O13   V1    2.144114 S    
C10   C12   1.247042 T    
C32   H2    1.081321 S    
C43   C49   1.405298 A    
O14   V2    2.144113 S    
O2    C4    1.311306 A    
N8    O36   1.301069 A    
C8    C10   1.504790 S    
O4    V2    1.992404 S    
C24   C28   1.441427 A    
C42   C44   1.418549 A    
N4    O27   1.301416 A    
C7    C9    1.504807 S    
N1    O21   1.301355 A    
C33   C39   1.404889 A    
