data_mof_unit_11875.cif
_audit_creation_date              2013-03-05T16:48:43-0500
_audit_creation_method            fapswitch 2.2
_symmetry_space_group_name_H-M    P1
_symmetry_Int_Tables_number       1
_space_group_crystal_system       triclinic
_cell_length_a                    27.693728
_cell_length_b                    9.029158
_cell_length_c                    8.080138
_cell_angle_alpha                 90.034723
_cell_angle_beta                  90.305992
_cell_angle_gamma                 90.954713
_cell_volume                      2020.1371754

loop_
_atom_site_label
_atom_site_type_symbol
_atom_site_description
_atom_site_fract_x
_atom_site_fract_y
_atom_site_fract_z
_atom_type_partial_charge
O1    O     O_R   0.500000 0.285350 0.636850 -0.619733
O2    O     O_R   0.500000 0.714650 0.363150 -0.612788
O3    O     O_R   0.500000 0.714650 0.636850 -0.611203
O4    O     O_R   0.500000 0.285350 0.363150 -0.621232
C1    C     C_R   0.499956 0.217719 0.499967 0.915730
C2    C     C_R   0.500083 0.782283 0.500034 0.945882
O5    O     O_R   0.428760 0.500000 0.636860 -0.642264
O6    O     O_R   0.571240 0.500000 0.363140 -0.622423
O7    O     O_R   0.571240 0.500000 0.636860 -0.593547
O8    O     O_R   0.428760 0.500000 0.363140 -0.592603
C3    C     C_R   0.405562 0.498972 0.499568 0.906712
C4    C     C_R   0.594275 0.499357 0.500487 0.903343
Zn1   Zn    Zn3+2 0.500000 0.500000 0.682780 0.994388
Zn2   Zn    Zn3+2 0.500000 0.500000 0.317220 1.001661
C5    C     C_R   0.173529 0.381783 0.437725 0.589462
C6    C     C_R   0.823657 0.665150 0.444848 0.576703
C7    C     C_R   0.179090 0.632546 0.532646 0.570682
C8    C     C_R   0.822049 0.425050 0.569973 0.560196
O9    O     O_2   0.196597 0.257268 0.394336 -0.540534
O10   O     O_2   0.798156 0.779353 0.385138 -0.593745
O11   O     O_2   0.207929 0.746263 0.581534 -0.583725
O12   O     O_2   0.795084 0.314721 0.636360 -0.596750
N1    N     N_R   0.199904 0.502994 0.486559 -0.327285
N2    N     N_R   0.799231 0.545043 0.506199 -0.315901
C9    C     C_R   0.277338 0.565588 0.359905 0.067124
C10   C     C_R   0.724786 0.444542 0.384370 0.089094
C11   C     C_R   0.275084 0.425693 0.617520 0.117072
C12   C     C_R   0.720960 0.620598 0.612610 0.066910
C13   C     C_R   0.328043 0.568471 0.365258 0.012718
C14   C     C_R   0.674528 0.421471 0.390278 0.004113
C15   C     C_R   0.325604 0.425367 0.623308 -0.023762
C16   C     C_R   0.670379 0.606907 0.612619 -0.002525
C17   C     C_R   0.251393 0.495880 0.486767 0.270576
C18   C     C_R   0.747628 0.540329 0.497964 0.285721
C19   C     C_R   0.100634 0.520253 0.481346 -0.122757
C20   C     C_R   0.898665 0.540336 0.500917 -0.109903
C21   C     C_R   0.122934 0.386693 0.434813 -0.089736
C22   C     C_R   0.874603 0.668042 0.443471 -0.087411
C23   C     C_R   0.128461 0.646481 0.527767 -0.070257
C24   C     C_R   0.872625 0.416181 0.563301 -0.078583
C25   C     C_R   0.093891 0.265375 0.380691 0.064579
C26   C     C_R   0.902536 0.789046 0.379291 -0.039239
C27   C     C_R   0.104466 0.779790 0.569544 -0.052961
C28   C     C_R   0.898247 0.288705 0.615908 -0.015058
C29   C     C_R   0.352443 0.498151 0.497173 -0.124307
C30   C     C_R   0.647106 0.507199 0.501953 -0.111984
C31   C     C_R   0.973024 0.401277 0.514207 -0.024177
C32   C     C_R   0.026947 0.663627 0.494305 0.035434
C33   C     C_R   0.976437 0.665890 0.463652 0.017090
C34   C     C_R   0.022156 0.396159 0.467842 -0.034793
C35   C     C_R   0.949237 0.536292 0.495105 -0.087082
C36   C     C_R   0.050065 0.526875 0.481912 -0.071728
C37   C     C_R   0.948216 0.279594 0.584521 0.455952
C38   C     C_R   0.053863 0.789414 0.546100 0.508231
C39   C     C_R   0.953499 0.785454 0.387215 0.521320
C40   C     C_R   0.043578 0.270105 0.397739 0.457150
C41   C     C_1   0.500015 0.064964 0.499955 -0.189468
C42   C     C_1   0.500059 0.935043 0.500047 -0.188885
N3    N     N_1   0.500000 0.500000 0.073640 -0.031062
N4    N     N_1   0.500000 0.500000 0.926360 -0.033574
N5    N     N_3   0.348497 0.347706 0.756518 -0.459909
H1    H     H_    0.366717 0.424043 0.832520 0.216364
H2    H     H_    0.372903 0.272355 0.707689 0.202873
N6    N     N_3   0.642254 0.695684 0.722420 -0.429333
H3    H     H_    0.649483 0.807464 0.697790 0.183025
H4    H     H_    0.652380 0.672809 0.844414 0.199637
N7    N     N_3   0.354924 0.646006 0.239797 -0.426196
H5    H     H_    0.346435 0.599640 0.124493 0.187617
H6    H     H_    0.344989 0.757157 0.239872 0.189780
N8    N     N_3   0.652821 0.309544 0.284406 -0.436159
H7    H     H_    0.617364 0.284652 0.318154 0.195754
H8    H     H_    0.670530 0.210136 0.306559 0.183105
N9    N     N_3   0.247114 0.356265 0.745587 -0.431339
H9    H     H_    0.255960 0.244219 0.750235 0.228720
H10   H     H_    0.256811 0.404952 0.858660 0.196523
N10   N     N_3   0.746011 0.714493 0.729106 -0.435949
H11   H     H_    0.734349 0.823105 0.713626 0.206540
H12   H     H_    0.737486 0.679341 0.848807 0.190518
N11   N     N_3   0.251341 0.634419 0.227338 -0.440843
H13   H     H_    0.260455 0.747158 0.224735 0.211938
H14   H     H_    0.261586 0.586267 0.115545 0.182227
N12   N     N_3   0.753727 0.368611 0.265514 -0.447532
H15   H     H_    0.751670 0.254900 0.288960 0.211356
H16   H     H_    0.739797 0.388704 0.147263 0.211115
N13   N     N_3   0.114827 0.141767 0.297362 -0.368371
H17   H     H_    0.102252 0.141029 0.175110 0.220524
H18   H     H_    0.102393 0.044283 0.353212 0.230394
N14   N     N_3   0.880773 0.915963 0.304587 -0.462215
H19   H     H_    0.860005 0.882191 0.202541 0.237081
H20   H     H_    0.859642 0.970019 0.391591 0.240013
N15   N     N_3   0.129858 0.904671 0.640665 -0.463769
H21   H     H_    0.154732 0.947721 0.555946 0.265346
H22   H     H_    0.147144 0.871985 0.749685 0.245452
N16   N     N_3   0.875177 0.168985 0.703740 -0.462872
H23   H     H_    0.849772 0.116000 0.627313 0.239899
H24   H     H_    0.858987 0.209960 0.810606 0.241277
O13   O     O_3   0.974697 0.159345 0.635073 -0.711954
H25   H     H_    0.953016 0.076711 0.668636 0.381248
O14   O     O_3   0.029014 0.914601 0.590195 -0.690801
H26   H     H_    0.051703 0.996316 0.619161 0.382594
O15   O     O_3   0.981953 0.886376 0.302486 -0.686182
H27   H     H_    0.962206 0.939007 0.219547 0.359404
O16   O     O_3   0.016446 0.157878 0.326374 -0.699022
H28   H     H_    0.984144 0.195944 0.297309 0.337265

loop_
_geom_bond_atom_site_label_1
_geom_bond_atom_site_label_2
_geom_bond_distance
_ccdc_geom_bond_type
O5    Zn1   2.005540 S    
O15   H27   0.989522 S    
N9    H9    1.045535 S    
C15   N5    1.435493 S    
C19   C23   1.414446 A    
O3    C2    1.263262 A    
O13   H25   0.988841 S    
Zn1   N4    1.968160 S    
N13   H17   1.045627 S    
C11   C17   1.398396 A    
C32   C38   1.410176 A    
Zn2   N3    1.968160 S    
C7    N1    1.365090 A    
C8    N2    1.363348 A    
C19   C21   1.415548 A    
N10   H12   1.045116 S    
C22   C26   1.427512 A    
C32   C36   1.404080 A    
C7    C23   1.410176 A    
N5    H2    1.045573 S    
C8    C24   1.405567 A    
C5    C21   1.402692 A    
O7    Zn1   2.009432 S    
C13   N7    1.436494 S    
C28   C37   1.411963 A    
C10   C18   1.401879 A    
N1    C17   1.428437 S    
N2    C18   1.430185 S    
C34   C36   1.404215 A    
N8    H7    1.041463 S    
N5    H1    1.044698 S    
O3    Zn1   1.973541 S    
C6    O10   1.347598 S    
C31   C37   1.407726 A    
C5    N1    1.362617 A    
C12   C18   1.397567 A    
N3    N4    1.190042 T    
C6    N2    1.363508 A    
C9    N11   1.435075 S    
O4    Zn2   1.973542 S    
N9    H10   1.045501 S    
O2    C2    1.263072 A    
C14   N8    1.444895 S    
O5    C3    1.278920 A    
C31   C34   1.414694 A    
N13   H18   1.043558 S    
C9    C13   1.404455 A    
C11   C15   1.399671 A    
N7    H5    1.045209 S    
C12   C16   1.404156 A    
N10   H11   1.044952 S    
C16   N6    1.436551 S    
C4    C30   1.463619 S    
O8    Zn2   2.009435 S    
N15   H21   1.044337 S    
N11   H14   1.044926 S    
C31   C35   1.403503 A    
C33   C35   1.405096 A    
C33   C39   1.403528 A    
C34   C40   1.411921 A    
C13   C29   1.415380 A    
N7    H6    1.045047 S    
N6    H4    1.045078 S    
C5    O9    1.349377 S    
C25   C40   1.402245 A    
C26   C39   1.413387 A    
N15   H22   1.045359 S    
C27   C38   1.417243 A    
O14   H26   0.988293 S    
C20   C24   1.417203 A    
O6    C4    1.277170 A    
N16   H24   1.045378 S    
C20   C35   1.402636 A    
C32   C33   1.419753 A    
N14   H20   1.043269 S    
C10   C14   1.404951 A    
N12   H16   1.045611 S    
O1    C1    1.263068 A    
C38   O14   1.380644 S    
C3    C29   1.470957 S    
C26   N14   1.435535 S    
C12   N10   1.434764 S    
O16   H28   0.990784 S    
O6    Zn2   2.005537 S    
C8    O12   1.348301 S    
C16   C30   1.413868 A    
C14   C30   1.419919 A    
C40   O16   1.375931 S    
O4    C1    1.263264 A    
C23   C27   1.425792 A    
C25   N13   1.435253 S    
C39   O15   1.379357 S    
C1    C41   1.379283 S    
C37   O13   1.381070 S    
N6    H3    1.045120 S    
C20   C22   1.418464 A    
C41   C42   1.173100 T    
C2    C42   1.379306 S    
C21   C25   1.415742 A    
N16   H23   1.043577 S    
O2    Zn2   1.973099 S    
O7    C4    1.276248 A    
C27   N15   1.436884 S    
C28   N16   1.436348 S    
O8    C3    1.278829 A    
N11   H13   1.044926 S    
C24   C28   1.426027 A    
O1    Zn1   1.973100 S    
N14   H19   1.045202 S    
C10   N12   1.435433 S    
N12   H15   1.044827 S    
C15   C29   1.419764 A    
C9    C17   1.398837 A    
C19   C36   1.402744 A    
N8    H8    1.045039 S    
C11   N9    1.434205 S    
C6    C22   1.410822 A    
C7    O11   1.347959 S    
