data_mof_unit_65340.cif
_audit_creation_date              2012-12-10T18:34:11-0500
_audit_creation_method            fapswitch 2.2
_symmetry_space_group_name_H-M    P1
_symmetry_Int_Tables_number       1
_space_group_crystal_system       triclinic
_cell_length_a                    11.104543
_cell_length_b                    15.119082
_cell_length_c                    13.932973
_cell_angle_alpha                 89.23166
_cell_angle_beta                  101.625294
_cell_angle_gamma                 91.37147
_cell_volume                      2290.48358869

loop_
_atom_site_label
_atom_site_type_symbol
_atom_type_description
_atom_site_fract_x
_atom_site_fract_y
_atom_site_fract_z
_atom_type_partial_charge
C1    C     C_R   0.500808 0.329938 0.500675 0.915229
C2    C     C_R   0.499882 0.669662 0.499579 0.793485
C3    C     C_R   0.490084 0.047772 0.507191 -0.190096
C4    C     C_R   0.491152 0.950702 0.506000 -0.240751
C5    C     C_R   0.553594 0.566547 0.113865 -0.270271
C6    C     C_R   0.409695 0.456157 0.878922 -0.265916
C7    C     C_R   0.558965 0.565362 0.215052 0.444984
C8    C     C_R   0.412284 0.453227 0.778999 0.476496
C9    C     C_R   0.445868 0.430696 0.203201 -0.055362
C10   C     C_R   0.593574 0.541750 0.803927 -0.052621
C11   C     C_R   0.451172 0.424031 0.102340 0.328286
C12   C     C_R   0.602362 0.537572 0.907138 0.329769
C13   C     C_R   0.503307 0.494995 0.055108 0.087560
C14   C     C_R   0.505853 0.496303 0.946146 0.084519
C15   C     C_R   0.262963 0.503333 0.461456 0.748364
C16   C     C_R   0.735705 0.504121 0.538940 0.733710
C17   C     C_2   0.127425 0.502031 0.444797 0.197702
C18   C     C_2   0.864205 0.531763 0.557630 0.227546
C19   C     C_2   0.070620 0.519988 0.519957 0.281483
C20   C     C_2   0.943738 0.486586 0.517057 0.231502
C21   C     C_R   0.557760 0.094607 0.588485 0.446038
C22   C     C_R   0.388170 0.899797 0.521755 0.447723
C23   C     C_R   0.568371 0.186458 0.583499 0.365446
C24   C     C_R   0.389170 0.807865 0.514835 0.393173
C25   C     C_R   0.500826 0.232885 0.501998 -0.305056
C26   C     C_R   0.496206 0.765954 0.498849 -0.381489
C27   C     C_R   0.427963 0.186529 0.423122 0.341309
C28   C     C_R   0.600901 0.817101 0.487037 0.339538
C29   C     C_R   0.426524 0.093287 0.424224 0.208069
C30   C     C_R   0.595900 0.909127 0.487440 0.320374
Cu1   Cu    Cu3+1 0.500000 0.499990 0.596430 1.035176
Cu2   Cu    Cu3+1 0.500000 0.500010 0.403570 1.052239
H1    H     H_    0.591996 0.623648 0.082380 0.234102
H2    H     H_    0.332398 0.424969 0.903196 0.233157
H3    H     H_    0.402048 0.378256 0.237977 0.192176
H4    H     H_    0.664859 0.575592 0.774028 0.147035
N1    N     N_R   0.500000 0.500020 0.258690 -0.222923
N2    N     N_R   0.500000 0.499980 0.741310 -0.212671
O1    O     O_R   0.500010 0.371450 0.581440 -0.552407
O2    O     O_R   0.499990 0.628550 0.418560 -0.540429
O3    O     O_R   0.500010 0.371460 0.418560 -0.531593
O4    O     O_R   0.499990 0.628540 0.581440 -0.569460
O5    O     O_R   0.320690 0.500000 0.551510 -0.535625
O6    O     O_R   0.679310 0.500000 0.448490 -0.531717
O7    O     O_R   0.320690 0.500010 0.388630 -0.584035
O8    O     O_R   0.679310 0.499990 0.611370 -0.604645
Br1   Br    Br    0.898704 0.369208 0.464930 -0.370976
Br2   Br    Br    0.152497 0.584513 0.636769 -0.332105
O9    O     O_3   0.410621 0.347816 0.051206 -0.694478
H5    H     H_    0.378607 0.305163 0.095159 0.353201
O10   O     O_3   0.706138 0.569908 0.969697 -0.698750
H6    H     H_    0.764074 0.595446 0.930605 0.344169
O11   O     O_3   0.897597 0.612042 0.602882 -0.654052
H7    H     H_    0.826704 0.634996 0.627565 0.327699
O12   O     O_3   0.057275 0.476045 0.355461 -0.658435
H8    H     H_    0.112569 0.461236 0.310706 0.358403
O13   O     O_3   0.620154 0.053186 0.672469 -0.608190
H9    H     H_    0.593877 0.990292 0.673496 0.331652
O14   O     O_3   0.283290 0.936868 0.541905 -0.592597
H10   H     H_    0.296810 0.000923 0.554203 0.342244
O15   O     O_3   0.646709 0.228398 0.659841 -0.604929
H11   H     H_    0.681349 0.282662 0.634258 0.333801
O16   O     O_3   0.283299 0.761683 0.524977 -0.592141
H12   H     H_    0.284472 0.700924 0.499922 0.322544
O17   O     O_3   0.359120 0.234688 0.347147 -0.703219
H13   H     H_    0.297190 0.195973 0.306047 0.373854
O18   O     O_3   0.710485 0.780454 0.476795 -0.600959
H14   H     H_    0.709791 0.716479 0.491812 0.337225
Br3   Br    Br    0.343509 0.026958 0.311172 -0.360596
Br4   Br    Br    0.736084 0.977409 0.463519 -0.240717
Br5   Br    Br    0.665378 0.653120 0.287087 -0.335838
Br6   Br    Br    0.296720 0.372461 0.702797 -0.365932

loop_
_geom_bond_atom_site_label_1
_geom_bond_atom_site_label_2
_ccdc_geom_bond_type
C10   H4    S    
Cu2   O3    S    
C21   O13   S    
C16   O6    A    
C27   O17   S    
Cu1   O4    S    
C6    C14   A    
C4    C22   A    
Cu2   O7    S    
C17   O12   S    
C5    C13   A    
C19   C20   S    
Cu1   N2    S    
C23   O15   S    
C10   N2    A    
C6    H2    S    
C28   O18   S    
O12   H8    S    
C9    N1    A    
C7    N1    A    
C15   O5    A    
O14   H10   S    
C2    C26   S    
C16   C18   S    
C13   C14   S    
C1    C25   S    
C9    C11   A    
O13   H9    S    
Cu1   O5    S    
C8    N2    A    
C2    O4    A    
C11   O9    S    
C10   C12   A    
C1    O3    A    
C30   Br4   S    
C24   C26   A    
O9    H5    S    
C24   O16   S    
C29   Br3   S    
Cu2   O2    S    
C21   C23   A    
C7    Br5   S    
O15   H11   S    
C22   C24   A    
C3    C21   A    
C20   Br1   S    
C27   C29   A    
C1    O1    A    
C25   C27   A    
C9    H3    S    
O16   H12   S    
C2    O2    A    
C12   C14   A    
C11   C13   A    
C12   O10   S    
O10   H6    S    
Cu2   O6    S    
C18   C20   D    
C3    C29   A    
O17   H13   S    
C16   O8    A    
C22   O14   S    
C5    C7    A    
C15   O7    A    
C19   Br2   S    
C6    C8    A    
Cu2   N1    S    
C18   O11   S    
C17   C19   D    
C23   C25   A    
C15   C17   S    
C8    Br6   S    
C26   C28   A    
Cu1   Cu2   S    
C4    C30   A    
C3    C4    S    
O18   H14   S    
O11   H7    S    
Cu1   O1    S    
C28   C30   A    
Cu1   O8    S    
C5    H1    S    
