data_mof_unit_29651.cif
_audit_creation_date              2012-10-26T19:15:03-0400
_audit_creation_method            fapswitch 2.2
_symmetry_space_group_name_H-M    P1
_symmetry_Int_Tables_number       1
_space_group_crystal_system       triclinic
_cell_length_a                    10.823435
_cell_length_b                    10.8231
_cell_length_c                    9.583026
_cell_angle_alpha                 90.754884
_cell_angle_beta                  90.51804
_cell_angle_gamma                 91.62845
_cell_volume                      1121.98499696

loop_
_atom_site_label
_atom_site_type_symbol
_atom_type_description
_atom_site_fract_x
_atom_site_fract_y
_atom_site_fract_z
_atom_type_partial_charge
C1    C     C_R   0.494986 0.262445 0.499093 0.543708
C2    C     C_R   0.479104 0.939626 0.626493 0.019961
C3    C     C_3   0.564983 0.940065 0.749097 -0.289271
C4    C     C_R   0.262474 0.495154 0.499371 0.539845
C5    C     C_3   0.569285 0.079913 0.743677 -0.267470
C6    C     C_R   0.601734 0.542705 0.074156 0.176578
C7    C     C_R   0.405237 0.446610 0.072608 -0.019427
C8    C     C_R   0.405221 0.446655 0.924028 -0.015403
C9    C     C_R   0.601107 0.541247 0.927334 0.098092
C10   C     C_3   0.658147 0.666007 0.919095 -0.225054
C11   C     C_3   0.666540 0.669081 0.078344 0.252489
C12   C     C_R   0.938682 0.483358 0.625819 0.023568
C13   C     C_R   0.494214 0.737653 0.500824 0.549886
C14   C     C_R   0.737709 0.495644 0.500469 0.537734
C15   C     C_R   0.065747 0.482485 0.624562 0.019677
C16   C     C_R   0.129370 0.478086 0.499099 0.007850
C17   C     C_R   0.062346 0.451632 0.375448 -0.168131
C18   C     C_R   0.933101 0.450201 0.377090 -0.172027
C19   C     C_R   0.870648 0.478622 0.501225 0.001952
C20   C     C_3   0.799168 0.660326 0.141803 -0.214427
C21   C     C_3   0.894528 0.760650 0.097995 -0.321358
C22   C     C_3   0.025379 0.725277 0.139457 -0.447890
C23   C     C_3   0.939342 0.574350 0.744164 -0.277455
C24   C     C_3   0.632169 0.881065 0.114429 -0.141303
C25   C     C_3   0.079091 0.572334 0.743191 -0.264651
C26   C     C_R   0.481328 0.066492 0.623890 0.026491
C27   C     C_R   0.476934 0.129358 0.498586 0.008613
C28   C     C_R   0.446964 0.061578 0.376113 -0.178318
C29   C     C_R   0.443495 0.932036 0.378898 -0.160967
C30   C     C_R   0.474369 0.870358 0.502405 0.006766
Cu1   Cu    Cu3+1 0.499990 0.499980 0.640670 0.929627
Cu2   Cu    Cu3+1 0.500010 0.500020 0.359330 0.963268
H1    H     H_    0.108995 0.437918 0.277178 0.122122
H2    H     H_    0.903443 0.665243 0.712793 0.124949
H3    H     H_    0.900056 0.533077 0.840234 0.132745
H4    H     H_    0.123362 0.661819 0.712579 0.142323
H5    H     H_    0.119019 0.529823 0.837807 0.127460
H6    H     H_    0.431710 0.107675 0.278084 0.124562
H7    H     H_    0.422476 0.880759 0.283716 0.172287
H8    H     H_    0.515805 0.907773 0.843392 0.135301
H9    H     H_    0.032076 0.712750 0.254140 0.163160
H10   H     H_    0.050766 0.638250 0.085509 0.148657
H11   H     H_    0.092156 0.799731 0.109128 0.146306
H12   H     H_    0.655050 0.897559 0.726101 0.126453
H13   H     H_    0.892175 0.774857 0.983679 0.149594
H14   H     H_    0.875648 0.849673 0.150955 0.153383
H15   H     H_    0.793001 0.663846 0.257124 0.182400
H16   H     H_    0.836094 0.569339 0.110572 0.095119
H17   H     H_    0.550673 0.938574 0.095914 0.116631
H18   H     H_    0.691619 0.891312 0.021068 0.095549
H19   H     H_    0.681483 0.919417 0.208047 0.134679
H20   H     H_    0.526938 0.124686 0.836010 0.136715
H21   H     H_    0.661002 0.119192 0.713004 0.139255
H22   H     H_    0.327551 0.404934 0.126447 0.103278
H23   H     H_    0.327508 0.404882 0.867529 0.114661
H24   H     H_    0.746346 0.667083 0.864250 0.078705
H25   H     H_    0.590328 0.728776 0.875737 0.155566
H26   H     H_    0.882904 0.432365 0.280637 0.123932
N1    N     N_R   0.500790 0.500930 0.147930 -0.213819
N2    N     N_R   0.500790 0.500890 0.852020 -0.233531
O1    O     O_R   0.500000 0.319640 0.618810 -0.500789
O2    O     O_R   0.500010 0.319680 0.381230 -0.513679
O3    O     O_R   0.319650 0.499970 0.618810 -0.508599
O4    O     O_R   0.319660 0.500010 0.381230 -0.517166
O5    O     O_R   0.499990 0.680320 0.618770 -0.509127
O6    O     O_R   0.500000 0.680360 0.381190 -0.441480
O7    O     O_R   0.680340 0.499990 0.618770 -0.496701
O8    O     O_R   0.680350 0.500030 0.381190 -0.520219
O9    O     O_3   0.590688 0.758494 0.141043 -0.533636

loop_
_geom_bond_atom_site_label_1
_geom_bond_atom_site_label_2
_ccdc_geom_bond_type
Cu1   N2    S    
C4    C16   S    
C14   O7    A    
C11   O9    S    
C5    H20   S    
C29   C30   A    
C10   H24   S    
C9    C10   S    
Cu1   O1    S    
C23   H3    S    
C22   H11   S    
C4    O3    A    
C12   C15   A    
C28   H6    S    
Cu2   O8    S    
C9    N2    A    
C1    O2    A    
C29   H7    S    
C24   H19   S    
C2    C3    S    
C7    H22   S    
Cu2   O2    S    
C7    C8    A    
C2    C26   A    
C20   H16   S    
C21   C22   S    
C8    N2    A    
Cu1   O7    S    
C12   C23   S    
C26   C27   A    
C22   H10   S    
C17   H1    S    
C6    C9    A    
C8    H23   S    
C14   C19   S    
C12   C19   A    
C7    N1    A    
C28   C29   A    
C24   O9    S    
C17   C18   A    
C14   O8    A    
C21   H13   S    
C13   O6    A    
C23   C25   S    
C24   H18   S    
C3    H12   S    
C11   C20   S    
C15   C25   S    
C20   H15   S    
C2    C30   A    
C25   H4    S    
C5    C26   S    
C22   H9    S    
Cu1   O3    S    
C13   C30   S    
C6    C11   S    
C10   H25   S    
C20   C21   S    
Cu2   O4    S    
Cu2   O6    S    
C21   H14   S    
C10   C11   S    
C5    H21   S    
C24   H17   S    
C1    C27   S    
C4    O4    A    
C18   C19   A    
C23   H2    S    
Cu1   O5    S    
C3    C5    S    
Cu2   N1    S    
C25   H5    S    
C3    H8    S    
C6    N1    A    
C18   H26   S    
Cu1   Cu2   S    
C13   O5    A    
C15   C16   A    
C16   C17   A    
C27   C28   A    
C1    O1    A    
