data_mof_unit_8185.cif
_audit_creation_date              2012-12-11T17:10:40-0500
_audit_creation_method            fapswitch 2.2
_symmetry_space_group_name_H-M    P1
_symmetry_Int_Tables_number       1
_space_group_crystal_system       triclinic
_cell_length_a                    15.052669
_cell_length_b                    14.965319
_cell_length_c                    14.968631
_cell_angle_alpha                 109.749253
_cell_angle_beta                  109.887573
_cell_angle_gamma                 108.90919
_cell_volume                      2591.31687672

loop_
_atom_site_label
_atom_site_type_symbol
_atom_type_description
_atom_site_fract_x
_atom_site_fract_y
_atom_site_fract_z
_atom_type_partial_charge
C1    C     C_R   0.205459 0.296796 0.194118 0.060536
C2    C     C_R   0.466661 0.556770 0.241433 0.059091
C3    C     C_R   0.497619 0.801233 0.591153 -0.175871
C4    C     C_R   0.599298 0.508384 0.805281 -0.077518
C5    C     C_R   0.706800 0.403430 0.408966 -0.130622
C6    C     C_R   0.433683 0.800422 0.499180 0.103230
C7    C     C_R   0.800600 0.437419 0.500376 0.068246
C8    C     C_R   0.544094 0.541323 0.216792 0.036264
C9    C     C_R   0.822746 0.826249 0.778708 0.115546
C10   C     C_R   0.131351 0.680121 0.345443 -0.153863
C11   C     C_R   0.119415 0.639442 0.414575 0.057772
C12   C     C_R   0.575455 0.574491 0.871421 -0.012173
C13   C     C_R   0.050532 0.526732 0.368641 -0.018838
C14   C     C_R   0.996715 0.456827 0.254275 -0.225414
C15   C     C_R   0.011875 0.497244 0.185864 0.617174
C16   C     C_R   0.437894 0.185842 0.406567 -0.206677
C17   C     C_R   0.079467 0.609920 0.232276 -0.352887
C18   C     C_R   0.930607 0.483012 0.442869 -0.022831
C19   C     C_R   0.893332 0.434915 0.497641 0.026947
C20   C     C_R   0.947027 0.391650 0.551721 -0.000184
C21   C     C_R   0.040271 0.397417 0.549641 -0.234119
C22   C     C_R   0.075399 0.441554 0.491426 0.038047
C23   C     C_R   0.459890 0.172240 0.496977 -0.066249
C24   C     C_R   0.019542 0.482808 0.435472 0.007990
C25   C     C_R   0.971321 0.379296 0.722116 0.031530
C26   C     C_R   0.928989 0.328136 0.773069 -0.147351
C27   C     C_R   0.823192 0.239730 0.712914 -0.062487
C28   C     C_R   0.276566 0.528595 0.590555 -0.162174
C29   C     C_R   0.758664 0.200904 0.601326 -0.116965
C30   C     C_R   0.799841 0.250096 0.549370 -0.163243
C31   C     C_R   0.906079 0.339580 0.608823 0.109228
C32   C     C_R   0.630478 0.526875 0.011227 0.078957
C33   C     C_R   0.608881 0.600919 0.984557 0.080176
C34   C     C_R   0.175526 0.453544 0.496961 0.073727
C35   C     C_R   0.588203 0.672868 0.052243 -0.192936
C36   C     C_R   0.579620 0.662597 0.138439 -0.196750
C37   C     C_R   0.587077 0.577641 0.154523 0.016444
C38   C     C_R   0.617133 0.512970 0.093298 0.013418
C39   C     C_3   0.720529 0.508282 0.135092 0.357123
C40   C     C_R   0.536349 0.275106 0.590408 0.526490
C41   C     C_3   0.735308 0.525581 0.046454 -0.587379
C42   C     C_R   0.372571 0.881752 0.393337 0.096481
C43   C     C_R   0.399025 0.878443 0.490794 -0.172350
C44   C     C_R   0.403447 0.959540 0.578786 0.511141
C45   C     C_R   0.401826 0.706114 0.409205 -0.105747
C46   C     C_R   0.410419 0.054215 0.576175 -0.280992
C47   C     C_R   0.413393 0.066499 0.488086 -0.044992
C48   C     C_R   0.379126 0.974243 0.391783 0.178390
C49   C     C_3   0.422483 0.960266 0.314503 -0.500004
C50   C     C_3   0.415112 0.857970 0.316028 -0.464750
C51   C     C_R   0.011280 0.117389 0.984468 0.104915
C52   C     C_R   0.187961 0.431219 0.406822 -0.119485
C53   C     C_R   0.112216 0.121827 0.016518 -0.175961
C54   C     C_R   0.118851 0.038347 0.942418 0.513746
C55   C     C_R   0.022013 0.941627 0.856078 -0.254300
C56   C     C_R   0.800920 0.499014 0.591942 -0.122155
C57   C     C_R   0.920851 0.931829 0.839765 -0.044259
C58   C     C_R   0.917666 0.025455 0.895930 0.125710
C59   C     C_3   0.850680 0.040888 0.948451 -0.578204
C60   C     C_3   0.954014 0.141617 0.047032 -0.124891
C61   C     C_R   0.512158 0.602666 0.807376 0.051129
C62   C     C_R   0.289223 0.199403 0.194871 -0.182211
C63   C     C_R   0.199139 0.201356 0.130236 0.072852
C64   C     C_R   0.562998 0.469978 0.249167 -0.166145
C65   C     C_R   0.719949 0.813288 0.747563 -0.146682
C66   C     C_R   0.814370 0.724218 0.752459 -0.143020
H1    H     H_    0.858682 0.530153 0.676685 0.097268
H2    H     H_    0.941445 0.370656 0.218109 0.148934
H3    H     H_    0.084727 0.366294 0.591805 0.147317
H4    H     H_    0.977639 0.357209 0.859661 0.121385
H5    H     H_    0.791130 0.201353 0.752965 0.122468
H6    H     H_    0.676615 0.132495 0.554983 0.115373
H7    H     H_    0.748748 0.218407 0.462507 0.115925
H8    H     H_    0.573319 0.733377 0.036971 0.139319
H9    H     H_    0.381807 0.124082 0.321226 0.141332
H10   H     H_    0.560407 0.716521 0.187606 0.142204
H11   H     H_    0.784365 0.576443 0.219897 0.084093
H12   H     H_    0.616208 0.438208 0.240736 0.157233
H13   H     H_    0.806054 0.605943 0.079172 0.173297
H14   H     H_    0.729554 0.454486 0.983391 0.233956
H15   H     H_    0.422660 0.120669 0.646483 0.183831
H16   H     H_    0.364543 0.943137 0.232942 0.192478
H17   H     H_    0.507602 0.025568 0.352417 0.194996
H18   H     H_    0.352848 0.782254 0.235445 0.187012
H19   H     H_    0.293900 0.565288 0.674477 0.118102
H20   H     H_    0.496034 0.864197 0.354677 0.201415
H21   H     H_    0.026391 0.872667 0.807072 0.157483
H22   H     H_    0.790689 0.060985 0.905093 0.198831
H23   H     H_    0.696484 0.874761 0.752770 0.117911
H24   H     H_    0.816264 0.974188 0.964691 0.196623
H25   H     H_    0.951505 0.218603 0.062620 0.186731
H26   H     H_    0.125017 0.376471 0.321717 0.115203
H27   H     H_    0.317131 0.143105 0.167653 0.138619
H28   H     H_    0.335006 0.670861 0.327876 0.109446
H29   H     H_    0.178525 0.358940 0.093668 0.099013
H30   H     H_    0.192110 0.432327 0.214853 0.098899
H31   H     H_    0.379832 0.563972 0.110094 0.108206
H32   H     H_    0.321794 0.550355 0.182878 0.076272
H33   H     H_    0.118932 0.710347 0.556322 0.116350
H34   H     H_    0.879371 0.705123 0.766109 0.099157
H35   H     H_    0.225266 0.689040 0.570570 0.112363
H36   H     H_    0.976332 0.466703 0.037693 0.299375
H37   H     H_    0.933021 0.616460 0.432588 0.103825
H38   H     H_    0.850359 0.495188 0.312495 0.175883
H39   H     H_    0.117347 0.488564 0.865859 0.094389
H40   H     H_    0.071109 0.540174 0.788913 0.104781
H41   H     H_    0.638551 0.347330 0.046532 0.340159
H42   H     H_    0.378142 0.876165 0.650411 0.311271
H43   H     H_    0.271781 0.123240 0.995970 0.312338
H44   H     H_    0.934588 0.131845 0.172833 0.118280
H45   H     H_    0.526203 0.856753 0.675784 0.125772
H46   H     H_    0.987589 0.056136 0.125780 0.134526
H47   H     H_    0.595714 0.232755 0.694272 0.315166
H48   H     H_    0.583142 0.765746 0.897595 0.094056
H49   H     H_    0.465890 0.710007 0.784637 0.102971
H50   H     H_    0.678081 0.346726 0.324506 0.119108
H51   H     H_    0.090875 0.643645 0.180874 0.129099
H52   H     H_    0.179234 0.766946 0.379271 0.144611
H53   H     H_    0.661298 0.487253 0.833509 0.166315
N1    N     N_R   0.291070 0.347930 0.293870 -0.059455
N2    N     N_R   0.497240 0.291100 0.443210 -0.066588
N3    N     N_R   0.347890 0.554050 0.556810 -0.044166
N4    N     N_R   0.554050 0.347900 0.556830 -0.070956
N5    N     N_R   0.291070 0.497250 0.443190 -0.045836
N6    N     N_R   0.497240 0.554030 0.706140 -0.059978
N7    N     N_R   0.347890 0.291110 0.293870 -0.044110
N8    N     N_R   0.445950 0.652100 0.443170 -0.043750
N9    N     N_3   0.157231 0.352399 0.151676 -0.215076
N10   N     N_3   0.397214 0.592888 0.191426 -0.228964
N11   N     N_3   0.175576 0.714114 0.530377 -0.213192
N12   N     N_R   0.708930 0.502750 0.556810 -0.041911
N13   N     N_3   0.877660 0.533805 0.396301 -0.213070
N14   N     N_3   0.079037 0.472259 0.784922 -0.217253
N15   N     N_3   0.989733 0.131189 0.145359 -0.203681
N16   N     N_3   0.503951 0.699147 0.849650 -0.224001
N17   N     N_R   0.502760 0.445970 0.293860 -0.048231
N18   N     N_R   0.652110 0.708890 0.706130 -0.048560
N19   N     N_R   0.708930 0.652070 0.706130 -0.044035
N20   N     N_R   0.445950 0.502780 0.293850 -0.059967
N21   N     N_R   0.502760 0.708900 0.556790 -0.040917
N22   N     N_R   0.652110 0.445950 0.443190 -0.041831
N23   N     N_R   0.554050 0.497220 0.706150 -0.052229
Ni1   Ni    Ni4+2 0.369690 0.500010 0.369700 0.197441
Ni2   Ni    Ni4+2 0.630310 0.499990 0.630300 0.236448
Ni3   Ni    Ni4+2 0.500000 0.369720 0.369720 0.205780
Ni4   Ni    Ni4+2 0.500000 0.630280 0.630280 0.194124
O1    O     O_3   0.957772 0.425336 0.074326 -0.777323
O2    O     O_3   0.702694 0.404626 0.120490 -0.761064
O3    O     O_3   0.408984 0.953803 0.670288 -0.752373
O4    O     O_3   0.216153 0.044826 0.955142 -0.757526
O5    O     O_3   0.597743 0.300147 0.696407 -0.798339

loop_
_geom_bond_atom_site_label_1
_geom_bond_atom_site_label_2
_ccdc_geom_bond_type
C25   C31   A    
C64   N17   A    
C35   H8    S    
H41   O2    S    
C6    C45   A    
C27   C29   A    
C16   H9    S    
C11   C13   A    
H47   O5    S    
C18   N13   S    
C35   C36   A    
C1    N9    S    
C16   N2    A    
C3    C6    A    
C41   H14   S    
C50   H18   S    
C39   C41   S    
C62   N7    A    
C53   C54   A    
C65   H23   S    
C26   C27   A    
C37   C38   A    
C18   C24   A    
C2    N20   A    
C39   H11   S    
C36   C37   A    
N6    Ni4   S    
C4    N23   A    
C30   C31   A    
C28   N3    A    
C10   C17   A    
C23   C40   A    
C2    N10   S    
H30   N9    S    
C18   C19   A    
C46   C47   A    
C66   H34   S    
C9    C66   A    
C53   C63   S    
C36   H10   S    
C59   H22   S    
N20   Ni1   S    
H29   N9    S    
H40   N14   S    
C19   C20   A    
C42   C43   A    
C3    H45   S    
N4    Ni2   S    
H48   N16   S    
N5    Ni1   S    
C32   C38   A    
C4    C12   A    
C29   C30   A    
C25   N14   S    
H37   N13   S    
N17   Ni3   S    
N12   N22   A    
N22   Ni3   S    
C29   H6    S    
C65   N18   A    
H35   N11   S    
C28   C34   A    
C59   C60   S    
C13   C14   A    
N1    Ni1   S    
C7    C56   A    
N17   N20   A    
C45   H28   S    
C1    C63   A    
N7    Ni3   S    
C44   C46   A    
C22   C34   S    
C23   C47   S    
N18   Ni4   S    
C54   O4    S    
N21   Ni4   S    
C5    C7    A    
C30   H7    S    
C42   C48   A    
C58   C59   S    
C40   O5    S    
C21   H3    S    
C51   C53   A    
C59   H24   S    
C49   H16   S    
C39   O2    S    
C43   C44   A    
C62   C63   A    
C10   H52   S    
H36   O1    S    
C46   H15   S    
C5    N22   A    
C47   C48   A    
C66   N19   A    
N6    N23   A    
C32   C41   S    
C4    H53   S    
C51   C58   A    
N8    Ni1   S    
N1    N7    A    
C42   C50   S    
C48   C49   S    
C8    C64   A    
C16   C23   A    
C7    C19   S    
C6    C43   S    
C55   C57   A    
C5    H50   S    
C26   H4    S    
N2    Ni3   S    
C22   C24   A    
H44   N15   S    
C8    C37   S    
N3    N5    A    
C11   N11   S    
C60   N15   S    
N23   Ni2   S    
C27   H5    S    
C61   N16   S    
H39   N14   S    
C60   H25   S    
C15   C17   A    
C40   N4    A    
C54   C55   A    
H33   N11   S    
C64   H12   S    
C2    C8    A    
H46   N15   S    
C41   H13   S    
C51   C60   S    
C17   H51   S    
C56   H1    S    
N18   N19   A    
C34   C52   A    
C44   O3    S    
C32   C33   A    
C49   H17   S    
H43   O4    S    
C25   C26   A    
H31   N10   S    
N19   Ni2   S    
C15   O1    S    
C12   C61   A    
C52   N5    A    
C57   C58   A    
C38   C39   S    
H49   N16   S    
C45   N8    A    
H32   N10   S    
C33   C35   A    
C9    C57   S    
N3    Ni4   S    
C55   H21   S    
C9    C65   A    
N2    N4    A    
C56   N12   A    
C52   H26   S    
C10   C11   A    
C50   H20   S    
H42   O3    S    
C20   C21   A    
C13   C24   S    
C49   C50   S    
H38   N13   S    
C62   H27   S    
C28   H19   S    
C14   H2    S    
C14   C15   A    
N8    N21   A    
C61   N6    A    
C3    N21   A    
C12   C33   S    
C21   C22   A    
C1    N1    A    
N12   Ni2   S    
C20   C31   S    
