data_mof_unit_43760.cif
_audit_creation_date              2012-12-11T15:15:58-0500
_audit_creation_method            fapswitch 2.2
_symmetry_space_group_name_H-M    P1
_symmetry_Int_Tables_number       1
_space_group_crystal_system       triclinic
_cell_length_a                    14.079932
_cell_length_b                    14.079935
_cell_length_c                    28.080281
_cell_angle_alpha                 89.86143
_cell_angle_beta                  89.861421
_cell_angle_gamma                 120.442418
_cell_volume                      4799.264628

loop_
_atom_site_label
_atom_site_type_symbol
_atom_type_description
_atom_site_fract_x
_atom_site_fract_y
_atom_site_fract_z
_atom_type_partial_charge
C1    C     C_R   0.565783 0.453595 0.566477 0.573936
C2    C     C_3   0.500484 0.990786 0.203382 0.051231
C3    C     C_3   0.512991 0.483153 0.197016 0.051685
C4    C     C_3   0.008732 0.506225 0.203326 0.052311
C5    C     C_3   0.941920 0.408199 0.769492 0.029601
C6    C     C_3   0.561776 0.553357 0.765957 0.028551
C7    C     C_3   0.472075 0.063710 0.769702 0.026820
C8    C     C_3   0.408193 0.941917 0.269493 0.029598
C9    C     C_3   0.553374 0.561784 0.265955 0.028553
C10   C     C_3   0.063719 0.472087 0.269703 0.026818
C11   C     C_3   0.897891 0.470399 0.740080 -0.132130
C12   C     C_R   0.545882 0.112157 0.566513 0.559072
C13   C     C_3   0.491026 0.445332 0.738447 -0.125968
C14   C     C_3   0.576620 0.100294 0.739305 -0.131039
C15   C     C_3   0.470389 0.897883 0.240081 -0.132130
C16   C     C_3   0.445346 0.491044 0.238447 -0.125973
C17   C     C_3   0.100289 0.576627 0.239304 -0.131033
C18   C     C_1   0.038584 0.522266 0.847459 0.014105
C19   C     C_1   0.444723 0.561115 0.837758 0.005146
C20   C     C_1   0.483601 0.962117 0.847424 0.018881
C21   C     C_1   0.522262 0.038579 0.347459 0.014104
C22   C     C_1   0.561116 0.444725 0.337758 0.005149
C23   C     C_R   0.887306 0.433964 0.566653 0.560010
C24   C     C_1   0.962118 0.483601 0.347424 0.018883
C25   C     C_1   0.967742 0.487115 0.652614 0.015163
C26   C     C_1   0.502853 0.492784 0.648222 0.015015
C27   C     C_1   0.516290 0.031270 0.652535 0.014652
C28   C     C_1   0.487112 0.967736 0.152615 0.015160
C29   C     C_1   0.492786 0.502855 0.148222 0.015018
C30   C     C_1   0.031269 0.516288 0.152535 0.014653
C31   C     C_R   0.599183 0.429139 0.427966 0.550165
C32   C     C_R   0.546226 0.112967 0.434355 0.546678
C33   C     C_R   0.887402 0.433823 0.434415 0.548272
C34   C     C_R   0.453596 0.565783 0.066477 0.573937
C35   C     C_R   0.429139 0.599183 0.927966 0.550165
C36   C     C_R   0.112968 0.546226 0.934355 0.546678
C37   C     C_R   0.433823 0.887403 0.934415 0.548273
C38   C     C_3   0.067615 0.607734 0.730109 -0.117861
C39   C     C_3   0.377497 0.502671 0.718304 -0.119382
C40   C     C_3   0.528825 0.926587 0.729824 -0.121342
C41   C     C_3   0.607731 0.067605 0.230110 -0.117860
C42   C     C_3   0.502660 0.377497 0.218305 -0.119384
C43   C     C_3   0.926577 0.528810 0.229823 -0.121343
C44   C     C_3   0.975237 0.577912 0.767625 -0.111784
C45   C     C_R   0.112157 0.545882 0.066513 0.559072
C46   C     C_3   0.385084 0.435276 0.760512 -0.111924
C47   C     C_3   0.598999 0.017509 0.766604 -0.110661
C48   C     C_3   0.577904 0.975225 0.267626 -0.111783
C49   C     C_3   0.435276 0.385098 0.260513 -0.111928
C50   C     C_3   0.017496 0.598994 0.266602 -0.110660
C51   C     C_1   0.065495 0.530756 0.888369 0.031315
C52   C     C_1   0.437186 0.577481 0.879089 0.027187
C53   C     C_1   0.466091 0.935193 0.888403 0.032732
C54   C     C_1   0.530754 0.065492 0.388369 0.031312
C55   C     C_1   0.577481 0.437186 0.379089 0.027187
C56   C     C_R   0.433964 0.887306 0.066653 0.560010
C57   C     C_1   0.935193 0.466091 0.388403 0.032731
C58   C     C_1   0.937756 0.467459 0.612087 0.033047
C59   C     C_1   0.527305 0.475201 0.609698 0.031813
C60   C     C_1   0.527670 0.061289 0.611949 0.032998
C61   C     C_1   0.467457 0.937753 0.112087 0.033046
C62   C     C_1   0.475202 0.527306 0.109698 0.031813
C63   C     C_1   0.061288 0.527668 0.111949 0.032998
C64   C     C_3   0.110928 0.544322 0.759857 -0.147802
C65   C     C_3   0.449256 0.611260 0.746333 -0.149226
C66   C     C_3   0.423986 0.890829 0.760549 -0.147172
C67   C     C_3   0.990793 0.500489 0.703381 0.051233
C68   C     C_3   0.544322 0.110922 0.259858 -0.147796
C69   C     C_3   0.611253 0.449246 0.246333 -0.149228
C70   C     C_3   0.890832 0.423976 0.260549 -0.147173
C71   C     C_3   0.017911 0.514232 0.796520 0.050385
C72   C     C_3   0.457111 0.543372 0.787662 0.046078
C73   C     C_3   0.494589 0.982430 0.796474 0.052887
C74   C     C_3   0.514227 0.017904 0.296521 0.050386
C75   C     C_3   0.543375 0.457114 0.287662 0.046080
C76   C     C_3   0.982430 0.494589 0.296474 0.052888
C77   C     C_3   0.033252 0.437655 0.732566 0.022221
C78   C     C_3   0.483149 0.512987 0.697016 0.051686
C79   C     C_3   0.554303 0.620108 0.724414 0.021047
C80   C     C_3   0.402701 0.973714 0.733438 0.022191
C81   C     C_3   0.437654 0.033250 0.232567 0.022221
C82   C     C_3   0.620116 0.554297 0.224413 0.021047
C83   C     C_3   0.973726 0.402703 0.233439 0.022185
C84   C     C_2   0.869871 0.295287 0.789806 0.222695
C85   C     C_2   0.666475 0.580106 0.790838 0.229444
C86   C     C_2   0.440762 0.141856 0.790621 0.227303
C87   C     C_2   0.295279 0.869873 0.289807 0.222697
C88   C     C_2   0.580139 0.666487 0.290836 0.229444
C89   C     C_3   0.506228 0.008734 0.703327 0.052310
C90   C     C_2   0.141876 0.440790 0.290622 0.227298
C91   C     C_2   0.067429 0.359257 0.714607 0.201453
C92   C     C_2   0.648957 0.725558 0.705702 0.209822
C93   C     C_2   0.291059 0.946712 0.716364 0.207198
C94   C     C_2   0.359260 0.067432 0.214607 0.201448
C95   C     C_2   0.725568 0.648941 0.205698 0.209821
C96   C     C_2   0.946738 0.291065 0.216367 0.207195
Cr1   Cr    Cr6+3 0.504830 0.254570 0.500510 1.074782
Cr2   Cr    Cr6+3 0.745430 0.250260 0.500510 1.065818
Cr3   Cr    Cr6+3 0.749740 0.495170 0.500510 1.072279
Cr4   Cr    Cr6+3 0.254570 0.504830 0.000510 1.074784
Cr5   Cr    Cr6+3 0.250260 0.745430 0.000510 1.065820
Cr6   Cr    Cr6+3 0.495170 0.749740 0.000510 1.072275
H1    H     H_    0.951030 0.635452 0.782687 0.134085
H2    H     H_    0.689813 0.119669 0.213337 0.140847
H3    H     H_    0.482346 0.302296 0.197846 0.152231
H4    H     H_    0.870375 0.551960 0.212550 0.128675
H5    H     H_    0.810056 0.439706 0.731567 0.102008
H6    H     H_    0.509323 0.377787 0.734591 0.101167
H7    H     H_    0.638993 0.186659 0.730002 0.099531
H8    H     H_    0.439692 0.810047 0.231568 0.102010
H9    H     H_    0.377811 0.509353 0.234592 0.101170
H10   H     H_    0.186651 0.639007 0.230000 0.099531
H11   H     H_    0.198614 0.574376 0.768438 0.098686
H12   H     H_    0.315198 0.359140 0.775954 0.130754
H13   H     H_    0.431753 0.679262 0.750171 0.099501
H14   H     H_    0.360414 0.804944 0.769920 0.095256
H15   H     H_    0.574380 0.198609 0.268439 0.098685
H16   H     H_    0.679247 0.431732 0.250171 0.099501
H17   H     H_    0.804950 0.360397 0.269921 0.095259
H18   H     H_    0.823807 0.226687 0.765950 0.094060
H19   H     H_    0.733724 0.583160 0.770635 0.095037
H20   H     H_    0.422883 0.192070 0.767221 0.095406
H21   H     H_    0.226677 0.823813 0.265951 0.094059
H22   H     H_    0.583200 0.733739 0.270632 0.095038
H23   H     H_    0.679393 0.034651 0.781098 0.135594
H24   H     H_    0.192085 0.422904 0.267222 0.095400
H25   H     H_    0.097499 0.321582 0.739495 0.106109
H26   H     H_    0.692255 0.795295 0.729376 0.107297
H27   H     H_    0.224449 0.921709 0.741838 0.107784
H28   H     H_    0.321581 0.097498 0.239496 0.106109
H29   H     H_    0.795306 0.692235 0.229372 0.107294
H30   H     H_    0.921747 0.224459 0.241842 0.107784
H31   H     H_    0.635441 0.951014 0.282689 0.134084
H32   H     H_    0.359136 0.315220 0.275956 0.130757
H33   H     H_    0.034629 0.679386 0.281095 0.135591
H34   H     H_    0.119682 0.689815 0.713336 0.140848
H35   H     H_    0.302300 0.482368 0.697844 0.152222
H36   H     H_    0.551988 0.870394 0.712551 0.128676
O1    O     O_R   0.479630 0.139450 0.552170 -0.486711
O2    O     O_R   0.360080 0.516200 0.048600 -0.494019
O3    O     O_R   0.156120 0.639920 0.048600 -0.496635
O4    O     O_R   0.483800 0.843880 0.048600 -0.499279
O5    O     O_R   0.478560 0.139320 0.448720 -0.503481
O6    O     O_R   0.860680 0.339240 0.448720 -0.494026
O7    O     O_R   0.660760 0.521440 0.448720 -0.470233
O8    O     O_R   0.139320 0.478560 0.948720 -0.503481
O9    O     O_R   0.339240 0.860680 0.948720 -0.494022
O10   O     O_R   0.521440 0.660760 0.948720 -0.470235
O11   O     O_R   0.515210 0.359960 0.452710 -0.483204
O12   O     O_R   0.860550 0.340180 0.552170 -0.484508
O13   O     O_R   0.640040 0.155250 0.452710 -0.503635
O14   O     O_R   0.844750 0.484790 0.452710 -0.520118
O15   O     O_R   0.359960 0.515210 0.952710 -0.483202
O16   O     O_R   0.155250 0.640040 0.952710 -0.503635
O17   O     O_R   0.484790 0.844750 0.952710 -0.520120
O18   O     O_3   0.666667 0.333333 0.499990 -0.301382
O19   O     O_3   0.333333 0.666667 0.999990 -0.301383
O20   O     O_2   0.863058 0.279789 0.832750 -0.476521
O21   O     O_2   0.676794 0.598374 0.833516 -0.466963
O22   O     O_2   0.434588 0.149054 0.833670 -0.467784
O23   O     O_R   0.659820 0.520370 0.552170 -0.481027
O24   O     O_2   0.279782 0.863056 0.332750 -0.476516
O25   O     O_2   0.598413 0.676807 0.333513 -0.466969
O26   O     O_2   0.149087 0.434635 0.333672 -0.467777
O27   O     O_2   0.061981 0.337571 0.672312 -0.484720
O28   O     O_2   0.677699 0.733775 0.664153 -0.477396
O29   O     O_2   0.274318 0.952354 0.674133 -0.482075
O30   O     O_2   0.337582 0.061994 0.172312 -0.484720
O31   O     O_2   0.733785 0.677680 0.164150 -0.477396
O32   O     O_2   0.952378 0.274322 0.174135 -0.482073
O33   O     O_R   0.139450 0.479630 0.052170 -0.486710
O34   O     O_R   0.340180 0.860550 0.052170 -0.484508
O35   O     O_R   0.520370 0.659820 0.052170 -0.481030
O36   O     O_R   0.516200 0.360080 0.548600 -0.494021
O37   O     O_R   0.639920 0.156120 0.548600 -0.496634
O38   O     O_R   0.843880 0.483800 0.548600 -0.499278

loop_
_geom_bond_atom_site_label_1
_geom_bond_atom_site_label_2
_ccdc_geom_bond_type
Cr4   O15   S    
C23   C58   S    
C45   O3    A    
C49   H32   S    
C39   H35   S    
C3    C42   S    
C65   C79   S    
C31   O7    A    
C14   H7    S    
C65   H13   S    
C64   C77   S    
C37   O17   A    
C67   C77   S    
C88   H22   S    
C36   O16   A    
C7    C73   S    
Cr6   O35   S    
C6    C72   S    
C32   O13   A    
C94   H28   S    
C6    C85   S    
C66   H14   S    
C44   C71   S    
C68   C81   S    
C22   C75   S    
C9    C16   S    
C5    C11   S    
C27   C60   T    
C1    C59   S    
C9    C88   S    
C13   C46   S    
C31   O11   A    
Cr1   O18   S    
C7    C86   S    
C10   C17   S    
C68   C74   S    
C92   H26   S    
C69   H16   S    
C34   C62   S    
Cr5   O34   S    
C64   C71   S    
C80   C89   S    
C3    C29   S    
Cr1   O5    S    
C32   O5    A    
C69   C82   S    
Cr4   O2    S    
Cr6   O10   S    
Cr3   O23   S    
Cr5   O3    S    
C19   C52   T    
C7    C14   S    
Cr5   O9    S    
Cr3   O38   S    
Cr4   O8    S    
C24   C57   T    
C40   H36   S    
C86   H20   S    
C49   C75   S    
C85   H19   S    
C82   C95   S    
C38   H34   S    
C40   C89   S    
C26   C59   T    
C46   C72   S    
C9    C82   S    
C96   H30   S    
C37   C53   S    
C28   C61   T    
Cr3   O7    S    
C1    O23   A    
C40   C66   S    
C30   C63   T    
C56   O34   A    
Cr4   O33   S    
C95   H29   S    
C39   C65   S    
C15   H8    S    
C19   C72   S    
C10   C76   S    
C15   C48   S    
C13   H6    S    
C93   H27   S    
C45   O33   A    
Cr6   O19   S    
C32   C54   S    
C44   H1    S    
C11   C67   S    
C18   C51   T    
C47   H23   S    
C41   C68   S    
C38   C64   S    
Cr2   O13   S    
C33   O6    A    
Cr2   O18   S    
C1    O36   A    
C46   H12   S    
C8    C81   S    
C39   C78   S    
C48   C74   S    
C48   H31   S    
C16   C49   S    
C47   C73   S    
C94   O30   D    
C5    C84   S    
C84   O20   D    
C78   C79   S    
C24   C76   S    
C23   O38   A    
Cr4   O19   S    
C40   C47   S    
C21   C74   S    
C45   C63   S    
C42   C69   S    
C10   C83   S    
C90   O26   D    
C25   C67   S    
C43   H4    S    
C27   C89   S    
C85   O21   D    
C14   C89   S    
C38   C44   S    
C70   C83   S    
C50   C76   S    
C68   H15   S    
C70   H17   S    
C84   H18   S    
Cr3   O18   S    
C3    C82   S    
C8    C74   S    
C90   H24   S    
C12   O1    A    
C11   C44   S    
Cr2   O37   S    
C26   C78   S    
C37   O9    A    
C2    C15   S    
C95   O31   D    
C93   O29   D    
C79   C92   S    
C14   C47   S    
C36   C51   S    
C91   H25   S    
C39   C46   S    
C4    C17   S    
C36   O8    A    
C23   O12   A    
C43   C70   S    
C12   O37   A    
C11   H5    S    
C25   C58   T    
C70   C76   S    
C5    C77   S    
C65   C72   S    
C17   H10   S    
C66   C80   S    
C96   O32   D    
Cr2   O12   S    
C18   C71   S    
C29   C62   T    
C77   C91   S    
C33   C57   S    
Cr1   O36   S    
Cr2   O6    S    
C91   O27   D    
C35   O15   A    
C20   C53   T    
C33   O14   A    
C17   C50   S    
C43   C50   S    
C22   C55   T    
C4    C43   S    
C8    C15   S    
C88   O25   D    
Cr6   O4    S    
Cr3   O14   S    
C41   H2    S    
C50   H33   S    
C8    C87   S    
C56   O4    A    
C2    C41   S    
C5    C71   S    
C34   O35   A    
C6    C13   S    
C87   H21   S    
C81   C94   S    
C66   C73   S    
C6    C79   S    
C21   C54   T    
C4    C83   S    
Cr5   O16   S    
C83   C96   S    
C34   O2    A    
C41   C48   S    
C20   C73   S    
C69   C75   S    
C35   O10   A    
C42   H3    S    
C13   C78   S    
C42   C49   S    
Cr5   O19   S    
C12   C60   S    
C92   O28   D    
C87   O24   D    
C38   C67   S    
C10   C90   S    
C35   C52   S    
Cr1   O11   S    
C56   C61   S    
C2    C81   S    
C2    C28   S    
C9    C75   S    
C31   C55   S    
C80   C93   S    
C86   O22   D    
Cr6   O17   S    
Cr1   O1    S    
C4    C30   S    
C3    C16   S    
C16   H9    S    
C64   H11   S    
C7    C80   S    
