data_mof_unit_16540.cif
_audit_creation_date              2012-12-11T15:39:21-0500
_audit_creation_method            fapswitch 2.2
_symmetry_space_group_name_H-M    P1
_symmetry_Int_Tables_number       1
_space_group_crystal_system       triclinic
_cell_length_a                    17.34455
_cell_length_b                    24.317846
_cell_length_c                    15.005596
_cell_angle_alpha                 89.909883
_cell_angle_beta                  125.724433
_cell_angle_gamma                 89.969455
_cell_volume                      5138.16114816

loop_
_atom_site_label
_atom_site_type_symbol
_atom_type_description
_atom_site_fract_x
_atom_site_fract_y
_atom_site_fract_z
_atom_type_partial_charge
C1    C     C_R   0.352329 0.347432 0.910676 -0.128235
C2    C     C_R   0.690071 0.375734 0.092906 -0.127549
C3    C     C_R   0.852329 0.847432 0.910676 -0.128236
C4    C     C_R   0.190071 0.875734 0.092906 -0.127549
C5    C     C_R   0.387031 0.685179 0.999642 -0.044233
C6    C     C_R   0.689415 0.638219 0.004457 -0.078846
C7    C     C_R   0.887031 0.185179 0.999642 -0.044234
C8    C     C_R   0.189415 0.138219 0.004457 -0.078846
C9    C     C_R   0.448756 0.497541 0.272274 -0.059894
C10   C     C_R   0.436095 0.497281 0.634906 -0.074657
C11   C     C_R   0.948756 0.997541 0.272274 -0.059895
C12   C     C_R   0.936095 0.997281 0.634906 -0.074658
C13   C     C_R   0.174140 0.500891 0.722630 0.032695
C14   C     C_R   0.801916 0.500592 0.368251 0.064847
C15   C     C_R   0.674140 0.000891 0.722630 0.032695
C16   C     C_R   0.301916 0.000592 0.368251 0.064847
C17   C     C_R   0.021402 0.552355 0.622214 0.145967
C18   C     C_R   0.927455 0.552066 0.532918 0.183022
C19   C     C_R   0.521402 0.052355 0.622214 0.145968
C20   C     C_R   0.427455 0.052066 0.532918 0.183022
C21   C     C_R   0.071284 0.502787 0.666018 0.032986
C22   C     C_R   0.881247 0.502300 0.484442 0.035051
C23   C     C_R   0.571284 0.002787 0.666018 0.032986
C24   C     C_R   0.381247 0.002300 0.484442 0.035050
C25   C     C_R   0.018219 0.453917 0.636548 -0.179104
C26   C     C_R   0.923047 0.453609 0.545189 -0.193689
C27   C     C_R   0.518219 0.953917 0.636548 -0.179104
C28   C     C_R   0.423047 0.953610 0.545189 -0.193688
C29   C     C_3   0.939291 0.602292 0.484195 -0.518586
C30   C     C_3   0.042051 0.602526 0.581258 -0.505369
C31   C     C_3   0.439291 0.102292 0.484195 -0.518586
C32   C     C_3   0.542051 0.102526 0.581258 -0.505369
C33   C     C_R   0.298227 0.771299 0.905071 -0.152021
C34   C     C_R   0.832315 0.696140 0.110853 -0.146438
C35   C     C_R   0.798226 0.271299 0.905071 -0.152021
C36   C     C_R   0.332316 0.196139 0.110853 -0.146438
C37   C     C_R   0.748632 0.316068 0.905676 -0.177334
C38   C     C_R   0.380290 0.240824 0.110014 -0.166158
C39   C     C_R   0.248632 0.816068 0.905676 -0.177334
C40   C     C_R   0.880289 0.740824 0.110014 -0.166158
C41   C     C_R   0.761474 0.331291 0.003793 0.138909
C42   C     C_R   0.360950 0.259578 0.010453 0.126231
C43   C     C_R   0.261474 0.831291 0.003793 0.138908
C44   C     C_R   0.860950 0.759578 0.010453 0.126231
C45   C     C_R   0.453200 0.654299 0.090004 0.251141
C46   C     C_R   0.596942 0.629740 0.910973 0.315841
C47   C     C_R   0.953200 0.154299 0.090004 0.251141
C48   C     C_R   0.096942 0.129740 0.910973 0.315842
C49   C     C_R   0.835401 0.307839 0.102955 -0.181369
C50   C     C_R   0.308558 0.226574 0.916680 -0.154250
C51   C     C_R   0.335401 0.807839 0.102955 -0.181369
C52   C     C_R   0.808558 0.726574 0.916680 -0.154250
C53   C     C_R   0.381728 0.762308 0.101845 -0.124252
C54   C     C_R   0.762413 0.680393 0.918651 -0.110829
C55   C     C_R   0.881728 0.262308 0.101845 -0.124252
C56   C     C_R   0.262412 0.180394 0.918651 -0.110830
C57   C     C_R   0.359762 0.741665 0.002339 0.176110
C58   C     C_R   0.764895 0.669624 0.012172 0.159517
C59   C     C_R   0.859762 0.241665 0.002339 0.176110
C60   C     C_R   0.264895 0.169624 0.012171 0.159517
C61   C     C_R   0.357096 0.522475 0.439089 -0.180431
C62   C     C_R   0.361315 0.522854 0.349538 -0.177439
C63   C     C_R   0.857096 0.022474 0.439089 -0.180431
C64   C     C_R   0.861315 0.022853 0.349538 -0.177439
C65   C     C_R   0.432876 0.492857 0.355458 0.152476
C66   C     C_R   0.426158 0.493248 0.533478 0.148765
C67   C     C_R   0.932877 0.992857 0.355458 0.152475
C68   C     C_R   0.926159 0.993249 0.533479 0.148766
C69   C     C_R   0.497201 0.460790 0.447186 -0.152085
C70   C     C_R   0.493798 0.461004 0.535784 -0.154772
C71   C     C_R   0.997204 0.960791 0.447188 -0.152085
C72   C     C_R   0.993801 0.961005 0.535786 -0.154773
C73   C     C_R   0.477070 0.452850 0.242489 -0.116852
C74   C     C_R   0.454069 0.452885 0.699714 -0.138879
C75   C     C_R   0.977070 0.952851 0.242489 -0.116852
C76   C     C_R   0.954069 0.952885 0.699715 -0.138879
C77   C     C_R   0.232396 0.546340 0.753000 -0.072792
C78   C     C_R   0.752686 0.545757 0.304415 -0.127257
C79   C     C_R   0.732396 0.046340 0.753000 -0.072792
C80   C     C_R   0.252686 0.045757 0.304415 -0.127257
C81   C     C_R   0.481145 0.544556 0.250929 -0.052821
C82   C     C_R   0.444674 0.543979 0.692371 -0.009434
C83   C     C_R   0.981145 0.044556 0.250929 -0.052821
C84   C     C_R   0.944674 0.043979 0.692371 -0.009434
C85   C     C_R   0.230561 0.454358 0.748518 -0.123322
C86   C     C_R   0.755247 0.454635 0.304726 -0.135862
C87   C     C_R   0.730561 0.954358 0.748518 -0.123322
C88   C     C_R   0.255247 0.954635 0.304726 -0.135862
C89   C     C_R   0.352255 0.652430 0.908649 -0.147366
C90   C     C_R   0.691406 0.621964 0.093951 -0.096385
C91   C     C_R   0.852255 0.152430 0.908649 -0.147365
C92   C     C_R   0.191406 0.121964 0.093951 -0.096385
C93   C     C_R   0.445087 0.348536 0.092983 -0.136710
C94   C     C_R   0.598132 0.374823 0.909044 -0.126378
C95   C     C_R   0.945087 0.848536 0.092983 -0.136711
C96   C     C_R   0.098132 0.874823 0.909044 -0.126378
C97   C     C_R   0.383701 0.316314 0.003683 0.062153
C98   C     C_R   0.688067 0.361942 0.001697 0.044534
C99   C     C_R   0.883701 0.816314 0.003683 0.062153
C100  C     C_R   0.188067 0.861942 0.001697 0.044534
H1    H     H_    0.312884 0.332766 0.827079 0.095952
H2    H     H_    0.747985 0.371521 0.178416 0.097989
H3    H     H_    0.812884 0.832766 0.827079 0.095953
H4    H     H_    0.247985 0.871521 0.178416 0.097989
H5    H     H_    0.930051 0.594251 0.405517 0.195921
H6    H     H_    0.060840 0.638643 0.635687 0.195079
H7    H     H_    0.430051 0.094251 0.405517 0.195921
H8    H     H_    0.560840 0.138643 0.635687 0.195079
H9    H     H_    0.898878 0.638080 0.483206 0.212812
H10   H     H_    0.090540 0.594479 0.556930 0.214371
H11   H     H_    0.398878 0.138080 0.483206 0.212812
H12   H     H_    0.590540 0.094479 0.556930 0.214371
H13   H     H_    0.281970 0.757379 0.827413 0.125620
H14   H     H_    0.841103 0.687182 0.186795 0.119124
H15   H     H_    0.781970 0.257379 0.827413 0.125620
H16   H     H_    0.341104 0.187182 0.186795 0.119124
H17   H     H_    0.695110 0.335356 0.828275 0.112933
H18   H     H_    0.423407 0.263755 0.185501 0.114776
H19   H     H_    0.195110 0.835356 0.828275 0.112933
H20   H     H_    0.923406 0.763756 0.185501 0.114777
H21   H     H_    0.850386 0.319590 0.180958 0.118735
H22   H     H_    0.297417 0.238372 0.840399 0.122435
H23   H     H_    0.350386 0.819590 0.180958 0.118735
H24   H     H_    0.797418 0.738372 0.840399 0.122435
H25   H     H_    0.426340 0.740321 0.178358 0.160481
H26   H     H_    0.717918 0.656612 0.844377 0.151624
H27   H     H_    0.926339 0.240321 0.178358 0.160481
H28   H     H_    0.217918 0.156612 0.844376 0.151624
H29   H     H_    0.301655 0.545299 0.435165 0.109366
H30   H     H_    0.311007 0.547111 0.277525 0.114232
H31   H     H_    0.801654 0.045298 0.435164 0.109366
H32   H     H_    0.811005 0.047110 0.277524 0.114233
H33   H     H_    0.553707 0.437987 0.453000 0.120359
H34   H     H_    0.547515 0.438261 0.608585 0.118263
H35   H     H_    0.053711 0.937989 0.453002 0.120360
H36   H     H_    0.047519 0.938263 0.608587 0.118263
H37   H     H_    0.469383 0.410093 0.255395 0.109163
H38   H     H_    0.440968 0.410287 0.674334 0.109686
H39   H     H_    0.969383 0.910093 0.255395 0.109163
H40   H     H_    0.940968 0.910287 0.674334 0.109686
H41   H     H_    0.213900 0.588838 0.749902 0.109606
H42   H     H_    0.757888 0.587296 0.332771 0.149970
H43   H     H_    0.713900 0.088838 0.749902 0.109606
H44   H     H_    0.257888 0.087296 0.332771 0.149970
H45   H     H_    0.209003 0.411827 0.737125 0.106894
H46   H     H_    0.765579 0.412652 0.333348 0.092428
H47   H     H_    0.709003 0.911827 0.737125 0.106894
H48   H     H_    0.265579 0.912652 0.333348 0.092428
H49   H     H_    0.310968 0.665940 0.824121 0.151079
H50   H     H_    0.750174 0.623814 0.179426 0.112286
H51   H     H_    0.810968 0.165940 0.824121 0.151079
H52   H     H_    0.250174 0.123814 0.179426 0.112286
H53   H     H_    0.494418 0.335183 0.177050 0.087418
H54   H     H_    0.571117 0.368435 0.824457 0.092588
H55   H     H_    0.994418 0.835183 0.177050 0.087419
H56   H     H_    0.071117 0.868435 0.824457 0.092588
H57   H     H_    0.052212 0.414990 0.673931 0.140234
H58   H     H_    0.887331 0.414444 0.515500 0.134808
H59   H     H_    0.552212 0.914990 0.673931 0.140234
H60   H     H_    0.387331 0.914444 0.515500 0.134808
N1    N     N_R   0.394180 0.396910 0.943210 -0.043231
N2    N     N_R   0.605820 0.396910 0.056790 -0.042964
N3    N     N_R   0.894180 0.896910 0.943210 -0.043231
N4    N     N_R   0.105820 0.896910 0.056790 -0.042964
N5    N     N_R   0.450950 0.603070 0.056740 -0.081099
N6    N     N_R   0.549050 0.603070 0.943260 -0.058243
N7    N     N_R   0.950950 0.103070 0.056740 -0.081099
N8    N     N_R   0.049050 0.103070 0.943260 -0.058243
N9    N     N_R   0.525650 0.471570 0.206150 -0.048544
N10   N     N_R   0.474350 0.471570 0.793850 -0.051686
N11   N     N_R   0.025650 0.971570 0.206150 -0.048544
N12   N     N_R   0.974350 0.971570 0.793850 -0.051686
N13   N     N_R   0.319480 0.528420 0.793810 -0.025903
N14   N     N_R   0.680520 0.528420 0.206190 -0.043335
N15   N     N_R   0.819480 0.028420 0.793810 -0.025903
N16   N     N_R   0.180520 0.028420 0.206190 -0.043335
N17   N     N_R   0.525640 0.528390 0.206120 -0.037856
N18   N     N_R   0.474360 0.528390 0.793880 -0.051020
N19   N     N_R   0.025640 0.028390 0.206120 -0.037856
N20   N     N_R   0.974360 0.028390 0.793880 -0.051020
N21   N     N_R   0.319490 0.471590 0.793840 -0.049116
N22   N     N_R   0.680510 0.471590 0.206160 -0.046656
N23   N     N_R   0.819490 0.971590 0.793840 -0.049116
N24   N     N_R   0.180510 0.971590 0.206160 -0.046656
N25   N     N_R   0.394130 0.603080 0.943110 -0.055127
N26   N     N_R   0.605870 0.603080 0.056890 -0.040953
N27   N     N_R   0.894130 0.103080 0.943110 -0.055127
N28   N     N_R   0.105870 0.103080 0.056890 -0.040953
N29   N     N_R   0.450990 0.396900 0.056840 -0.041544
N30   N     N_R   0.549010 0.396900 0.943160 -0.042217
N31   N     N_R   0.950990 0.896900 0.056840 -0.041544
N32   N     N_R   0.049010 0.896900 0.943160 -0.042217
Ni1   Ni    Ni4+2 0.434860 0.434850 0.869700 0.205810
Ni2   Ni    Ni4+2 0.565140 0.434850 0.130300 0.201797
Ni3   Ni    Ni4+2 0.934860 0.934850 0.869700 0.205810
Ni4   Ni    Ni4+2 0.065140 0.934850 0.130300 0.201797
Ni5   Ni    Ni4+2 0.565130 0.565140 0.130240 0.281674
Ni6   Ni    Ni4+2 0.434870 0.565140 0.869760 0.293255
Ni7   Ni    Ni4+2 0.065130 0.065140 0.130240 0.281675
Ni8   Ni    Ni4+2 0.934870 0.065140 0.869760 0.293255
Br1   Br    Br    0.572884 0.685641 0.206155 -0.552133
Br2   Br    Br    0.537200 0.679291 0.788381 -0.571742
Br3   Br    Br    0.072884 0.185641 0.206155 -0.552133
Br4   Br    Br    0.037199 0.179290 0.788381 -0.571742
C101  C     C_2   0.495398 0.597531 0.305059 0.576384
H61   H     H_    0.435170 0.619646 0.291783 -0.030281
O1    O     O_2   0.575641 0.614729 0.371580 -0.534902
C102  C     C_2   0.388209 0.593905 0.637966 0.557662
H62   H     H_    0.382967 0.611102 0.567960 0.022297
O2    O     O_2   0.346043 0.616302 0.670601 -0.585210
C103  C     C_2   0.995398 0.097531 0.305059 0.576383
H63   H     H_    0.935170 0.119646 0.291783 -0.030280
O3    O     O_2   0.075641 0.114729 0.371580 -0.534902
C104  C     C_2   0.888209 0.093905 0.637966 0.557664
H64   H     H_    0.882966 0.111101 0.567959 0.022296
O4    O     O_2   0.846043 0.116302 0.670601 -0.585211

loop_
_geom_bond_atom_site_label_1
_geom_bond_atom_site_label_2
_ccdc_geom_bond_type
C96   N32   A    
N8    N28   A    
C55   C59   A    
C73   H37   S    
C69   H33   S    
C51   H23   S    
C62   H30   S    
C19   C20   A    
C50   H22   S    
C90   H50   S    
N11   N19   A    
C2    N2    A    
C82   C102  S    
C5    C57   S    
C34   C58   A    
C66   C70   A    
C101  H61   S    
C65   C69   A    
C95   N31   A    
C12   C68   S    
C33   C39   A    
C87   H47   S    
C30   H10   S    
C34   C40   A    
C29   H9    S    
C35   C37   A    
C85   H45   S    
C38   C42   A    
C78   H42   S    
C71   H35   S    
C44   C99   S    
C95   C99   A    
C88   N24   A    
C94   C98   A    
C27   H59   S    
C96   C100  A    
C28   H60   S    
C14   C78   A    
C47   N7    A    
C12   C84   A    
C35   C59   A    
C79   H43   S    
C31   H11   S    
C41   C49   A    
C84   N20   A    
C6    C58   S    
N31   Ni4   S    
C21   C25   A    
N30   Ni1   S    
C61   C66   A    
C15   C79   A    
C64   H32   S    
C11   C67   S    
C102  H62   S    
C80   H44   S    
C48   N8    A    
C92   H52   S    
N23   Ni3   S    
C4    N4    A    
N26   Ni5   S    
C35   H15   S    
N22   Ni2   S    
C63   H31   S    
N25   Ni6   S    
C18   C22   A    
N21   Ni1   S    
C40   C44   A    
C95   H55   S    
C6    C46   A    
C61   H29   S    
C52   H24   S    
C44   C52   A    
C15   C23   S    
N18   Ni6   S    
C1    N1    A    
N2    Ni2   S    
C16   C24   S    
C45   Br1   S    
N17   Ni5   S    
C30   H6    S    
C17   C30   S    
C29   H5    S    
C61   C62   A    
C31   H7    S    
C19   C32   S    
C86   H46   S    
C7    C59   S    
C83   C103  S    
C52   C54   A    
C9    C65   S    
C10   C66   S    
C88   H48   S    
C13   C77   A    
C74   N10   A    
C47   Br3   S    
C64   C67   A    
C79   N15   A    
C10   C74   A    
C13   C21   S    
C43   C100  S    
C14   C86   A    
N1    N29   A    
C16   C88   A    
C42   C97   S    
C1    C97   A    
N7    N27   A    
C53   C57   A    
C104  H64   S    
C39   C43   A    
C90   N26   A    
N28   Ni7   S    
C11   C83   A    
C25   C26   A    
N24   Ni4   S    
C5    C45   A    
C93   H53   S    
C10   C82   A    
C32   H12   S    
C56   C60   A    
C16   C80   A    
C7    C47   A    
C19   C23   A    
C8    C48   A    
C94   N30   A    
C29   C30   S    
N20   Ni8   S    
N5    Ni5   S    
C74   H38   S    
C103  H63   S    
C86   N22   A    
N3    Ni3   S    
C68   C72   A    
C49   H21   S    
C82   N18   A    
C92   N28   A    
C17   C18   A    
N29   Ni2   S    
N1    Ni1   S    
N6    Ni6   S    
C18   C29   S    
C70   H34   S    
C80   N16   A    
C53   H25   S    
C42   C50   A    
C8    C92   A    
C77   N13   A    
C103  O3    D    
C55   H27   S    
C1    H1    S    
C23   C27   A    
C12   C76   A    
C25   H57   S    
C76   H40   S    
C73   N9    A    
C36   C38   A    
C36   H16   S    
C93   C97   A    
C7    C91   A    
N2    N30   A    
C84   C104  S    
C81   C101  S    
C54   C58   A    
C3    H3    S    
N16   N24   A    
C91   N27   A    
C63   C68   A    
C87   N23   A    
C85   N21   A    
C93   N29   A    
C46   N6    A    
C62   C65   A    
C40   H20   S    
N13   Ni6   S    
N6    N26   A    
N15   N23   A    
C89   N25   A    
C9    C73   A    
C31   C32   S    
N7    Ni7   S    
C24   C28   A    
N11   Ni4   S    
C36   C60   A    
C49   C55   A    
N10   Ni1   S    
N3    N31   A    
N4    Ni4   S    
N9    Ni2   S    
N14   N22   A    
C33   C57   A    
C34   H14   S    
C48   Br4   S    
C75   N11   A    
C33   H13   S    
C4    C100  A    
C83   N19   A    
N27   Ni8   S    
C32   H8    S    
C3    N3    A    
C14   C22   S    
N5    N25   A    
N32   Ni3   S    
C104  O4    D    
C81   N17   A    
C71   C72   A    
C11   C75   A    
C50   C56   A    
C8    C60   S    
C91   H51   S    
C94   H54   S    
C54   H26   S    
N12   N20   A    
C15   C87   A    
C96   H56   S    
N19   Ni7   S    
C43   C51   A    
C39   H19   S    
C4    H4    S    
C89   H49   S    
C37   H17   S    
C26   H58   S    
N9    N17   A    
C67   C71   A    
C56   H28   S    
C37   C41   A    
C69   C70   A    
N8    Ni8   S    
C77   H41   S    
N15   Ni8   S    
N14   Ni5   S    
C72   H36   S    
N13   N21   A    
C63   C64   A    
C38   H18   S    
C3    C99   A    
C46   Br2   S    
C6    C90   A    
C2    C98   A    
C102  O2    D    
C22   C26   A    
C76   N12   A    
C13   C85   A    
C27   C28   A    
C78   N14   A    
C2    H2    S    
C41   C98   S    
N12   Ni3   S    
C75   H39   S    
N16   Ni7   S    
C51   C53   A    
N4    N32   A    
C101  O1    D    
C45   N5    A    
C20   C24   A    
C5    C89   A    
C9    C81   A    
N10   N18   A    
C20   C31   S    
C17   C21   A    
