data_mof_unit_12369.cif
_audit_creation_date              2012-12-11T17:17:02-0500
_audit_creation_method            fapswitch 2.2
_symmetry_space_group_name_H-M    P1
_symmetry_Int_Tables_number       1
_space_group_crystal_system       triclinic
_cell_length_a                    6.947252
_cell_length_b                    13.380957
_cell_length_c                    14.688334
_cell_angle_alpha                 98.939875
_cell_angle_beta                  89.884031
_cell_angle_gamma                 90.213624
_cell_volume                      1348.84220972

loop_
_atom_site_label
_atom_site_type_symbol
_atom_type_description
_atom_site_fract_x
_atom_site_fract_y
_atom_site_fract_z
_atom_type_partial_charge
O1    O     O_R   0.354890 0.151580 0.148210 -0.535408
O2    O     O_R   0.645110 0.848420 0.851790 -0.535408
O3    O     O_R   0.682370 0.152980 0.336770 -0.539260
O4    O     O_R   0.317630 0.847020 0.663230 -0.539260
O5    O     O_R   0.854980 0.348430 0.351800 -0.537569
O6    O     O_R   0.145020 0.651570 0.648200 -0.537569
C1    C     C_R   0.513621 0.131574 0.366434 0.708584
C2    C     C_R   0.486379 0.868426 0.633566 0.708584
O7    O     O_R   0.684450 0.139580 0.148000 -0.541513
O8    O     O_R   0.315550 0.860420 0.852000 -0.541513
O9    O     O_R   0.857080 0.334940 0.161680 -0.543828
O10   O     O_R   0.142920 0.665060 0.838320 -0.543828
C3    C     C_R   0.515515 0.112697 0.114031 0.739081
C4    C     C_R   0.484485 0.887302 0.885969 0.739081
O11   O     O_R   0.352790 0.165070 0.338330 -0.535920
O12   O     O_R   0.647210 0.834930 0.661670 -0.535920
O13   O     O_3   0.522170 0.314120 0.254710 -0.367911
O14   O     O_3   0.477830 0.685880 0.745290 -0.367911
V1    V     V_3+5 0.796120 0.238110 0.249130 1.442110
V2    V     V_3+5 0.203880 0.761890 0.750870 1.442110
O15   O     O_R   0.186930 0.347040 0.163240 -0.521642
O16   O     O_R   0.813070 0.652960 0.836760 -0.521642
C5    C     C_R   0.018480 0.368017 0.133173 0.720938
C6    C     C_R   0.981520 0.631983 0.866827 0.720937
O17   O     O_R   0.184850 0.360440 0.352010 -0.539334
O18   O     O_R   0.815150 0.639560 0.647990 -0.539334
C7    C     C_R   0.015857 0.387312 0.385973 0.739153
C8    C     C_R   0.984143 0.612688 0.614027 0.739153
V3    V     V_3+5 0.296410 0.261900 0.250880 1.469885
V4    V     V_3+5 0.703590 0.738100 0.749120 1.469885
O19   O     O_3   0.020490 0.185890 0.245290 -0.374598
O20   O     O_3   0.979510 0.814110 0.754710 -0.374598
C9    C     C_1   0.005177 0.466905 0.466341 -0.186042
C10   C     C_1   0.994822 0.533095 0.533659 -0.186043
C11   C     C_3   0.139557 0.571306 0.016918 -0.214778
C12   C     C_3   0.860443 0.428694 0.983082 -0.214778
C13   C     C_3   0.975457 0.553667 0.085289 -0.278684
C14   C     C_3   0.024543 0.446333 0.914711 -0.278684
H1    H     H_    0.951656 0.597507 0.154960 0.125235
H2    H     H_    0.048344 0.402493 0.845040 0.125235
H3    H     H_    0.255046 0.629213 0.029904 0.149221
H4    H     H_    0.744954 0.370787 0.970096 0.149221
C15   C     C_3   0.008698 0.438091 0.062711 -0.074012
C16   C     C_3   0.991302 0.561909 0.937289 -0.074012
C17   C     C_3   0.168745 0.455976 0.995173 0.432412
C18   C     C_3   0.831255 0.544024 0.004827 0.432412
C19   C     C_3   0.326520 0.034519 0.488912 0.443478
C20   C     C_3   0.673480 0.965481 0.511088 0.443478
C21   C     C_3   0.379983 0.921475 0.471332 -0.237843
C22   C     C_3   0.620017 0.078524 0.528668 -0.237843
H5    H     H_    0.278672 0.858273 0.448341 0.146629
H6    H     H_    0.721328 0.141727 0.551659 0.146629
C23   C     C_3   0.494221 0.938201 0.562929 -0.123201
C24   C     C_3   0.505779 0.061799 0.437071 -0.123201
C25   C     C_3   0.436240 0.051247 0.581050 -0.208975
C26   C     C_3   0.563760 0.948753 0.418950 -0.208975
H7    H     H_    0.380494 0.092978 0.647003 0.125875
H8    H     H_    0.619506 0.907022 0.352997 0.125875
C27   C     C_1   0.504916 0.033106 0.033662 -0.185686
C28   C     C_1   0.495084 0.966894 0.966337 -0.185686
O21   O     O_3   0.347586 0.408064 0.990765 -0.650787
H9    H     H_    0.411622 0.426778 0.935426 0.289572
O22   O     O_3   0.652413 0.591935 0.009235 -0.650787
H10   H     H_    0.588378 0.573222 0.064574 0.289572
O23   O     O_3   0.142507 0.072927 0.478105 -0.636237
H11   H     H_    0.099872 0.041566 0.415778 0.301056
O24   O     O_3   0.857492 0.927073 0.521895 -0.636237
H12   H     H_    0.900127 0.958434 0.584222 0.301056

loop_
_geom_bond_atom_site_label_1
_geom_bond_atom_site_label_2
_ccdc_geom_bond_type
C14   H2    S    
O13   V3    S    
C12   H4    S    
O4    C2    A    
V1    O19   S    
C19   C21   S    
C7    C9    S    
O9    V1    S    
C22   C24   S    
C11   C13   S    
O3    C1    A    
O12   V4    S    
C5    C15   S    
C17   O21   S    
O7    C3    A    
C14   C17   S    
O5    C7    A    
O7    V1    S    
O6    C8    A    
O8    V2    S    
C21   H5    S    
C22   H6    S    
O3    V1    S    
O14   V4    S    
C20   C22   S    
C8    C10   S    
C27   C28   T    
C2    O12   A    
O2    C4    A    
C16   C18   S    
O11   V3    S    
C23   C25   S    
O15   C5    A    
O17   V3    S    
C20   C23   S    
C24   C26   S    
O24   H12   S    
O8    C4    A    
C1    O11   A    
O15   V3    S    
C13   C15   S    
C14   C16   S    
O10   V2    S    
O1    V3    S    
C9    C10   T    
C12   C18   S    
C11   C16   S    
C15   C17   S    
C19   C24   S    
O5    V1    S    
O18   V4    S    
C25   H7    S    
C6    C16   S    
O16   C6    A    
O1    C3    A    
C11   C17   S    
C4    C28   S    
C19   C25   S    
V2    O20   S    
C20   C26   S    
O16   V4    S    
C2    C23   S    
C3    C27   S    
O17   C7    A    
C21   C26   S    
O6    V2    S    
O10   C6    A    
O18   C8    A    
C22   C25   S    
C18   O22   S    
O2    V4    S    
C12   C14   S    
V3    O19   S    
V4    O20   S    
C21   C23   S    
O9    C5    A    
O13   V1    S    
C26   H8    S    
O14   V2    S    
C20   O24   S    
O21   H9    S    
C11   H3    S    
O22   H10   S    
O4    V2    S    
C13   H1    S    
O23   H11   S    
C12   C15   S    
C1    C24   S    
C13   C18   S    
C19   O23   S    
