data_mof_unit_31303.cif
_audit_creation_date              2013-03-05T16:30:42-0500
_audit_creation_method            fapswitch 2.2
_symmetry_space_group_name_H-M    P1
_symmetry_Int_Tables_number       1
_space_group_crystal_system       triclinic
_cell_length_a                    10.93184
_cell_length_b                    10.860684
_cell_length_c                    9.546911
_cell_angle_alpha                 90.017768
_cell_angle_beta                  89.764478
_cell_angle_gamma                 90.273541
_cell_volume                      1133.4560407

loop_
_atom_site_label
_atom_site_type_symbol
_atom_site_description
_atom_site_fract_x
_atom_site_fract_y
_atom_site_fract_z
_atom_type_partial_charge
O1    O     O_R   0.500000 0.319640 0.618810 -0.572210
O2    O     O_R   0.500010 0.319680 0.381230 -0.589620
C1    C     C_R   0.499433 0.262729 0.499850 0.813889
O3    O     O_R   0.321940 0.499980 0.618760 -0.592552
O4    O     O_R   0.321950 0.500020 0.381180 -0.587622
C2    C     C_R   0.265323 0.497794 0.500331 0.839379
Cu1   Cu    Cu3+1 0.499990 0.499980 0.640670 0.982423
Cu2   Cu    Cu3+1 0.500010 0.500020 0.359330 0.982622
O5    O     O_R   0.499990 0.680320 0.618770 -0.585215
O6    O     O_R   0.500000 0.680360 0.381190 -0.572252
O7    O     O_R   0.678050 0.499980 0.618820 -0.575884
O8    O     O_R   0.678060 0.500020 0.381240 -0.576078
C3    C     C_R   0.499393 0.737294 0.499878 0.827382
C4    C     C_R   0.734685 0.501078 0.499915 0.882522
C5    C     C_2   0.933448 0.485579 0.386538 -0.095285
C6    C     C_2   0.866714 0.507396 0.501758 -0.268640
C7    C     C_2   0.067264 0.492660 0.385562 -0.137479
C8    C     C_2   0.133316 0.490131 0.503355 -0.308954
H1    H     H_    0.112084 0.497706 0.283929 0.170869
C9    C     C_R   0.504733 0.062207 0.620837 0.049228
C10   C     C_R   0.497177 0.130152 0.498268 -0.103075
C11   C     C_R   0.487183 0.064508 0.371105 -0.168904
H2    H     H_    0.479941 0.112170 0.271857 0.179010
C12   C     C_R   0.486818 0.935342 0.371248 -0.132122
H3    H     H_    0.478801 0.887478 0.272204 0.195745
C13   C     C_R   0.496947 0.869908 0.498426 -0.073935
C14   C     C_R   0.504489 0.938045 0.620996 0.045025
C15   C     C_3   0.519743 0.928412 0.775791 -0.459630
C16   C     C_3   0.519579 0.070503 0.775933 0.177291
H4    H     H_    0.608572 0.886498 0.804627 0.243669
C17   C     C_R   0.561635 0.589470 0.073436 0.200143
N1    N     N_R   0.500780 0.500930 0.147930 -0.215211
C18   C     C_R   0.429710 0.419340 0.074730 -0.043953
H5    H     H_    0.374795 0.352320 0.130783 0.133978
C19   C     C_R   0.429434 0.419570 0.925861 -0.002321
H6    H     H_    0.374270 0.352770 0.870275 0.124370
N2    N     N_R   0.500780 0.500890 0.852020 -0.177876
C20   C     C_R   0.562497 0.588736 0.925835 0.202104
C21   C     C_3   0.696778 0.613588 0.918622 -0.531637
C22   C     C_3   0.695945 0.614880 0.077819 0.122022
H7    H     H_    0.718391 0.703619 0.869070 0.220522
H8    H     H_    0.749754 0.539036 0.124708 0.123736
H9    H     H_    0.889271 0.463498 0.288141 0.161661
N3    N     N_R   0.637351 0.124250 0.816115 0.173674
O9    O     O_R   0.738330 0.090988 0.754287 -0.330347
O10   O     O_R   0.641442 0.207202 0.914261 -0.357361
H10   H     H_    0.749013 0.534676 0.875161 0.209030
N4    N     N_R   0.723618 0.735959 0.137471 0.155576
O11   O     O_R   0.667962 0.834311 0.093515 -0.368884
O12   O     O_R   0.802775 0.745419 0.238337 -0.343394
H11   H     H_    0.907647 0.532757 0.600741 0.141421
H12   H     H_    0.091779 0.478715 0.605670 0.152755
H13   H     H_    0.438137 0.887072 0.827643 0.175785
H14   H     H_    0.439727 0.112355 0.830292 0.084607

loop_
_geom_bond_atom_site_label_1
_geom_bond_atom_site_label_2
_geom_bond_distance
_ccdc_geom_bond_type
O4    Cu2   1.956816 S    
C15   H13   1.111382 S    
C6    H11   1.082233 S    
N2    C20   1.363594 A    
C9    C14   1.348478 A    
C17   N1    1.365087 A    
C17   C20   1.409146 A    
Cu2   O8    1.958476 S    
N1    C18   1.369196 A    
N4    O12   1.300996 A    
C7    C8    1.339280 D    
Cu1   N2    2.017815 S    
C5    H9    1.084281 S    
Cu1   Cu2   2.685927 S    
C21   H7    1.110348 S    
C10   C11   1.412038 A    
C12   H3    1.082557 S    
Cu1   O7    1.956815 S    
C13   C14   1.386858 A    
O4    C2    1.292993 A    
O3    Cu1   1.958476 S    
C15   H4    1.110169 S    
N4    O11   1.302253 A    
C18   C19   1.421252 A    
C12   C13   1.412049 A    
O2    C1    1.290504 A    
C4    C6    1.444792 S    
C9    C16   1.492859 S    
C16   N3    1.463633 S    
C20   C21   1.492601 S    
C2    C8    1.445248 S    
O7    C4    1.290830 A    
C11   C12   1.402821 A    
C3    C13   1.440725 S    
C1    C10   1.440045 S    
C16   H14   1.112591 S    
C8    H12   1.082390 S    
C5    C6    1.339121 D    
Cu2   N1    2.018228 S    
Cu1   O5    1.969807 S    
C21   C22   1.519894 S    
C18   H5    1.081671 S    
C9    C10   1.386555 A    
C19   N2    1.369156 A    
O3    C2    1.291344 A    
C14   C15   1.491633 S    
C5    C7    1.464497 S    
O5    C3    1.292983 A    
C11   H2    1.083197 S    
C15   C16   1.543222 S    
N3    O10   1.300399 A    
C7    H1    1.086452 S    
C17   C22   1.493430 S    
O1    Cu1   1.969640 S    
C21   H10   1.111408 S    
C22   N4    1.463632 S    
Cu2   O6    1.969639 S    
O2    Cu2   1.969807 S    
N3    O9    1.302226 A    
C19   H6    1.081590 S    
O8    C4    1.293312 A    
C22   H8    1.109917 S    
O1    C1    1.292857 A    
O6    C3    1.290679 A    
