data_mof_unit_21997.cif
_audit_creation_date              2012-12-11T15:55:49-0500
_audit_creation_method            fapswitch 2.2
_symmetry_space_group_name_H-M    P1
_symmetry_Int_Tables_number       1
_space_group_crystal_system       triclinic
_cell_length_a                    11.357947
_cell_length_b                    11.14042
_cell_length_c                    18.674104
_cell_angle_alpha                 90.378694
_cell_angle_beta                  89.107291
_cell_angle_gamma                 58.925536
_cell_volume                      2023.25605263

loop_
_atom_site_label
_atom_site_type_symbol
_atom_type_description
_atom_site_fract_x
_atom_site_fract_y
_atom_site_fract_z
_atom_type_partial_charge
C1    C     C_R   0.360859 0.769455 0.398016 0.604410
C2    C     C_R   0.600199 0.117353 0.151139 0.011885
C3    C     C_R   0.368723 0.343231 0.155471 0.010245
C4    C     C_R   0.467522 0.237512 0.267747 -0.121064
C5    C     C_R   0.479789 0.236676 0.192906 -0.006158
C6    C     C_R   0.069274 0.657189 0.353705 -0.153246
C7    C     C_R   0.935608 0.744365 0.379770 0.433920
C8    C     C_R   0.635433 0.976918 0.159645 0.291325
C9    C     C_R   0.721184 0.873962 0.108166 0.552820
C10   C     C_R   0.272815 0.467703 0.191404 0.300289
C11   C     C_R   0.250609 0.467040 0.266294 0.078931
C12   C     C_R   0.387125 0.356620 0.385732 0.552901
C13   C     C_R   0.826336 0.756643 0.342127 0.263748
C14   C     C_R   0.854656 0.684873 0.276287 0.382780
C15   C     C_R   0.989159 0.597970 0.250743 0.469657
C16   C     C_R   0.103055 0.572941 0.292078 -0.063114
C17   C     C_R   0.359252 0.350955 0.306889 -0.011352
C18   C     C_R   0.960742 0.289429 0.198739 0.073756
C19   C     C_R   0.879460 0.244517 0.228490 0.160792
C20   C     C_R   0.863590 0.229607 0.299346 0.033326
C21   C     C_R   0.995178 0.329157 0.326710 0.265258
C22   C     C_R   0.043378 0.302607 0.251989 0.226006
C23   C     C_R   0.791609 0.369219 0.409406 0.582885
C24   C     C_3   0.779779 0.210404 0.207203 0.744871
C25   C     C_3   0.754017 0.199300 0.286231 0.155067
C26   C     C_R   0.888157 0.306021 0.347674 0.061906
C27   C     C_R   0.321991 0.880757 0.181848 -0.097124
C28   C     C_R   0.448247 0.782308 0.206150 0.026389
C29   C     C_R   0.464100 0.756385 0.279471 -0.088790
C30   C     C_R   0.224619 0.924578 0.302982 0.384326
C31   C     C_R   0.208776 0.942016 0.230036 0.346503
C32   C     C_3   0.517983 0.632216 0.183966 0.448233
C33   C     C_3   0.540259 0.601111 0.262505 0.487171
C34   C     C_R   0.340650 0.772927 0.602249 0.554555
C35   C     C_R   0.352839 0.828736 0.328612 -0.070726
C36   C     C_R   0.303400 0.315056 0.811264 -0.099503
C37   C     C_R   0.425972 0.221448 0.776943 0.062836
C38   C     C_R   0.441506 0.221340 0.704984 0.019789
C39   C     C_R   0.202949 0.402188 0.694925 0.401381
C40   C     C_R   0.187265 0.399694 0.769457 0.330919
C41   C     C_3   0.568469 0.186608 0.792064 0.468392
C42   C     C_3   0.587524 0.187649 0.711481 0.357784
C43   C     C_R   0.333815 0.319549 0.663373 -0.094260
C44   C     C_R   0.824856 0.321216 0.835460 0.011493
C45   C     C_R   0.370827 0.348985 0.594782 0.568144
C46   C     C_R   0.744102 0.451640 0.805068 -0.082988
C47   C     C_R   0.734934 0.463275 0.732020 -0.046883
C48   C     C_R   0.865770 0.212395 0.715481 0.208757
C49   C     C_R   0.876254 0.200831 0.790528 -0.058103
C50   C     C_3   0.736555 0.589066 0.814912 0.186369
C51   C     C_3   0.733948 0.597487 0.733897 0.851172
C52   C     C_R   0.800054 0.347716 0.685175 -0.014099
C53   C     C_R   0.280324 0.886531 0.817978 -0.075452
C54   C     C_R   0.190965 0.855673 0.784558 -0.062235
C55   C     C_R   0.198648 0.835598 0.711944 0.001618
C56   C     C_R   0.762775 0.376631 0.610070 0.525697
C57   C     C_R   0.356597 0.916918 0.699812 0.443628
C58   C     C_R   0.355095 0.929801 0.774483 0.427783
C59   C     C_3   0.159870 0.743638 0.799281 0.160603
C60   C     C_3   0.169132 0.719770 0.718644 0.417505
C61   C     C_R   0.294198 0.849253 0.669728 -0.066590
C62   C     C_R   0.978219 0.286483 0.118162 0.584995
C63   C     C_R   0.329757 0.299000 0.089332 0.491466
C64   C     C_R   0.300024 0.908616 0.106643 0.550213
C65   C     C_R   0.884326 0.308372 0.905292 0.582830
C66   C     C_R   0.294063 0.287407 0.885334 0.597933
C67   C     C_R   0.769499 0.907206 0.046972 0.232949
C68   C     C_R   0.268640 0.907585 0.894964 0.566988
C69   C     C_R   0.733507 0.047165 0.036440 0.220510
C70   C     C_R   0.647964 0.149715 0.086821 0.030930
Cr1   Cr    Cr6+3 0.601740 0.606840 0.505840 1.209861
Cr2   Cr    Cr6+3 0.291500 0.601560 0.495070 1.166579
Cr3   Cr    Cr6+3 0.606780 0.291630 0.499130 1.153695
Cr4   Cr    Cr6+3 0.062440 0.063060 0.008240 1.125223
Cr5   Cr    Cr6+3 0.062950 0.375000 0.998920 1.185956
Cr6   Cr    Cr6+3 0.374550 0.061770 0.992470 1.105865
H1    H     H_    0.545690 0.148482 0.296085 0.197186
H2    H     H_    0.653228 0.281751 0.308274 0.160977
H3    H     H_    0.448918 0.602028 0.158381 0.084651
H4    H     H_    0.602255 0.272993 0.692353 0.051618
H5    H     H_    0.936001 0.097365 0.812817 0.191633
H6    H     H_    0.826719 0.586670 0.838325 0.217851
H7    H     H_    0.240607 0.654784 0.830277 0.059535
H8    H     H_    0.256574 0.616238 0.700579 0.015486
H9    H     H_    0.609626 0.257742 0.072876 0.211824
H10   H     H_    0.142432 0.665219 0.380224 0.234263
O1    O     O_R   0.748670 0.497520 0.427970 -0.489105
O2    O     O_R   0.300170 0.471020 0.567120 -0.443943
O3    O     O_R   0.491630 0.259030 0.574940 -0.457628
O4    O     O_R   0.718640 0.304340 0.577850 -0.509942
O5    O     O_3   0.500010 0.500010 0.500020 -0.336912
O6    O     O_R   0.186620 0.923750 0.087000 -0.428622
O7    O     O_R   0.957350 0.194160 0.084660 -0.417473
O8    O     O_R   0.935120 0.407280 0.085350 -0.321684
O9    O     O_R   0.203800 0.365060 0.067090 -0.459608
O10   O     O_R   0.417470 0.174910 0.067830 -0.577387
O11   O     O_R   0.375160 0.946380 0.070880 -0.493877
O12   O     O_R   0.476470 0.723930 0.429450 -0.492472
O13   O     O_R   0.160500 0.919670 0.926690 -0.509634
O14   O     O_R   0.933140 0.190380 0.936050 -0.482848
O15   O     O_R   0.909010 0.403210 0.925030 -0.502153
O16   O     O_R   0.179590 0.361290 0.918480 -0.467642
O17   O     O_R   0.391360 0.170840 0.907510 -0.412755
O18   O     O_R   0.350950 0.942600 0.922260 -0.424111
O19   O     O_3   0.166650 0.166610 0.999880 -0.371428
O20   O     O_R   0.264730 0.744140 0.416740 -0.480763
O21   O     O_R   0.309440 0.472410 0.418220 -0.524169
O22   O     O_R   0.501630 0.260530 0.414310 -0.494945
O23   O     O_R   0.727920 0.305730 0.428950 -0.517324
O24   O     O_R   0.738670 0.496020 0.588600 -0.409824
O25   O     O_R   0.467190 0.722540 0.578350 -0.414034
O26   O     O_R   0.254720 0.742640 0.577370 -0.470413
O27   O     O_3   0.695054 0.842278 0.369841 -0.615818
H11   H     H_    0.628727 0.838314 0.337816 0.367943
F1    F     F_    0.752814 0.696423 0.236385 -0.512413
F2    F     F_    0.005277 0.538244 0.185151 -0.510157
O28   O     O_3   0.056514 0.363202 0.379555 -0.675444
H12   H     H_    0.146582 0.343346 0.361027 0.354776
O29   O     O_3   0.173674 0.273246 0.235293 -0.735295
H13   H     H_    0.200901 0.226239 0.187653 0.305048
F3    F     F_    0.846294 0.083639 0.170358 -0.548824
F4    F     F_    0.673748 0.324596 0.174316 -0.651684
O30   O     O_3   0.795153 0.061957 0.305603 -0.615160
H14   H     H_    0.777545 0.065531 0.357984 0.377279
F5    F     F_    0.111764 0.982474 0.347066 -0.573630
F6    F     F_    0.741744 0.743327 0.110704 -0.431602
F7    F     F_    0.082106 0.993804 0.205711 -0.555001
F8    F     F_    0.637551 0.590155 0.144626 -0.453571
O31   O     O_3   0.476749 0.531399 0.289751 -0.723148
H15   H     H_    0.376738 0.593317 0.282915 0.281189
O32   O     O_3   0.678753 0.531600 0.278356 -0.600420
H16   H     H_    0.688965 0.585428 0.317261 0.349404
F9    F     F_    0.095162 0.491438 0.654666 -0.457480
F10   F     F_    0.061608 0.481567 0.800297 -0.601784
O33   O     O_3   0.647147 0.054004 0.822399 -0.484842
H17   H     H_    0.742858 0.034193 0.823234 0.376522
O34   O     O_3   0.574133 0.292173 0.831052 -0.703226
H18   H     H_    0.516630 0.382887 0.806773 0.263794
F11   F     F_    0.912834 0.819746 0.441217 -0.526556
F12   F     F_    0.680113 0.056640 0.682333 -0.439592
O35   O     O_3   0.926346 0.090411 0.674794 -0.584173
H19   H     H_    0.937044 0.111897 0.624638 0.357401
O36   O     O_3   0.611496 0.688969 0.847450 -0.632637
H20   H     H_    0.623443 0.672272 0.899682 0.347079
F13   F     F_    0.616255 0.706235 0.706834 -0.513816
F14   F     F_    0.851020 0.586124 0.703873 -0.448504
F15   F     F_    0.433972 0.951661 0.658720 -0.497657
F16   F     F_    0.436558 0.971754 0.803504 -0.508395
O37   O     O_3   0.025953 0.801326 0.827412 -0.612732
H21   H     H_    0.017221 0.720837 0.841948 0.384876
O38   O     O_3   0.841837 0.801916 0.996481 -0.644534
H22   H     H_    0.820267 0.843069 0.948187 0.338857
F17   F     F_    0.044266 0.756325 0.688813 -0.404968
O39   O     O_3   0.773264 0.089597 0.976445 -0.641086
H23   H     H_    0.859094 0.008978 0.956259 0.349292
O40   O     O_3   0.573569 0.940694 0.211773 -0.631163
H24   H     H_    0.476770 0.017330 0.218521 0.311217
O41   O     O_3   0.193112 0.589584 0.153934 -0.617279
H25   H     H_    0.231559 0.576946 0.104529 0.331450

loop_
_geom_bond_atom_site_label_1
_geom_bond_atom_site_label_2
_ccdc_geom_bond_type
C44   C49   A    
Cr6   O18   S    
C7    C13   A    
C21   C26   A    
Cr2   O26   S    
C42   H4    S    
Cr6   O19   S    
C63   O9    A    
C34   O26   A    
C41   C42   S    
C66   O16   A    
C19   C20   A    
C31   F7    S    
Cr5   O9    S    
O30   H14   S    
C53   C54   A    
C1    C35   S    
C30   C35   A    
O40   H24   S    
C59   H7    S    
Cr3   O4    S    
C38   C42   S    
C30   C31   A    
C58   F16   S    
C20   C25   S    
C51   F13   S    
C49   H5    S    
O36   H20   S    
Cr1   O24   S    
C29   C33   S    
C18   C19   A    
C23   C26   S    
Cr4   O6    S    
C4    H1    S    
C53   C68   S    
C60   F17   S    
C21   O28   S    
C13   C14   A    
C54   C55   A    
O35   H19   S    
C11   C17   A    
C8    C9    A    
Cr1   O25   S    
C12   C17   S    
Cr5   O16   S    
O38   H22   S    
C65   O15   A    
C45   O3    A    
C10   O41   S    
C41   O34   S    
C1    O20   A    
C33   O32   S    
Cr6   O17   S    
C56   O4    A    
C30   F5    S    
C59   C60   S    
C23   O1    A    
C55   C60   S    
C34   O25   A    
Cr4   O7    S    
C44   C65   S    
C66   O17   A    
C28   C32   S    
C56   O24   A    
Cr2   O2    S    
C44   C46   A    
C54   C59   S    
C59   O37   S    
C39   C43   A    
C22   O29   S    
C23   O23   A    
Cr1   O12   S    
C27   C31   A    
C25   H2    S    
C42   F12   S    
O33   H17   S    
C45   O2    A    
C24   C25   S    
Cr3   O5    S    
C10   C11   A    
C39   C40   A    
C12   O22   A    
Cr2   O5    S    
C18   C62   S    
Cr3   O22   S    
Cr4   O14   S    
C51   F14   S    
Cr6   O11   S    
C40   F10   S    
C63   O10   A    
C34   C61   S    
C67   C69   A    
C14   F1    S    
C47   C52   A    
C9    C67   A    
C37   C38   A    
C43   C45   S    
C11   C16   S    
C14   C15   A    
Cr2   O21   S    
C36   C40   A    
O29   H13   S    
C24   F4    S    
C50   C51   S    
C57   C61   A    
C25   O30   S    
O39   H23   S    
C6    C7    A    
Cr1   O1    S    
C4    C17   A    
C48   C49   A    
Cr2   O20   S    
Cr5   O19   S    
C57   F15   S    
O41   H25   S    
C2    C5    S    
C64   O6    A    
O32   H16   S    
C41   O33   S    
C50   O36   S    
C50   H6    S    
O27   H11   S    
C39   F9    S    
C33   O31   S    
C46   C50   S    
C46   C47   A    
C28   C29   A    
C18   C22   A    
C64   O11   A    
C2    C8    A    
C68   O18   A    
C65   O14   A    
C4    C5    A    
C3    C5    A    
C1    O12   A    
C12   O21   A    
C47   C51   S    
C53   C58   A    
Cr3   O23   S    
Cr4   O13   S    
C3    C63   S    
O34   H18   S    
C29   C35   A    
O28   H12   S    
C9    F6    S    
C6    H10   S    
C32   C33   S    
C32   F8    S    
C62   O8    A    
C19   C24   S    
O31   H15   S    
C68   O13   A    
Cr3   O3    S    
C38   C43   A    
C3    C10   A    
C2    C70   A    
O37   H21   S    
Cr6   O10   S    
C32   H3    S    
C7    F11   S    
C60   H8    S    
C57   C58   A    
C20   C26   A    
C67   O38   S    
C55   C61   A    
C24   F3    S    
C48   O35   S    
C36   C66   S    
C37   C41   S    
C69   C70   A    
C8    O40   S    
C27   C64   S    
C6    C16   A    
C52   C56   S    
C48   C52   A    
Cr1   O5    S    
C36   C37   A    
C62   O7    A    
C27   C28   A    
Cr5   O15   S    
C15   F2    S    
C69   O39   S    
C21   C22   A    
C70   H9    S    
C13   O27   S    
C15   C16   A    
Cr5   O8    S    
Cr4   O19   S    
