data_mof_unit_45092.cif
_audit_creation_date              2012-12-10T18:18:18-0500
_audit_creation_method            fapswitch 2.2
_symmetry_space_group_name_H-M    P1
_symmetry_Int_Tables_number       1
_space_group_crystal_system       triclinic
_cell_length_a                    14.010328
_cell_length_b                    14.984626
_cell_length_c                    15.632794
_cell_angle_alpha                 88.971715
_cell_angle_beta                  66.560131
_cell_angle_gamma                 88.847221
_cell_volume                      3010.32284331

loop_
_atom_site_label
_atom_site_type_symbol
_atom_type_description
_atom_site_fract_x
_atom_site_fract_y
_atom_site_fract_z
_atom_type_partial_charge
C1    C     C_R   0.499507 0.673368 0.498884 0.884849
C2    C     C_R   0.500425 0.326665 0.501276 0.886838
C3    C     C_R   0.376913 0.503738 0.106790 -0.229935
C4    C     C_R   0.623785 0.516927 0.893716 -0.231122
C5    C     C_R   0.302323 0.505518 0.069294 -0.243370
C6    C     C_R   0.698254 0.509834 0.931188 -0.243148
C7    C     C_R   0.547678 0.183572 0.553303 -0.277098
C8    C     C_R   0.452080 0.816594 0.447155 -0.276096
C9    C     C_R   0.502185 0.231102 0.501348 -0.058335
C10   C     C_R   0.497656 0.768988 0.499029 -0.059699
C11   C     C_R   0.456753 0.188039 0.449596 -0.252415
C12   C     C_R   0.543118 0.812037 0.550840 -0.254542
C13   C     C_R   0.456879 0.095973 0.448072 0.092383
C14   C     C_R   0.542984 0.904141 0.552463 0.093145
C15   C     C_R   0.500863 0.046483 0.501064 0.032299
C16   C     C_R   0.498939 0.953629 0.499490 0.032387
C17   C     C_R   0.546198 0.090185 0.555669 0.077076
C18   C     C_R   0.453575 0.909971 0.444848 0.076689
C19   C     C_R   0.413668 0.053870 0.393446 -0.237083
C20   C     C_R   0.586270 0.946340 0.607084 -0.237889
C21   C     C_R   0.412030 0.960584 0.389442 0.098761
C22   C     C_R   0.587790 0.039667 0.611060 0.098434
C23   C     C_R   0.434144 0.500114 0.676843 0.863642
C24   C     C_R   0.565738 0.499079 0.323300 0.866540
C25   C     C_R   0.184287 0.431944 0.542738 -0.068708
C26   C     C_R   0.815054 0.568898 0.458801 -0.045733
C27   C     C_R   0.219641 0.568620 0.457893 -0.079022
C28   C     C_R   0.780008 0.431860 0.542941 -0.083664
C29   C     C_R   0.118998 0.571374 0.456575 -0.023906
C30   C     C_R   0.880135 0.429778 0.545407 -0.025304
C31   C     C_R   0.050363 0.500835 0.500562 0.047734
C32   C     C_R   0.948782 0.500308 0.501410 0.046938
C33   C     C_R   0.083315 0.430774 0.544027 -0.008187
C34   C     C_R   0.915690 0.570533 0.458274 -0.004108
C35   C     C_R   0.084618 0.642145 0.413546 0.172006
C36   C     C_R   0.913872 0.359846 0.589894 0.170923
C37   C     C_R   0.983338 0.640745 0.415223 -0.263197
C38   C     C_R   0.015165 0.361226 0.588203 -0.254209
C39   C     C_R   0.391365 0.502127 0.779664 -0.103086
C40   C     C_R   0.608218 0.499740 0.220695 -0.101760
C41   C     C_R   0.256115 0.510541 0.936052 -0.239695
C42   C     C_R   0.742872 0.488340 0.064442 -0.241799
C43   C     C_R   0.284041 0.509814 0.839249 0.099718
C44   C     C_R   0.713468 0.481059 0.161208 0.097281
C45   C     C_R   0.465372 0.497435 0.818800 -0.300918
C46   C     C_R   0.535883 0.517823 0.181481 -0.298108
C47   C     C_R   0.438826 0.506959 0.913815 0.091990
C48   C     C_R   0.561691 0.510084 0.086399 0.093429
C49   C     C_R   0.332130 0.508627 0.973246 0.147857
C50   C     C_R   0.668031 0.502752 0.027065 0.146732
C51   C     C_R   0.516030 0.511104 0.951099 0.073416
C52   C     C_R   0.484390 0.509852 0.049175 0.073367
H1    H     H_    0.220822 0.502335 0.115839 0.153452
H2    H     H_    0.779935 0.509971 0.884787 0.149924
H3    H     H_    0.210578 0.378881 0.576377 0.134444
H4    H     H_    0.788579 0.622294 0.425706 0.132474
H5    H     H_    0.275089 0.620648 0.425582 0.140787
H6    H     H_    0.724556 0.379848 0.575307 0.141184
H7    H     H_    0.957323 0.694539 0.382021 0.143515
H8    H     H_    0.040828 0.307879 0.622189 0.141886
H9    H     H_    0.458424 0.538934 0.226473 0.159851
H10   H     H_    0.544900 0.483625 0.773673 0.165078
H11   H     H_    0.174575 0.513783 0.982894 0.132660
H12   H     H_    0.823891 0.478854 0.017993 0.132604
H13   H     H_    0.347648 0.495086 0.181372 0.150820
H14   H     H_    0.653824 0.526739 0.819265 0.149131
H15   H     H_    0.582031 0.220468 0.592555 0.137797
H16   H     H_    0.417689 0.779792 0.407865 0.137761
H17   H     H_    0.422759 0.226691 0.409074 0.149973
H18   H     H_    0.577168 0.773354 0.591292 0.149510
H19   H     H_    0.381761 0.095621 0.353945 0.139186
H20   H     H_    0.618359 0.904737 0.646570 0.139202
N1    N     N_R   0.249980 0.499930 0.499960 -0.098473
N2    N     N_R   0.750020 0.500070 0.500040 -0.099925
O1    O     O_R   0.419720 0.632140 0.499980 -0.626220
O2    O     O_R   0.580280 0.367860 0.500020 -0.626988
O3    O     O_R   0.580270 0.632160 0.499970 -0.623989
O4    O     O_R   0.419730 0.367840 0.500030 -0.623285
O5    O     O_R   0.373870 0.499980 0.632250 -0.614505
O6    O     O_R   0.626130 0.500020 0.367750 -0.615510
O7    O     O_R   0.534420 0.500000 0.632240 -0.617213
O8    O     O_R   0.465580 0.500000 0.367760 -0.615123
Zn1   Zn    Zn3+2 0.392800 0.499980 0.500010 0.928331
Zn2   Zn    Zn3+2 0.607200 0.500020 0.499990 0.927262
C53   C     C_3   0.153071 0.720604 0.366794 -0.429608
C54   C     C_3   0.237533 0.695733 0.271288 -0.351259
C55   C     C_3   0.195310 0.696665 0.195016 -0.837038
H21   H     H_    0.138002 0.642777 0.207946 0.257060
H22   H     H_    0.157358 0.761812 0.192455 0.249454
H23   H     H_    0.260298 0.685942 0.126285 0.255729
H24   H     H_    0.301620 0.744231 0.252337 0.214799
H25   H     H_    0.271901 0.628925 0.273941 0.213455
H26   H     H_    0.105771 0.777956 0.358411 0.198551
H27   H     H_    0.189503 0.745409 0.413023 0.153412
C56   C     C_3   0.844259 0.282899 0.639417 -0.430821
C57   C     C_3   0.760957 0.310835 0.734405 -0.345564
C58   C     C_3   0.804891 0.313575 0.809422 -0.841472
H28   H     H_    0.840531 0.248122 0.815265 0.249945
H29   H     H_    0.864446 0.366262 0.792584 0.259733
H30   H     H_    0.741122 0.328360 0.877831 0.254677
H31   H     H_    0.726560 0.377187 0.729601 0.215586
H32   H     H_    0.696706 0.262233 0.756197 0.214167
H33   H     H_    0.806857 0.256709 0.594557 0.152773
H34   H     H_    0.890864 0.225772 0.649369 0.197946
C59   C     C_3   0.795439 0.449404 0.195493 -0.398184
C60   C     C_3   0.857427 0.527692 0.207624 -0.321931
C61   C     C_3   0.946678 0.494455 0.232899 -0.895387
H35   H     H_    0.916690 0.452629 0.297274 0.275123
H36   H     H_    0.003339 0.454575 0.175061 0.251188
H37   H     H_    0.987456 0.552348 0.245117 0.248145
H38   H     H_    0.890366 0.567085 0.141608 0.212467
H39   H     H_    0.805507 0.572399 0.263297 0.232159
H40   H     H_    0.760914 0.409565 0.260803 0.217392
H41   H     H_    0.849952 0.402471 0.143787 0.188883
C62   C     C_3   0.197308 0.516741 0.804539 -0.408084
C63   C     C_3   0.187584 0.611895 0.770516 -0.307520
C64   C     C_3   0.099958 0.619211 0.736012 -0.871525
H42   H     H_    0.114878 0.573097 0.677239 0.272007
H43   H     H_    0.024270 0.602702 0.793260 0.250091
H44   H     H_    0.095226 0.688461 0.711367 0.246875
H45   H     H_    0.170820 0.659178 0.828912 0.211451
H46   H     H_    0.261448 0.632280 0.713195 0.238832
H47   H     H_    0.208316 0.466591 0.749959 0.215508
H48   H     H_    0.121745 0.499717 0.861969 0.182241
C65   C     C_3   0.367641 0.915150 0.326594 -0.427037
C66   C     C_3   0.334817 0.978274 0.263771 -0.348579
C67   C     C_3   0.295491 0.927484 0.200963 -0.895179
H49   H     H_    0.355634 0.879388 0.157086 0.266079
H50   H     H_    0.223274 0.891828 0.243976 0.267785
H51   H     H_    0.277195 0.975306 0.154341 0.251154
H52   H     H_    0.271007 0.023648 0.307614 0.220632
H53   H     H_    0.402534 0.018494 0.218609 0.226245
H54   H     H_    0.427797 0.868250 0.280366 0.198462
H55   H     H_    0.298900 0.876082 0.371443 0.196330
C68   C     C_3   0.632020 0.085448 0.673835 -0.425666
C69   C     C_3   0.665360 0.022844 0.736644 -0.348779
C70   C     C_3   0.703555 0.074502 0.799775 -0.894306
H56   H     H_    0.774635 0.111818 0.757164 0.266382
H57   H     H_    0.642159 0.121400 0.844151 0.264533
H58   H     H_    0.723232 0.027076 0.845901 0.251379
H59   H     H_    0.598121 0.982030 0.781613 0.225938
H60   H     H_    0.729777 0.977986 0.692807 0.220472
H61   H     H_    0.700500 0.124789 0.628943 0.195865
H62   H     H_    0.571617 0.132176 0.720062 0.199135

loop_
_geom_bond_atom_site_label_1
_geom_bond_atom_site_label_2
_ccdc_geom_bond_type
C65   H55   S    
C4    H14   S    
C55   H21   S    
C66   C67   S    
C57   H32   S    
C27   C29   A    
C34   C37   A    
C1    O3    A    
C19   H19   S    
C56   C57   S    
O6    Zn2   S    
C28   N2    A    
O2    Zn2   S    
C58   H28   S    
C68   C69   S    
C47   C49   A    
C60   H39   S    
C44   C59   S    
C40   C46   A    
C70   H57   S    
C63   H46   S    
C59   H40   S    
C35   C37   A    
C58   H30   S    
C54   H24   S    
C64   H43   S    
C60   C61   S    
C62   C63   S    
C18   C21   A    
C45   H10   S    
C63   C64   S    
C15   C17   A    
C24   O8    A    
C26   N2    A    
C69   H60   S    
C24   O6    A    
C53   H26   S    
O4    Zn1   S    
C26   C34   A    
C7    C17   A    
C61   H35   S    
C31   C33   A    
C40   C44   A    
C39   C45   A    
C43   C62   S    
C48   C50   A    
C57   H31   S    
C41   C43   A    
C5    C49   A    
C3    H13   S    
C42   C44   A    
C6    H2    S    
C41   C49   A    
C58   H29   S    
C56   H33   S    
C60   H38   S    
C45   C47   A    
C70   H58   S    
C46   C48   A    
C62   H47   S    
C63   H45   S    
C13   C19   A    
C4    C51   A    
C51   C52   A    
C1    O1    A    
C14   C20   A    
C59   H41   S    
C4    C6    A    
C27   H5    S    
C64   H44   S    
N2    Zn2   S    
C54   C55   S    
C39   C43   A    
C46   H9    S    
O3    Zn2   S    
C53   C54   S    
C8    C18   A    
C32   C34   A    
C67   H50   S    
C69   H59   S    
C2    O4    A    
C53   H27   S    
C31   C32   A    
C66   H53   S    
C57   C58   S    
C6    C50   A    
C9    C11   A    
C37   H7    S    
C10   C12   A    
C42   C50   A    
C38   H8    S    
C16   C18   A    
C68   H62   S    
C12   C14   A    
C8    H16   S    
C13   C15   A    
C65   C66   S    
C61   H37   S    
C14   C16   A    
C41   H11   S    
C21   C65   S    
C67   H49   S    
C42   H12   S    
O7    Zn2   S    
C2    O2    A    
C56   H34   S    
C59   C60   S    
C65   H54   S    
C7    C9    A    
C12   H18   S    
C35   C53   S    
C62   H48   S    
C23   O7    A    
C19   C21   A    
C1    C10   S    
C33   C38   A    
C20   C22   A    
C69   C70   S    
C3    C5    A    
C26   H4    S    
C47   C51   A    
C3    C52   A    
C11   H17   S    
C28   H6    S    
C70   H56   S    
C29   C35   A    
C17   C22   A    
C30   C36   A    
C22   C68   S    
C28   C30   A    
C5    H1    S    
C67   H51   S    
C29   C31   A    
C54   H25   S    
C64   H42   S    
C30   C32   A    
C11   C13   A    
C36   C56   S    
O1    Zn1   S    
C61   H36   S    
C66   H52   S    
C23   C39   S    
C36   C38   A    
C68   H61   S    
C24   C40   S    
C25   H3    S    
C25   N1    A    
C7    H15   S    
O5    Zn1   S    
C48   C52   A    
C8    C10   A    
O8    Zn1   S    
C55   H23   S    
C55   H22   S    
C20   H20   S    
C23   O5    A    
C27   N1    A    
C2    C9    S    
N1    Zn1   S    
C15   C16   A    
C25   C33   A    
