data_mof_unit_67455.cif
_audit_creation_date              2013-03-05T15:40:58-0500
_audit_creation_method            fapswitch 2.2
_symmetry_space_group_name_H-M    P1
_symmetry_Int_Tables_number       1
_space_group_crystal_system       triclinic
_cell_length_a                    10.905288
_cell_length_b                    8.697629
_cell_length_c                    7.660083
_cell_angle_alpha                 102.372896
_cell_angle_beta                  94.959417
_cell_angle_gamma                 93.966055
_cell_volume                      704.151381726

loop_
_atom_site_label
_atom_site_type_symbol
_atom_site_description
_atom_site_fract_x
_atom_site_fract_y
_atom_site_fract_z
_atom_type_partial_charge
O1    O     O_R   0.509140 0.286130 0.619770 -0.565552
O2    O     O_R   0.485380 0.256770 0.308360 -0.592178
C1    C     C_R   0.494043 0.201138 0.455405 0.869153
O3    O     O_R   0.329570 0.514650 0.655700 -0.554341
O4    O     O_R   0.305810 0.485300 0.344290 -0.562020
C2    C     C_R   0.260596 0.497585 0.500645 0.807537
Cu1   Cu    Cu3+1 0.514070 0.517380 0.684380 1.144402
Cu2   Cu    Cu3+1 0.485930 0.482620 0.315620 1.122784
O5    O     O_R   0.514620 0.743230 0.691640 -0.569069
O6    O     O_R   0.490860 0.713870 0.380230 -0.527954
O7    O     O_R   0.694190 0.514700 0.655710 -0.524577
O8    O     O_R   0.670430 0.485350 0.344300 -0.539331
C3    C     C_R   0.508092 0.799010 0.545733 0.809576
C4    C     C_R   0.738468 0.494730 0.500156 0.906170
C5    C     C_3   0.082003 0.440650 0.682980 0.224302
C6    C     C_3   0.933078 0.408738 0.664600 0.315283
H1    H     H_    0.126698 0.734177 0.643644 0.166754
C7    C     C_3   0.081726 0.667013 0.513885 0.071867
C8    C     C_3   0.051554 0.376522 0.321139 0.131401
C9    C     C_3   0.121623 0.493541 0.501708 -0.180925
C10   C     C_3   0.876417 0.490177 0.505124 -0.278765
C11   C     C_3   0.936443 0.669261 0.517324 0.199861
C12   C     C_3   0.907651 0.388550 0.319897 0.078525
H2    H     H_    0.880014 0.458731 0.221249 0.215494
C13   C     C_2   0.482909 0.033530 0.437720 -0.186673
H3    H     H_    0.429335 0.963862 0.318240 0.196768
C14   C     C_2   0.527996 0.967304 0.569355 -0.017200
N1    N     N_2   0.464720 0.456420 0.038520 -0.005998
N2    N     N_2   0.535280 0.543580 0.961480 0.092337
N3    N     N_R   0.131742 0.563265 0.848744 0.159632
O9    O     O_R   0.083151 0.694251 0.906374 -0.254995
O10   O     O_R   0.233428 0.544356 0.940088 -0.286860
N4    N     N_R   0.135554 0.765221 0.399657 0.166718
O11   O     O_R   0.130476 0.917352 0.444379 -0.397427
O12   O     O_R   0.196599 0.710324 0.265737 -0.212526
N5    N     N_R   0.877208 0.734888 0.370089 0.137939
O13   O     O_R   0.775730 0.803998 0.391833 -0.344732
O14   O     O_R   0.928470 0.738964 0.224568 -0.175167
N6    N     N_3   0.602275 0.057313 0.727519 -0.450279
H4    H     H_    0.560899 0.039690 0.840633 0.280352
H5    H     H_    0.688926 0.013104 0.732154 0.264136
N7    N     N_3   0.431414 0.304108 0.938925 -0.405619
H6    H     H_    0.380947 0.245179 0.018131 0.217129
H7    H     H_    0.365661 0.312017 0.835405 0.258310
N8    N     N_R   0.547984 0.701719 0.046595 0.278841
O15   O     O_R   0.450546 0.779736 0.045550 -0.324371
O16   O     O_R   0.655423 0.779949 0.059172 -0.233948
N9    N     N_3   0.142271 0.297048 0.704891 -0.613353
H8    H     H_    0.117236 0.260386 0.818604 0.200021
H9    H     H_    0.127226 0.198809 0.600950 0.263851
N10   N     N_3   0.896075 0.235841 0.615061 -0.504966
H10   H     H_    0.918503 0.181976 0.721799 0.235954
H11   H     H_    0.938115 0.173112 0.509958 0.282952
N11   N     N_R   0.879437 0.464352 0.837995 0.149395
O17   O     O_R   0.868129 0.611801 0.903243 -0.220034
O18   O     O_R   0.806687 0.365989 0.896705 -0.321736
N12   N     N_3   0.915488 0.777313 0.685727 -0.459172
H12   H     H_    0.821176 0.786101 0.695908 0.260732
H13   H     H_    0.954044 0.891158 0.686777 0.244001
N13   N     N_3   0.087858 0.422871 0.158329 -0.420364
H14   H     H_    0.021823 0.372279 0.051827 0.237671
H15   H     H_    0.164437 0.365185 0.116481 0.244396
N14   N     N_3   0.082918 0.212328 0.309486 -0.557102
H16   H     H_    0.178933 0.209892 0.325104 0.211025
H17   H     H_    0.056308 0.142253 0.181289 0.294703
N15   N     N_R   0.833469 0.233984 0.247575 0.171041
O19   O     O_R   0.846946 0.153812 0.087415 -0.313604
O20   O     O_R   0.741744 0.185792 0.325885 -0.310175

loop_
_geom_bond_atom_site_label_1
_geom_bond_atom_site_label_2
_geom_bond_distance
_ccdc_geom_bond_type
O4    Cu2   1.996453 S    
C8    C12   1.579342 S    
C12   H2    1.103720 S    
N14   H17   1.043924 S    
C6    C10   1.636059 S    
Cu1   N2    2.076399 S    
C8    N13   1.467425 S    
C13   C14   1.338902 D    
C2    C9    1.514280 S    
N15   O20   1.299848 A    
C8    C9    1.624597 S    
C6    N10   1.487704 S    
Cu2   O8    2.002948 S    
C11   N12   1.469906 S    
N5    O14   1.295484 A    
H1    C7    1.094073 S    
Cu1   Cu2   2.763330 S    
N6    H5    1.045170 S    
C8    N14   1.477370 S    
O1    Cu1   1.961407 S    
C10   C11   1.627690 S    
C3    C14   1.434640 S    
N13   H15   1.042701 S    
N3    O10   1.298730 A    
N1    N2    1.305598 D    
N12   H12   1.044956 S    
O4    C2    1.320436 A    
N8    O16   1.298899 A    
N7    H7    1.039034 S    
C5    N9    1.484742 S    
N13   H14   1.038520 S    
O3    Cu1   2.002949 S    
C4    C10   1.505041 S    
N9    H9    1.028303 S    
N5    O13   1.301804 A    
N4    O12   1.294460 A    
O8    C4    1.333879 A    
N15   O19   1.300655 A    
C7    C9    1.584922 S    
C10   C12   1.580575 S    
N3    O9    1.296932 A    
Cu2   N1    2.076399 S    
O7    C4    1.305956 A    
N11   O18   1.302413 A    
N12   H13   1.046771 S    
N2    N8    1.381967 S    
C7    N4    1.476330 S    
N14   H16   1.045761 S    
C5    C6    1.617350 S    
N8    O15   1.300083 A    
C1    C13   1.430480 S    
N4    O11   1.300155 A    
C12   N15   1.490490 S    
C5    N3    1.504803 S    
O3    C2    1.324034 A    
N7    H6    1.041962 S    
C6    N11   1.496152 S    
N1    N7    1.386122 S    
N6    H4    1.045358 S    
Cu1   O5    1.952776 S    
C11   N5    1.488627 S    
O5    C3    1.308819 A    
N11   O17   1.291332 A    
N9    H8    1.040698 S    
Cu1   O7    1.996453 S    
O2    C1    1.316538 A    
N10   H11   1.032574 S    
C13   H3    1.080305 S    
C7    C11   1.588254 S    
Cu2   O6    1.961407 S    
O2    Cu2   1.952777 S    
N10   H10   1.045584 S    
C14   N6    1.439794 S    
C5    C9    1.635966 S    
O1    C1    1.306613 A    
O6    C3    1.314591 A    
