data_mof_unit_54667.cif
_audit_creation_date              2012-12-11T14:13:32-0500
_audit_creation_method            fapswitch 2.2
_symmetry_space_group_name_H-M    P1
_symmetry_Int_Tables_number       1
_space_group_crystal_system       triclinic
_cell_length_a                    17.550268
_cell_length_b                    17.150661
_cell_length_c                    17.417401
_cell_angle_alpha                 90.099209
_cell_angle_beta                  90.014506
_cell_angle_gamma                 90.034051
_cell_volume                      5242.6060505

loop_
_atom_site_label
_atom_site_type_symbol
_atom_type_description
_atom_site_fract_x
_atom_site_fract_y
_atom_site_fract_z
_atom_type_partial_charge
C1    C     C_R   0.582792 0.326923 0.141114 0.514019
C2    C     C_R   0.196324 0.108904 0.598344 0.542174
C3    C     C_3   0.799033 0.377443 0.103627 -0.141199
C4    C     C_3   0.611324 0.197102 0.994244 -0.128736
C5    C     C_3   0.201389 0.378655 0.896668 -0.137547
C6    C     C_3   0.388177 0.806010 0.990879 -0.230488
C7    C     C_3   0.794537 0.617261 0.883216 -0.185048
C8    C     C_3   0.113229 0.303606 0.507066 -0.176723
C9    C     C_3   0.695852 0.122132 0.604052 -0.143151
C10   C     C_3   0.910905 0.707071 0.517594 -0.259476
C11   C     C_3   0.298995 0.879035 0.596030 -0.132382
C12   C     C_3   0.116617 0.699693 0.494026 -0.237438
C13   C     C_R   0.913513 0.178689 0.636833 0.534354
C14   C     C_3   0.698924 0.876401 0.396450 -0.155350
C15   C     C_3   0.889652 0.305647 0.489039 -0.173451
C16   C     C_3   0.298722 0.138384 0.407999 -0.128884
C17   C     C_R   0.804813 0.895820 0.605993 0.535718
C18   C     C_R   0.085560 0.175411 0.360906 0.520740
C19   C     C_R   0.195144 0.892049 0.397163 0.496196
C20   C     C_R   0.914216 0.822765 0.361983 0.491220
C21   C     C_R   0.803807 0.108746 0.401345 0.541328
C22   C     C_R   0.606206 0.699411 0.092075 0.675693
C23   C     C_R   0.319032 0.592376 0.131002 0.547090
C24   C     C_R   0.394020 0.300733 0.091992 0.614533
C25   C     C_R   0.696333 0.609235 0.098044 0.538593
C26   C     C_R   0.677921 0.412317 0.134919 0.542539
C27   C     C_R   0.606043 0.300472 0.908304 0.612475
C28   C     C_R   0.322412 0.412590 0.864681 0.538427
C29   C     C_R   0.393762 0.699275 0.908557 0.683767
C30   C     C_R   0.672618 0.582435 0.859703 0.533547
C31   C     C_R   0.106248 0.199344 0.592046 0.669864
C32   C     C_R   0.819064 0.091992 0.631330 0.534121
C33   C     C_R   0.893704 0.804027 0.604627 0.598928
C34   C     C_R   0.179309 0.911991 0.633519 0.536757
C35   C     C_R   0.106800 0.800968 0.406248 0.665859
C36   C     C_R   0.413777 0.678816 0.136620 0.539373
C37   C     C_R   0.820566 0.909836 0.366822 0.539818
C38   C     C_R   0.894179 0.199088 0.406691 0.608121
C39   C     C_R   0.182201 0.092220 0.370404 0.543775
C40   C     C_R   0.647884 0.352445 0.178702 -0.261234
C41   C     C_R   0.682380 0.688744 0.107853 -0.313883
C42   C     C_R   0.347259 0.654635 0.173063 -0.280725
C43   C     C_R   0.318065 0.311777 0.108714 -0.314018
C44   C     C_R   0.638665 0.638135 0.813272 -0.244585
C45   C     C_R   0.682374 0.311022 0.892715 -0.320727
C46   C     C_R   0.352418 0.352671 0.820812 -0.261018
C47   C     C_R   0.303920 0.391160 0.098961 0.539650
C48   C     C_R   0.317673 0.688403 0.892435 -0.314707
C49   C     C_R   0.150827 0.851562 0.676882 -0.254002
C50   C     C_R   0.182332 0.188290 0.608405 -0.316680
C51   C     C_R   0.847159 0.154128 0.673784 -0.273448
C52   C     C_R   0.819863 0.818964 0.626568 -0.290663
C53   C     C_R   0.153107 0.152442 0.326605 -0.271185
C54   C     C_R   0.182074 0.812867 0.387771 -0.282008
C55   C     C_R   0.849662 0.848736 0.323616 -0.242887
C56   C     C_R   0.817992 0.188026 0.390666 -0.310628
C57   C     C_2   0.722908 0.635462 0.700389 -0.176957
C58   C     C_R   0.579583 0.669760 0.856234 0.518943
C59   C     C_2   0.287684 0.813316 0.835916 -0.148853
C60   C     C_2   0.268422 0.356490 0.710311 -0.144679
C61   C     C_2   0.714927 0.183978 0.839721 -0.170569
C62   C     C_2   0.731923 0.356100 0.288997 -0.145050
C63   C     C_2   0.287783 0.186866 0.164710 -0.161515
C64   C     C_2   0.271370 0.645066 0.289549 -0.131448
C65   C     C_2   0.714826 0.814994 0.161707 -0.154828
C66   C     C_2   0.236684 0.146654 0.216714 -0.146071
C67   C     C_2   0.785583 0.313572 0.336477 -0.164351
C68   C     C_2   0.767948 0.857507 0.210566 -0.154480
C69   C     C_R   0.696467 0.390666 0.902679 0.556545
C70   C     C_2   0.217944 0.684968 0.339936 -0.160653
C71   C     C_2   0.235482 0.855293 0.786501 -0.145151
C72   C     C_2   0.764928 0.687418 0.648810 -0.104653
C73   C     C_2   0.767917 0.143804 0.788699 -0.135818
C74   C     C_2   0.214851 0.314114 0.662266 -0.147720
C75   C     C_2   0.660625 0.662048 0.735741 -0.119035
C76   C     C_2   0.263801 0.750721 0.874750 -0.151392
C77   C     C_2   0.315490 0.315991 0.755694 -0.132028
C78   C     C_2   0.737023 0.248137 0.877647 -0.142815
C79   C     C_2   0.684826 0.315645 0.243505 -0.134112
C80   C     C_R   0.417244 0.326917 0.858695 0.515548
C81   C     C_2   0.263968 0.249610 0.126208 -0.142566
C82   C     C_2   0.311079 0.688481 0.240023 -0.110557
C83   C     C_2   0.737052 0.751420 0.123002 -0.146925
C84   C     C_2   0.190800 0.188648 0.262109 -0.133282
C85   C     C_2   0.763284 0.250155 0.374839 -0.141031
C86   C     C_2   0.816725 0.816655 0.253707 -0.102078
C87   C     C_2   0.238481 0.751470 0.374756 -0.143238
C88   C     C_2   0.189941 0.814278 0.739979 -0.129999
C89   C     C_2   0.768993 0.764071 0.665004 -0.125233
C90   C     C_2   0.811456 0.186954 0.742033 -0.111111
C91   C     C_R   0.303566 0.608965 0.902303 0.539624
C92   C     C_2   0.237142 0.250528 0.623989 -0.154292
C93   C     C_3   0.507205 0.272163 0.233183 -0.227992
C94   C     C_3   0.820105 0.592218 0.141364 -0.128346
C95   C     C_3   0.439315 0.799587 0.192209 -0.210355
C96   C     C_3   0.180728 0.408898 0.143718 -0.112599
C97   C     C_3   0.562393 0.796082 0.813263 -0.224070
C98   C     C_3   0.821943 0.406574 0.863367 -0.121886
C99   C     C_3   0.492931 0.271323 0.767041 -0.225906
C100  C     C_3   0.178614 0.592079 0.861972 -0.109646
C101  C     C_3   0.016317 0.766050 0.735318 -0.162700
C102  C     C_R   0.085034 0.826064 0.640562 0.500611
C103  C     C_3   0.320717 0.091798 0.640111 -0.113175
C104  C     C_3   0.937130 0.301647 0.688195 -0.213777
C105  C     C_3   0.676308 0.908433 0.636329 -0.122240
C106  C     C_3   0.011125 0.229085 0.267686 -0.218396
C107  C     C_3   0.303149 0.925809 0.332923 -0.084594
C108  C     C_3   0.932674 0.694288 0.325883 -0.235733
C109  C     C_3   0.679772 0.091219 0.358635 -0.113449
C110  C     C_3   0.611144 0.803830 0.007669 -0.212391
C111  C     C_3   0.196235 0.624227 0.103379 -0.146228
C112  C     C_3   0.386607 0.197289 0.006077 -0.133907
H1    H     H_    0.750290 0.581555 0.717184 0.185865
H2    H     H_    0.845306 0.326777 0.327286 0.177265
H3    H     H_    0.349720 0.766919 0.024045 0.096435
H4    H     H_    0.354873 0.855667 0.967981 0.140331
H5    H     H_    0.854158 0.595976 0.883836 0.148573
H6    H     H_    0.779199 0.633183 0.943184 0.166039
H7    H     H_    0.792968 0.670033 0.846208 0.114313
H8    H     H_    0.071476 0.327237 0.465467 0.216647
H9    H     H_    0.151606 0.263196 0.475306 0.099743
H10   H     H_    0.146812 0.353857 0.528544 0.128907
H11   H     H_    0.717877 0.149967 0.550723 0.139374
H12   H     H_    0.684505 0.167418 0.648222 0.106647
H13   H     H_    0.755715 0.918204 0.223146 0.168135
H14   H     H_    0.640580 0.094417 0.589534 0.153522
H15   H     H_    0.920655 0.643373 0.512658 0.158804
H16   H     H_    0.953154 0.736450 0.481802 0.232817
H17   H     H_    0.852407 0.719748 0.496002 0.090541
H18   H     H_    0.355073 0.905050 0.581700 0.157129
H19   H     H_    0.273203 0.857935 0.541425 0.143262
H20   H     H_    0.309514 0.828936 0.634938 0.115808
H21   H     H_    0.074888 0.677359 0.536304 0.216834
H22   H     H_    0.154318 0.742188 0.524079 0.115974
H23   H     H_    0.151174 0.648994 0.475462 0.147353
H24   H     H_    0.158596 0.668800 0.333013 0.188366
H25   H     H_    0.642562 0.902191 0.409989 0.158189
H26   H     H_    0.721903 0.851199 0.450619 0.148802
H27   H     H_    0.689605 0.829292 0.353619 0.117059
H28   H     H_    0.932766 0.330141 0.528701 0.189138
H29   H     H_    0.851652 0.266356 0.522517 0.086662
H30   H     H_    0.856006 0.355617 0.467324 0.130154
H31   H     H_    0.353320 0.117107 0.432237 0.161498
H32   H     H_    0.267488 0.168565 0.455103 0.123293
H33   H     H_    0.312733 0.180499 0.361781 0.109122
H34   H     H_    0.243369 0.917632 0.779114 0.165596
H35   H     H_    0.797983 0.660878 0.603675 0.166981
H36   H     H_    0.760763 0.081643 0.779288 0.161319
H37   H     H_    0.155047 0.327423 0.671012 0.180741
H38   H     H_    0.630980 0.710847 0.710351 0.146100
H39   H     H_    0.203349 0.741433 0.881938 0.140069
H40   H     H_    0.321864 0.253305 0.749423 0.144989
H41   H     H_    0.347733 0.825854 0.827853 0.185111
H42   H     H_    0.797245 0.258472 0.885080 0.144070
H43   H     H_    0.678395 0.252938 0.249469 0.144542
H44   H     H_    0.203533 0.259591 0.119992 0.140925
H45   H     H_    0.308261 0.751337 0.243461 0.121873
H46   H     H_    0.797107 0.741720 0.113425 0.144303
H47   H     H_    0.183868 0.251089 0.254539 0.144190
H48   H     H_    0.703138 0.240348 0.383770 0.139807
H49   H     H_    0.825566 0.755454 0.242154 0.130512
H50   H     H_    0.298472 0.764738 0.381902 0.152439
H51   H     H_    0.185515 0.751284 0.744721 0.144683
H52   H     H_    0.259277 0.418470 0.719056 0.168585
H53   H     H_    0.738094 0.787485 0.713776 0.110430
H54   H     H_    0.812728 0.249514 0.749254 0.122837
H55   H     H_    0.297293 0.240594 0.615333 0.140531
H56   H     H_    0.482444 0.331473 0.241243 0.103073
H57   H     H_    0.548750 0.259131 0.279326 0.127552
H58   H     H_    0.459911 0.229778 0.239537 0.157231
H59   H     H_    0.794176 0.612018 0.196533 0.085463
H60   H     H_    0.863302 0.634624 0.121175 0.094612
H61   H     H_    0.852344 0.538238 0.153997 0.176502
H62   H     H_    0.430086 0.796372 0.255123 0.132073
H63   H     H_    0.655196 0.169762 0.832138 0.177564
H64   H     H_    0.386750 0.818316 0.161549 0.081680
H65   H     H_    0.482599 0.845689 0.182532 0.172856
H66   H     H_    0.207333 0.389583 0.198664 0.086907
H67   H     H_    0.137096 0.366488 0.124307 0.090030
H68   H     H_    0.148806 0.463080 0.156459 0.178194
H69   H     H_    0.556702 0.808224 0.751009 0.125397
H70   H     H_    0.623538 0.800667 0.830294 0.081547
H71   H     H_    0.530859 0.843233 0.843033 0.178361
H72   H     H_    0.797874 0.385932 0.807643 0.084894
H73   H     H_    0.864389 0.364679 0.885992 0.089321
H74   H     H_    0.741149 0.418090 0.280504 0.167018
H75   H     H_    0.854705 0.460235 0.850952 0.173111
H76   H     H_    0.517771 0.330597 0.758923 0.102693
H77   H     H_    0.451676 0.257936 0.720670 0.126067
H78   H     H_    0.540292 0.228941 0.761212 0.157482
H79   H     H_    0.203243 0.611493 0.806137 0.092349
H80   H     H_    0.136135 0.634687 0.883353 0.087124
H81   H     H_    0.145867 0.538139 0.850242 0.174552
H82   H     H_    0.995391 0.825769 0.749448 0.088344
H83   H     H_    0.059367 0.746837 0.777761 0.107816
H84   H     H_    0.967108 0.725923 0.741506 0.174036
H85   H     H_    0.347750 0.173116 0.170779 0.176260
H86   H     H_    0.295486 0.111792 0.695531 0.090824
H87   H     H_    0.364034 0.133854 0.619446 0.087294
H88   H     H_    0.352742 0.037616 0.652423 0.176642
H89   H     H_    0.930089 0.302389 0.751497 0.127109
H90   H     H_    0.882885 0.317047 0.658663 0.082100
H91   H     H_    0.978736 0.348184 0.674116 0.174966
H92   H     H_    0.695781 0.916222 0.696746 0.101022
H93   H     H_    0.651586 0.849739 0.626266 0.100124
H94   H     H_    0.629423 0.950667 0.626967 0.156818
H95   H     H_    0.985227 0.170149 0.260439 0.100638
H96   H     H_    0.267358 0.582225 0.282854 0.156640
H97   H     H_    0.053749 0.240130 0.222020 0.124416
H98   H     H_    0.964853 0.272337 0.259711 0.157563
H99   H     H_    0.265463 0.948614 0.286594 0.099505
H100  H     H_    0.325213 0.868005 0.316482 0.060120
H101  H     H_    0.353427 0.964880 0.336558 0.165736
H102  H     H_    0.929807 0.679978 0.263809 0.132741
H103  H     H_    0.875188 0.687707 0.352433 0.087378
H104  H     H_    0.970194 0.650084 0.352812 0.186725
H105  H     H_    0.705454 0.110721 0.303312 0.088244
H106  H     H_    0.636428 0.133515 0.378790 0.089006
H107  H     H_    0.654984 0.827816 0.170836 0.181107
H108  H     H_    0.647696 0.036991 0.346328 0.177227
H109  H     H_    0.568536 0.833095 0.970967 0.186994
H110  H     H_    0.643724 0.762020 0.971428 0.100070
H111  H     H_    0.649864 0.850221 0.028638 0.136349
H112  H     H_    0.219504 0.653920 0.051551 0.135598
H113  H     H_    0.183574 0.667946 0.148690 0.118083
H114  H     H_    0.141478 0.596804 0.086480 0.159238
H115  H     H_    0.428169 0.172312 0.964960 0.208157
H116  H     H_    0.349714 0.238644 0.973772 0.095116
H117  H     H_    0.351376 0.148192 0.027300 0.119972
H118  H     H_    0.245985 0.084960 0.226948 0.150678
H119  H     H_    0.854003 0.403787 0.085923 0.158177
H120  H     H_    0.773439 0.349824 0.051735 0.139195
H121  H     H_    0.811767 0.331961 0.147047 0.109858
H122  H     H_    0.568794 0.173875 0.035266 0.210560
H123  H     H_    0.649171 0.237862 0.026351 0.093531
H124  H     H_    0.645316 0.146680 0.973951 0.119053
H125  H     H_    0.145643 0.404806 0.911991 0.155394
H126  H     H_    0.226149 0.353902 0.950214 0.142158
H127  H     H_    0.190360 0.331034 0.854836 0.117293
H128  H     H_    0.430431 0.831033 0.031178 0.197245
N1    N     N_R   0.574080 0.369570 0.076720 -0.135949
N2    N     N_R   0.130430 0.074080 0.576720 -0.139822
N3    N     N_R   0.925920 0.130430 0.576720 -0.136423
N4    N     N_R   0.869570 0.925920 0.576720 -0.134765
N5    N     N_R   0.074080 0.130430 0.423280 -0.137669
N6    N     N_R   0.130430 0.925920 0.423280 -0.137116
N7    N     N_R   0.925920 0.869570 0.423280 -0.150105
N8    N     N_R   0.869570 0.074080 0.423280 -0.137957
N9    N     N_R   0.574050 0.630410 0.076720 -0.137375
N10   N     N_R   0.369590 0.574050 0.076720 -0.133048
N11   N     N_R   0.425950 0.369590 0.076720 -0.142040
N12   N     N_R   0.630430 0.574080 0.076720 -0.141015
N13   N     N_R   0.630410 0.425950 0.076720 -0.133156
N14   N     N_R   0.574050 0.369590 0.923280 -0.143479
N15   N     N_R   0.369590 0.425950 0.923280 -0.133360
N16   N     N_R   0.425950 0.630410 0.923280 -0.139763
N17   N     N_R   0.630410 0.574050 0.923280 -0.135041
N18   N     N_R   0.074050 0.130410 0.576720 -0.136712
N19   N     N_R   0.869590 0.074050 0.576720 -0.131128
N20   N     N_R   0.925950 0.869590 0.576720 -0.151696
N21   N     N_R   0.130410 0.925950 0.576720 -0.133075
N22   N     N_R   0.074050 0.869590 0.423280 -0.139796
N23   N     N_R   0.425920 0.630430 0.076720 -0.139425
N24   N     N_R   0.869590 0.925950 0.423280 -0.123582
N25   N     N_R   0.925950 0.130410 0.423280 -0.144061
N26   N     N_R   0.130410 0.074050 0.423280 -0.132504
N27   N     N_R   0.369570 0.425920 0.076720 -0.138151
N28   N     N_R   0.574080 0.630430 0.923280 -0.139660
N29   N     N_R   0.630430 0.425920 0.923280 -0.140329
N30   N     N_R   0.425920 0.369570 0.923280 -0.135420
N31   N     N_R   0.369570 0.574080 0.923280 -0.141854
N32   N     N_R   0.074080 0.869570 0.576720 -0.139935
Ni1   Ni    Ni4+2 0.500000 0.370760 0.000000 0.237106
Ni2   Ni    Ni4+2 0.629240 0.500000 0.000000 0.255615
Ni3   Ni    Ni4+2 0.500000 0.629240 0.000000 0.238046
Ni4   Ni    Ni4+2 0.370760 0.500000 0.000000 0.258839
Ni5   Ni    Ni4+2 1.000000 0.870760 0.500000 0.202977
Ni6   Ni    Ni4+2 0.129240 0.000000 0.500000 0.259051
Ni7   Ni    Ni4+2 0.000000 0.129240 0.500000 0.239719
Ni8   Ni    Ni4+2 0.870760 0.000000 0.500000 0.262239
O1    O     O_3   0.539867 0.262189 0.159663 -0.584654
O2    O     O_3   0.266900 0.076979 0.581173 -0.559566
O3    O     O_3   0.968106 0.229515 0.664993 -0.587744
O4    O     O_3   0.734364 0.923967 0.582528 -0.557941
O5    O     O_3   0.042758 0.239825 0.341550 -0.581074
O6    O     O_3   0.266517 0.924878 0.405336 -0.567911
O7    O     O_3   0.966310 0.768621 0.335449 -0.589364
O8    O     O_3   0.733128 0.076761 0.418009 -0.562948
O9    O     O_3   0.572196 0.768854 0.069714 -0.590885
O10   O     O_3   0.245165 0.565600 0.131781 -0.590901
O11   O     O_3   0.427296 0.231464 0.067744 -0.586291
O12   O     O_3   0.766977 0.576956 0.081914 -0.563961
O13   O     O_3   0.752666 0.436494 0.135601 -0.595650
O14   O     O_3   0.572095 0.231301 0.931766 -0.584476
O15   O     O_3   0.247771 0.436981 0.863575 -0.598634
O16   O     O_3   0.428253 0.768656 0.930805 -0.594687
O17   O     O_3   0.746864 0.557818 0.853930 -0.599414
O18   O     O_3   0.072812 0.268705 0.568366 -0.600663
O19   O     O_3   0.745425 0.064291 0.632844 -0.587540
O20   O     O_3   0.921632 0.729558 0.594337 -0.575284
O21   O     O_3   0.254001 0.936233 0.632793 -0.599727
O22   O     O_3   0.076355 0.730579 0.430450 -0.625230
O23   O     O_3   0.469164 0.728289 0.165525 -0.587174
O24   O     O_3   0.746329 0.935363 0.366114 -0.598249
O25   O     O_3   0.928399 0.268921 0.427730 -0.576562
O26   O     O_3   0.258310 0.073919 0.378001 -0.585126
O27   O     O_3   0.233117 0.423361 0.083495 -0.564531
O28   O     O_3   0.527259 0.723836 0.830374 -0.589174
O29   O     O_3   0.766822 0.422956 0.920536 -0.563634
O30   O     O_3   0.459730 0.261816 0.840345 -0.582623
O31   O     O_3   0.233163 0.576886 0.919991 -0.563290
O32   O     O_3   0.044456 0.759969 0.659373 -0.581081

loop_
_geom_bond_atom_site_label_1
_geom_bond_atom_site_label_2
_ccdc_geom_bond_type
C112  H116  S    
C30   N17   A    
C36   C42   A    
C61   H63   S    
C23   O10   S    
C59   H41   S    
N26   Ni6   S    
C81   H44   S    
C16   H32   S    
C8    H9    S    
C11   O21   S    
C75   H38   S    
C106  H98   S    
C74   C92   D    
N21   N32   A    
C109  H106  S    
C94   H60   S    
C13   C51   A    
C95   H65   S    
N21   Ni6   S    
C48   C91   A    
N9    Ni3   S    
C26   O13   S    
C45   C78   S    
N10   Ni4   S    
C70   H24   S    
N2    N18   A    
C52   C89   S    
C110  H111  S    
C17   C52   A    
C84   H47   S    
C97   H71   S    
C7    O17   S    
C93   H58   S    
C67   C85   D    
C5    H126  S    
C73   H36   S    
C45   C69   A    
C111  H113  S    
C7    H7    S    
C107  O6    S    
C25   C41   A    
C49   C102  A    
C105  H92   S    
C107  H100  S    
C76   H39   S    
C35   O22   S    
C112  H117  S    
C63   H85   S    
C98   H75   S    
C80   O30   S    
C15   H30   S    
C14   H25   S    
C65   C68   S    
C102  O32   S    
C38   O25   S    
C96   H68   S    
C6    H4    S    
C5    H125  S    
C8    O18   S    
N2    Ni6   S    
C31   C50   A    
N11   N27   A    
C101  H82   S    
C47   N27   A    
C100  O31   S    
C97   O28   S    
C4    H122  S    
C67   H2    S    
C24   N11   A    
C46   C77   S    
N15   Ni4   S    
C55   C86   S    
C10   H17   S    
C109  H108  S    
C3    H121  S    
C1    O1    S    
N20   Ni5   S    
C9    H11   S    
C111  H112  S    
C24   O11   S    
C79   H43   S    
C71   C88   D    
C24   C43   A    
C95   O23   S    
C47   O27   S    
C110  H109  S    
N12   Ni2   S    
C106  O5    S    
C48   C76   S    
N4    N20   A    
C105  H94   S    
C34   O21   S    
C33   C52   A    
C101  O32   S    
C28   C46   A    
N29   Ni2   S    
C53   C84   S    
C35   N22   A    
C73   C90   D    
C23   N10   A    
N13   Ni2   S    
C104  O3    S    
C2    C50   A    
C17   O4    S    
C85   H48   S    
C101  H84   S    
C62   H74   S    
C57   C72   S    
C12   H22   S    
C4    H124  S    
C100  H80   S    
C10   H16   S    
C70   C87   D    
C77   H40   S    
N31   Ni4   S    
N10   N23   A    
N16   N31   A    
C108  H103  S    
C36   N23   A    
C3    H119  S    
C65   H107  S    
C57   H1    S    
N8    N25   A    
N22   Ni5   S    
C10   O20   S    
C12   H23   S    
C16   H33   S    
C107  H101  S    
C89   H53   S    
C40   C79   S    
C86   H49   S    
C2    N2    A    
C19   C54   A    
C110  O9    S    
N23   Ni3   S    
C43   C81   S    
N1    N13   A    
C36   O23   S    
N9    N12   A    
C34   N21   A    
C69   O29   S    
C26   N13   A    
C99   H78   S    
C72   H35   S    
N14   N29   A    
C104  H89   S    
C57   C75   D    
C37   N24   A    
C46   C80   A    
C18   N5    A    
C8    H10   S    
C43   C47   A    
C60   H52   S    
C31   N18   A    
C103  H88   S    
C98   H72   S    
C27   N14   A    
N8    Ni8   S    
C109  H105  S    
C94   H61   S    
C37   C55   A    
C87   H50   S    
C38   C56   A    
C112  O11   S    
C99   O30   S    
C59   C76   D    
C108  H102  S    
C19   N6    A    
N15   N30   A    
C49   C88   S    
C28   N15   A    
C11   H20   S    
C97   H70   S    
C2    O2    S    
C100  H81   S    
C37   O24   S    
C93   H57   S    
N17   Ni2   S    
C102  N32   A    
C38   N25   A    
C96   O27   S    
C22   C41   A    
C107  H99   S    
C29   O16   S    
N1    Ni1   S    
C22   O9    S    
C7    H5    S    
C18   C53   A    
C15   H29   S    
C109  O8    S    
C32   O19   S    
C20   N7    A    
C14   H26   S    
C93   H56   S    
C44   C58   A    
C34   C49   A    
C74   H37   S    
C103  O2    S    
N6    N22   A    
C27   C45   A    
C63   C66   S    
C112  H115  S    
C90   H54   S    
C35   C54   A    
N30   Ni1   S    
C30   C44   A    
C99   H76   S    
N14   Ni1   S    
C21   N8    A    
N27   Ni4   S    
C25   O12   S    
C104  H91   S    
C39   O26   S    
C3    O13   S    
C106  H95   S    
C13   O3    S    
C61   C73   S    
C106  H97   S    
C20   O7    S    
N7    Ni5   S    
C95   H64   S    
C32   C51   A    
C31   O18   S    
C94   H59   S    
C16   H31   S    
C98   O29   S    
N5    Ni7   S    
N3    N19   A    
C23   C42   A    
C108  H104  S    
N3    Ni7   S    
C110  H110  S    
C11   H18   S    
C15   H28   S    
C5    H127  S    
C111  H114  S    
C78   H42   S    
C21   C56   A    
C105  H93   S    
C98   H73   S    
C51   C90   S    
C19   O6    S    
C92   H55   S    
C56   C85   S    
C39   C53   A    
C83   H46   S    
C96   H67   S    
C6    H3    S    
C9    O19   S    
C69   N29   A    
C58   N28   A    
C103  H86   S    
C101  H83   S    
N32   Ni5   S    
C68   C86   D    
N5    N26   A    
C42   C82   S    
C105  O4    S    
C93   O1    S    
C39   N26   A    
C18   O5    S    
C64   H96   S    
C111  O10   S    
C62   C67   S    
C63   C81   D    
C95   H62   S    
C4    O14   S    
C91   N31   A    
C5    O15   S    
C54   C87   S    
C25   N12   A    
C6    O16   S    
C65   C83   D    
C41   C83   S    
N4    Ni8   S    
C9    H12   S    
C33   N20   A    
C29   N16   A    
N6    Ni6   S    
C58   O28   S    
C1    C40   A    
C33   O20   S    
C17   N4    A    
N16   Ni3   S    
C64   C70   S    
N7    N24   A    
C7    H6    S    
N19   Ni8   S    
N17   N28   A    
C20   C55   A    
C21   O8    S    
C15   O25   S    
C60   C77   D    
C29   C48   A    
C94   O12   S    
C62   C79   D    
C22   N9    A    
C99   H77   S    
C82   H45   S    
N25   Ni7   S    
C6    H128  S    
C104  H90   S    
C44   C75   S    
C61   C78   D    
C103  H87   S    
C64   C82   D    
C1    N1    A    
C50   C92   S    
C16   O26   S    
C12   H21   S    
C4    H123  S    
C100  H79   S    
C27   O14   S    
C10   H15   S    
C8    H8    S    
C32   N19   A    
N11   Ni1   S    
C11   H19   S    
C3    H120  S    
C30   O17   S    
C97   H69   S    
C91   O31   S    
C88   H51   S    
C66   H118  S    
C9    H14   S    
C108  O7    S    
C72   C89   D    
C26   C40   A    
C13   N3    A    
C68   H13   S    
N28   Ni3   S    
C60   C74   S    
N24   Ni8   S    
C80   N30   A    
C66   C84   D    
C71   H34   S    
C14   H27   S    
C12   O22   S    
N18   Ni7   S    
C14   O24   S    
C28   O15   S    
C96   H66   S    
C59   C71   S    
