data_mof_unit_17935.cif
_audit_creation_date              2013-03-05T16:25:54-0500
_audit_creation_method            fapswitch 2.2
_symmetry_space_group_name_H-M    P1
_symmetry_Int_Tables_number       1
_space_group_crystal_system       triclinic
_cell_length_a                    8.71593
_cell_length_b                    19.357857
_cell_length_c                    18.32948
_cell_angle_alpha                 91.291138
_cell_angle_beta                  97.843911
_cell_angle_gamma                 91.526365
_cell_volume                      3061.48942049

loop_
_atom_site_label
_atom_site_type_symbol
_atom_site_description
_atom_site_fract_x
_atom_site_fract_y
_atom_site_fract_z
_atom_type_partial_charge
O1    O     O_R   0.499930 0.400180 0.561970 -0.587374
O2    O     O_R   0.500070 0.599820 0.438030 -0.554115
O3    O     O_R   0.500010 0.400190 0.438070 -0.604394
O4    O     O_R   0.499990 0.599810 0.561930 -0.592477
C1    C     C_R   0.497569 0.367626 0.499161 0.822727
C2    C     C_R   0.498246 0.632213 0.500308 0.826630
O5    O     O_R   0.274810 0.500000 0.547650 -0.560684
O6    O     O_R   0.725190 0.500000 0.452350 -0.595825
O7    O     O_R   0.274880 0.500000 0.423750 -0.554880
O8    O     O_R   0.725120 0.500000 0.576250 -0.563186
C3    C     C_R   0.204540 0.502797 0.481736 0.877424
C4    C     C_R   0.795583 0.498604 0.518502 0.873166
Cu1   Cu    Cu3+1 0.499960 0.500000 0.573360 1.010697
Cu2   Cu    Cu3+1 0.500040 0.500000 0.426640 0.999208
C5    C     C_2   0.042266 0.517085 0.476261 0.019676
C6    C     C_2   0.958806 0.487432 0.525364 0.026317
C7    C     C_R   0.578974 0.744682 0.453725 -0.137545
C8    C     C_R   0.425489 0.256997 0.553343 -0.137228
H1    H     H_    0.653428 0.718180 0.420227 0.190239
H2    H     H_    0.386671 0.285203 0.598786 0.170793
C9    C     C_R   0.571631 0.816408 0.451406 -0.097560
C10   C     C_R   0.411735 0.185177 0.551026 -0.132234
H3    H     H_    0.640659 0.844661 0.416508 0.158428
H4    H     H_    0.364387 0.159011 0.594973 0.157612
C11   C     C_R   0.477661 0.851523 0.495078 0.164546
C12   C     C_R   0.459085 0.147308 0.492435 0.167492
C13   C     C_R   0.387916 0.814522 0.539652 -0.126359
C14   C     C_R   0.521190 0.181993 0.436279 -0.071832
H5    H     H_    0.313569 0.841336 0.572948 0.148121
H6    H     H_    0.561224 0.153270 0.391473 0.153525
C15   C     C_R   0.393701 0.742621 0.541197 -0.183672
C16   C     C_R   0.534527 0.253953 0.438440 -0.215894
H7    H     H_    0.321467 0.714386 0.574623 0.143217
H8    H     H_    0.584301 0.279788 0.395020 0.142354
C17   C     C_R   0.492092 0.707570 0.499605 -0.014560
C18   C     C_R   0.486822 0.291905 0.497050 -0.033041
C19   C     C_R   0.546776 0.967620 0.555148 0.380239
C20   C     C_R   0.379931 0.030719 0.432310 0.360509
C21   C     C_R   0.534056 0.039320 0.553821 -0.271523
C22   C     C_R   0.392717 0.958737 0.433854 -0.265979
H9    H     H_    0.593173 0.070746 0.599354 0.198096
H10   H     H_    0.335408 0.926816 0.388311 0.204443
C23   C     C_R   0.453680 0.071340 0.492833 -0.095899
C24   C     C_R   0.474483 0.927133 0.494641 -0.103756
C25   C     C_R   0.483192 0.438336 0.717164 0.118046
C26   C     C_R   0.628541 0.525105 0.289761 0.044459
H11   H     H_    0.467316 0.390618 0.685409 0.147926
H12   H     H_    0.725587 0.545954 0.327367 0.192190
C27   C     C_R   0.496096 0.434094 0.794164 -0.197575
C28   C     C_R   0.641662 0.520975 0.214228 -0.215219
H13   H     H_    0.497584 0.383431 0.817894 0.178407
H14   H     H_    0.751066 0.536059 0.196664 0.175696
C29   C     C_R   0.504105 0.494111 0.839281 0.100517
C30   C     C_R   0.515013 0.498600 0.162295 0.112225
C31   C     C_R   0.507386 0.558253 0.803602 -0.105596
C32   C     C_R   0.376762 0.477926 0.189776 -0.101864
C33   C     C_R   0.526437 0.559267 0.727560 0.131469
C34   C     C_R   0.377173 0.472882 0.267288 0.151678
N1    N     N_R   0.499980 0.500020 0.683620 -0.201013
N2    N     N_R   0.500020 0.499980 0.316380 -0.200834
C35   C     C_R   0.612620 0.538512 0.968008 -0.301142
C36   C     C_R   0.458187 0.438385 0.036704 -0.275905
H15   H     H_    0.687339 0.573607 0.943366 0.186981
H16   H     H_    0.408488 0.395445 0.062907 0.197234
C37   C     C_R   0.605932 0.546168 0.044179 0.342630
C38   C     C_R   0.437222 0.439215 0.959090 0.344055
C39   C     C_R   0.528131 0.494746 0.080390 -0.066958
C40   C     C_R   0.516782 0.490084 0.922832 -0.052872
N3    N     N_R   0.986531 0.575123 0.432784 0.089062
O9    O     O_R   0.903138 0.621232 0.460408 -0.397045
O10   O     O_R   0.047185 0.590480 0.374001 -0.367940
N4    N     N_R   0.018875 0.433810 0.573823 0.115396
O11   O     O_R   0.085855 0.381103 0.547785 -0.382305
O12   O     O_R   0.984861 0.432061 0.640713 -0.326846
C41   C     C_R   0.475833 0.623171 0.843412 0.084222
C42   C     C_R   0.591821 0.674778 0.863330 -0.161378
C43   C     C_R   0.559398 0.734247 0.902400 -0.061924
C44   C     C_R   0.411633 0.742634 0.922182 -0.058959
C45   C     C_R   0.296018 0.691528 0.902988 -0.139773
C46   C     C_R   0.327851 0.632005 0.863851 -0.127145
H17   H     H_    0.707673 0.668404 0.849599 0.138147
H18   H     H_    0.649130 0.773664 0.917697 0.153986
H19   H     H_    0.386850 0.788639 0.952597 0.150938
H20   H     H_    0.181747 0.697950 0.918574 0.146269
H21   H     H_    0.237372 0.592634 0.849608 0.155317
C47   C     C_R   0.229939 0.465718 0.138233 0.051415
C48   C     C_R   0.156845 0.399755 0.128811 -0.159327
C49   C     C_R   0.022076 0.389005 0.078586 -0.067495
C50   C     C_R   0.960321 0.443511 0.036556 -0.089995
C51   C     C_R   0.032989 0.508952 0.044833 -0.101066
C52   C     C_R   0.166572 0.520238 0.095742 -0.093836
H22   H     H_    0.205863 0.356429 0.159165 0.145007
H23   H     H_    0.966554 0.338165 0.071602 0.153481
H24   H     H_    0.856930 0.434847 0.997137 0.142636
H25   H     H_    0.986408 0.550842 0.011405 0.163938
H26   H     H_    0.221926 0.571205 0.101432 0.169881
C53   C     C_R   0.614635 0.618698 0.703335 0.140306
C54   C     C_R   0.770928 0.610631 0.694696 -0.113743
C55   C     C_R   0.862101 0.667338 0.678918 -0.174619
C56   C     C_R   0.799361 0.732934 0.673926 -0.063264
C57   C     C_R   0.644977 0.741762 0.684078 -0.095131
C58   C     C_R   0.551935 0.684775 0.697602 -0.184751
H27   H     H_    0.823294 0.560721 0.702089 0.170356
H28   H     H_    0.982313 0.660657 0.672143 0.147886
H29   H     H_    0.871157 0.776941 0.663119 0.187606
H30   H     H_    0.597013 0.792738 0.681523 0.194767
H31   H     H_    0.432722 0.692339 0.705748 0.131951
C59   C     C_R   0.251387 0.431274 0.293363 0.129360
C60   C     C_R   0.279093 0.363256 0.315378 -0.149743
C61   C     C_R   0.160852 0.322287 0.338125 -0.107118
C62   C     C_R   0.012368 0.348099 0.336477 -0.094240
C63   C     C_R   0.981465 0.414338 0.310716 -0.160878
C64   C     C_R   0.099806 0.455617 0.288308 -0.081100
H32   H     H_    0.392055 0.341797 0.314060 0.133748
H33   H     H_    0.184048 0.270323 0.356320 0.188296
H34   H     H_    0.920633 0.316375 0.353958 0.146853
H35   H     H_    0.865668 0.433411 0.307947 0.139341
H36   H     H_    0.073814 0.506239 0.266876 0.171268
N5    N     N_R   0.668403 0.608798 0.081794 0.118402
O13   O     O_R   0.586424 0.642508 0.124183 -0.336984
O14   O     O_R   0.791436 0.639163 0.062872 -0.382883
N6    N     N_R   0.326357 0.391206 0.919134 0.112927
O15   O     O_R   0.221391 0.413326 0.868333 -0.342000
O16   O     O_R   0.311790 0.328612 0.942246 -0.346199
N7    N     N_R   0.638733 0.937145 0.616498 0.112911
O17   O     O_R   0.645749 0.964832 0.682271 -0.351020
O18   O     O_R   0.733726 0.888580 0.605246 -0.393850
N8    N     N_R   0.288694 0.061150 0.370457 0.121985
O19   O     O_R   0.207476 0.115303 0.379781 -0.362732
O20   O     O_R   0.271932 0.030161 0.305990 -0.332348

loop_
_geom_bond_atom_site_label_1
_geom_bond_atom_site_label_2
_geom_bond_distance
_ccdc_geom_bond_type
C38   C40   1.418137 A    
C48   C49   1.397769 A    
C57   C58   1.398417 A    
C13   H5    1.083228 S    
C29   C31   1.417732 A    
C62   C63   1.396654 A    
C6    N4    1.443654 S    
O7    Cu2   1.955954 S    
N8    O19   1.301433 A    
C53   C54   1.405079 A    
C51   H25   1.081594 S    
C21   H9    1.084060 S    
C43   C44   1.397321 A    
C2    C17   1.461433 S    
O5    C3    1.280806 A    
C56   H29   1.081460 S    
C28   C30   1.407615 A    
C36   C39   1.412495 A    
O1    C1    1.297329 A    
C16   C18   1.403340 A    
C47   C52   1.405748 A    
C45   H20   1.082446 S    
C33   N1    1.382321 A    
C34   N2    1.384607 A    
C5    C6    1.359566 D    
C1    C18   1.465597 S    
O4    Cu1   1.948116 S    
C59   C60   1.403230 A    
N3    O10   1.300123 A    
C50   H24   1.082137 S    
C35   H15   1.077128 S    
C29   C40   1.524227 S    
C61   C62   1.396396 A    
C36   H16   1.079278 S    
C52   H26   1.083187 S    
C3    C5    1.438870 S    
C44   H19   1.082258 S    
C4    C6    1.433620 S    
C14   H6    1.083227 S    
C27   H13   1.081446 S    
C28   H14   1.082304 S    
C15   H7    1.082845 S    
C62   H34   1.082454 S    
C41   C46   1.404969 A    
C22   C24   1.400277 A    
C8    H2    1.082894 S    
C53   C58   1.404788 A    
C31   C41   1.489689 S    
N5    O14   1.301096 A    
C55   H28   1.082571 S    
Cu1   Cu2   2.689397 S    
O2    C2    1.292193 A    
C11   C24   1.464829 S    
C63   C64   1.399146 A    
C12   C23   1.470288 S    
C19   N7    1.436672 S    
C25   H11   1.076173 S    
C5    N3    1.448126 S    
C26   H12   1.078707 S    
C36   C38   1.409858 A    
C13   C15   1.394881 A    
C14   C16   1.393971 A    
C42   C43   1.397624 A    
N4    O12   1.301075 A    
C47   C48   1.408146 A    
C21   C23   1.401854 A    
C30   C39   1.521421 S    
C37   C39   1.417017 A    
C7    C9    1.392981 A    
C45   C46   1.397618 A    
C16   H8    1.082736 S    
C59   C64   1.406366 A    
C41   C42   1.407955 A    
C46   H21   1.083403 S    
C32   C47   1.493281 S    
C55   C56   1.395838 A    
C25   C27   1.404905 A    
O6    C4    1.283241 A    
C33   C53   1.476716 S    
C38   N6    1.436005 S    
C37   N5    1.437501 S    
C58   H31   1.082981 S    
O7    C3    1.298265 A    
O3    Cu2   1.948118 S    
O8    C4    1.294351 A    
C60   H32   1.081829 S    
O4    C2    1.302769 A    
C9    H3    1.083301 S    
N7    O17   1.301318 A    
C10   H4    1.083390 S    
O1    Cu1   1.938856 S    
N6    O16   1.301296 A    
C57   H30   1.081392 S    
C9    C11   1.399193 A    
C49   H23   1.082203 S    
C25   N1    1.368795 A    
O6    Cu2   1.954645 S    
C26   N2    1.363917 A    
C8    C10   1.391448 A    
N4    O11   1.302076 A    
O3    C1    1.299732 A    
O8    Cu1   1.955953 S    
N8    O20   1.301443 A    
C42   H17   1.082946 S    
C20   N8    1.440035 S    
N5    O13   1.301359 A    
C30   C32   1.419485 A    
Cu1   N1    2.020974 S    
C11   C13   1.401210 A    
Cu2   N2    2.020978 S    
C26   C28   1.405330 A    
C12   C14   1.402550 A    
C19   C24   1.408924 A    
C31   C33   1.426507 A    
C50   C51   1.396883 A    
C20   C23   1.414671 A    
C19   C21   1.395813 A    
C60   C61   1.397687 A    
C20   C22   1.401449 A    
C44   C45   1.397274 A    
C35   C40   1.413085 A    
C51   C52   1.398147 A    
C63   H35   1.079001 S    
C43   H18   1.082224 S    
C27   C29   1.405397 A    
C15   C17   1.401131 A    
C22   H10   1.083833 S    
C56   C57   1.397723 A    
C7    H1    1.083327 S    
C32   C34   1.425812 A    
C34   C59   1.480703 S    
N3    O9    1.302313 A    
O2    Cu2   1.938853 S    
C64   H36   1.082048 S    
C35   C37   1.409956 A    
O5    Cu1   1.954647 S    
C49   C50   1.396503 A    
C54   C55   1.396667 A    
C10   C12   1.400958 A    
N7    O18   1.300458 A    
C7    C17   1.403141 A    
N6    O15   1.301432 A    
C48   H22   1.082002 S    
C8    C18   1.403489 A    
C61   H33   1.082367 S    
C54   H27   1.082895 S    
