data_mof_unit_32484.cif
_audit_creation_date              2012-12-10T18:47:09-0500
_audit_creation_method            fapswitch 2.2
_symmetry_space_group_name_H-M    P1
_symmetry_Int_Tables_number       1
_space_group_crystal_system       triclinic
_cell_length_a                    10.703419
_cell_length_b                    9.8423
_cell_length_c                    14.962107
_cell_angle_alpha                 88.99282
_cell_angle_beta                  89.835198
_cell_angle_gamma                 89.947856
_cell_volume                      1575.95140217

loop_
_atom_site_label
_atom_site_type_symbol
_atom_type_description
_atom_site_fract_x
_atom_site_fract_y
_atom_site_fract_z
_atom_type_partial_charge
C1    C     C_R   0.259891 0.500016 0.499838 0.874246
C2    C     C_R   0.740054 0.499983 0.501673 0.844741
C3    C     C_R   0.317759 0.347883 0.052511 -0.205890
C4    C     C_R   0.635696 0.697345 0.948478 -0.216164
C5    C     C_R   0.064076 0.379223 0.520338 -0.185365
C6    C     C_R   0.935867 0.620705 0.481059 -0.195469
C7    C     C_R   0.936136 0.379351 0.521221 -0.194682
C8    C     C_R   0.063787 0.620597 0.480208 -0.215823
C9    C     C_R   0.872514 0.500117 0.501712 -0.000996
C10   C     C_R   0.127441 0.499927 0.500009 -0.006743
C11   C     C_R   0.604623 0.071106 0.523491 -0.090895
C12   C     C_R   0.395892 0.928898 0.475407 -0.061007
C13   C     C_R   0.395924 0.072643 0.475309 -0.087581
C14   C     C_R   0.604563 0.927385 0.523641 -0.072846
C15   C     C_R   0.501212 0.501238 0.326872 0.935771
C16   C     C_R   0.497780 0.498858 0.673412 0.950214
C17   C     C_R   0.562164 0.597473 0.812773 -0.349084
C18   C     C_R   0.411012 0.425885 0.188418 -0.350262
C19   C     C_R   0.493230 0.498216 0.769437 -0.164666
C20   C     C_R   0.499377 0.504942 0.231352 -0.174160
C21   C     C_R   0.418281 0.404357 0.817126 0.413696
C22   C     C_R   0.583036 0.589124 0.183861 0.438471
C23   C     C_R   0.405025 0.420097 0.909924 -0.011366
C24   C     C_R   0.570147 0.601658 0.091008 -0.004097
C25   C     C_R   0.482739 0.513844 0.953857 0.030345
C26   C     C_R   0.484985 0.515784 0.047078 0.021673
C27   C     C_R   0.560553 0.603348 0.904834 0.137092
C28   C     C_R   0.404419 0.429075 0.096217 0.134555
C29   C     C_R   0.317253 0.344281 0.959854 -0.216267
C30   C     C_R   0.640505 0.696616 0.041175 -0.209152
H1    H     H_    0.620480 0.667632 0.774521 0.174603
H2    H     H_    0.347615 0.361853 0.227137 0.170884
H3    H     H_    0.248250 0.281604 0.927975 0.164768
H4    H     H_    0.700606 0.769184 0.073502 0.173808
H5    H     H_    0.252038 0.285277 0.089978 0.143625
H6    H     H_    0.693065 0.768997 0.910924 0.141256
H7    H     H_    0.112992 0.285478 0.536266 0.153325
H8    H     H_    0.886979 0.714314 0.464749 0.157367
H9    H     H_    0.887427 0.285703 0.537609 0.145313
H10   H     H_    0.112439 0.714165 0.463512 0.148282
H11   H     H_    0.688039 0.124532 0.543172 0.123675
H12   H     H_    0.312564 0.875454 0.455553 0.121606
H13   H     H_    0.312566 0.127338 0.455492 0.127942
H14   H     H_    0.687972 0.872718 0.543366 0.127153
N1    N     N_R   0.500000 0.857200 0.500000 -0.078986
N2    N     N_R   0.500000 0.142800 0.500000 -0.082518
O1    O     O_R   0.316770 0.614620 0.499990 -0.638123
O2    O     O_R   0.683230 0.385380 0.500010 -0.641383
O3    O     O_R   0.683230 0.614620 0.500010 -0.627456
O4    O     O_R   0.316770 0.385380 0.499990 -0.632570
O5    O     O_R   0.499980 0.614680 0.367850 -0.574841
O6    O     O_R   0.500020 0.385320 0.632150 -0.596367
O7    O     O_R   0.500020 0.614680 0.632150 -0.633880
O8    O     O_R   0.499980 0.385320 0.367850 -0.627001
Zn1   Zn    Zn3+2 0.500000 0.653120 0.500000 0.960314
Zn2   Zn    Zn3+2 0.500000 0.346880 0.500000 0.946176
O9    O     O_3   0.354991 0.303691 0.771333 -0.638011
C31   C     C_3   0.392531 0.171917 0.801319 0.071429
H15   H     H_    0.310394 0.120372 0.832179 0.151700
H16   H     H_    0.469484 0.171478 0.851689 0.125881
C32   C     C_3   0.435179 0.087749 0.722265 -0.299636
H17   H     H_    0.361864 0.089674 0.669826 0.235898
H18   H     H_    0.522327 0.132515 0.694345 0.230167
C33   C     C_3   0.460624 0.940587 0.750963 -0.968104
H19   H     H_    0.535111 0.936160 0.802488 0.257819
H20   H     H_    0.491872 0.881715 0.692539 0.286876
H21   H     H_    0.374414 0.892658 0.778370 0.272298
O10   O     O_3   0.674544 0.659159 0.229878 -0.638959
C34   C     C_3   0.793989 0.599993 0.215591 0.041383
H22   H     H_    0.863867 0.668041 0.246418 0.178528
H23   H     H_    0.818758 0.595062 0.143549 0.135112
C35   C     C_3   0.806349 0.457788 0.258805 -0.360696
H24   H     H_    0.769798 0.459493 0.327874 0.232646
H25   H     H_    0.750505 0.383553 0.220626 0.209228
C36   C     C_3   0.942148 0.410330 0.260743 -0.935622
H26   H     H_    0.980133 0.405268 0.191711 0.258318
H27   H     H_    0.947607 0.307618 0.292407 0.266472
H28   H     H_    0.000070 0.480921 0.300231 0.272008

loop_
_geom_bond_atom_site_label_1
_geom_bond_atom_site_label_2
_ccdc_geom_bond_type
C4    H6    S    
C5    H7    S    
C32   C33   S    
C6    C9    A    
C23   C29   A    
O1    Zn1   S    
C3    C28   A    
C19   C21   A    
C24   C26   A    
C13   N2    A    
C11   C14   A    
C31   H16   S    
C29   H3    S    
C7    C9    A    
C34   H23   S    
C16   O7    A    
C12   H12   S    
O10   C34   S    
C6    H8    S    
C15   O5    A    
C1    O4    A    
C18   C20   A    
C31   C32   S    
C34   H22   S    
C35   C36   S    
C14   N1    A    
O7    Zn1   S    
C15   C20   S    
O8    Zn2   S    
C30   H4    S    
C17   C27   A    
C33   H21   S    
C18   C28   A    
C35   H25   S    
C5    C7    A    
C35   H24   S    
C6    C8    A    
C2    O2    A    
C25   C26   A    
O3    Zn1   S    
O4    Zn2   S    
C33   H20   S    
C34   C35   S    
C36   H26   S    
C15   O8    A    
C21   O9    S    
C2    O3    A    
C3    H5    S    
C32   H18   S    
C36   H27   S    
C22   O10   S    
C20   C22   A    
C21   C23   A    
C17   H1    S    
C22   C24   A    
C18   H2    S    
C13   H13   S    
C4    C27   A    
C14   H14   S    
O2    Zn2   S    
C1    O1    A    
C1    C10   S    
C16   O6    A    
C12   N1    A    
C25   C27   A    
C26   C28   A    
C33   H19   S    
C31   H15   S    
C5    C10   A    
C3    C29   A    
O9    C31   S    
C16   C19   S    
C17   C19   A    
C11   H11   S    
O5    Zn1   S    
C23   C25   A    
C32   H17   S    
C36   H28   S    
C24   C30   A    
C12   C13   A    
N1    Zn1   S    
C8    C10   A    
N2    Zn2   S    
C7    H9    S    
C11   N2    A    
C8    H10   S    
C2    C9    S    
C4    C30   A    
O6    Zn2   S    
