data_mof_unit_57040.cif
_audit_creation_date              2012-12-10T16:50:57-0500
_audit_creation_method            fapswitch 2.2
_symmetry_space_group_name_H-M    P1
_symmetry_Int_Tables_number       1
_space_group_crystal_system       triclinic
_cell_length_a                    7.786497
_cell_length_b                    8.63135
_cell_length_c                    10.417057
_cell_angle_alpha                 90.637465
_cell_angle_beta                  87.080144
_cell_angle_gamma                 93.137474
_cell_volume                      698.128016629

loop_
_atom_site_label
_atom_site_type_symbol
_atom_type_description
_atom_site_fract_x
_atom_site_fract_y
_atom_site_fract_z
_atom_type_partial_charge
C1    C     C_R   0.544933 0.794091 0.496597 0.880011
C2    C     C_R   0.881809 0.198872 0.059287 -0.228875
C3    C     C_R   0.056676 0.251272 0.063293 -0.147330
C4    C     C_R   0.890201 0.204678 0.921376 -0.223857
C5    C     C_R   0.156654 0.362005 0.131980 0.580526
C6    C     C_R   0.755721 0.265923 0.858270 0.603638
C7    C     C_R   0.320829 0.399905 0.066776 -0.039579
C8    C     C_R   0.632018 0.351705 0.926389 -0.071132
C9    C     C_R   0.331717 0.378312 0.930491 0.012441
C10   C     C_R   0.627312 0.357324 0.062131 0.003537
C11   C     C_R   0.479701 0.418549 0.128318 -0.205310
C12   C     C_R   0.455013 0.205871 0.502788 0.843026
C13   C     C_R   0.490310 0.403418 0.865650 -0.135713
C14   C     C_2   0.568832 0.956297 0.492242 0.304249
C15   C     C_2   0.431071 0.043744 0.506631 0.284258
C16   C     C_R   0.497907 0.468496 0.736823 0.914141
C17   C     C_R   0.492532 0.475820 0.260444 0.860388
C18   C     C_R   0.186697 0.315366 0.866045 -0.219465
C19   C     C_R   0.753512 0.280033 0.127152 -0.058200
C20   C     C_R   0.034430 0.302647 0.940280 -0.162399
F1    F     F_    0.078755 0.470356 0.205737 -0.651239
F2    F     F_    0.731187 0.217102 0.735905 -0.644621
F3    F     F_    0.734040 0.015290 0.471437 -0.615872
F4    F     F_    0.265805 0.984804 0.527117 -0.629534
H1    H     H_    0.925575 0.097467 0.873091 0.208365
H2    H     H_    0.134505 0.149029 0.065444 0.124519
H3    H     H_    0.192733 0.276093 0.766888 0.219742
H4    H     H_    0.735271 0.254280 0.228454 0.183995
H5    H     H_    0.001251 0.425366 0.938188 0.204477
H6    H     H_    0.866800 0.080472 0.095163 0.173361
H7    H     H_    0.010028 0.370105 0.417251 0.248753
H8    H     H_    0.988574 0.624855 0.588176 0.214383
N1    N     N_2   0.950330 0.457950 0.466250 -0.096337
N2    N     N_2   0.049670 0.542050 0.533750 -0.135418
O1    O     O_R   0.389250 0.738570 0.508280 -0.562849
O2    O     O_R   0.610750 0.261430 0.491720 -0.550759
O3    O     O_R   0.678390 0.711630 0.486650 -0.576030
O4    O     O_R   0.321610 0.288370 0.513350 -0.623321
O5    O     O_R   0.355430 0.513480 0.694040 -0.634328
O6    O     O_R   0.644570 0.486520 0.305960 -0.602244
O7    O     O_R   0.644570 0.486540 0.672410 -0.592327
O8    O     O_R   0.355430 0.513460 0.327590 -0.562032
Zn1   Zn    Zn3+2 0.306940 0.517990 0.514440 1.039454
Zn2   Zn    Zn3+2 0.693060 0.482010 0.485560 1.065508

loop_
_geom_bond_atom_site_label_1
_geom_bond_atom_site_label_2
_ccdc_geom_bond_type
C14   F3    S    
C2    C4    A    
H7    N1    S    
C8    C13   A    
C12   O2    A    
O1    Zn1   S    
O6    Zn2   S    
C12   C15   S    
C1    O3    A    
C10   C19   A    
C2    H6    S    
O3    Zn2   S    
C2    C3    A    
C5    C7    A    
C3    C20   A    
C7    C11   A    
C19   H4    S    
C6    C8    A    
C8    C10   A    
C15   F4    S    
N1    N2    D    
C18   C20   A    
C20   H5    S    
C12   O4    A    
O7    Zn2   S    
O2    Zn2   S    
C6    F2    S    
C10   C11   A    
C18   H3    S    
C16   O5    A    
C4    C20   A    
C4    H1    S    
C9    C18   A    
O4    Zn1   S    
C5    F1    S    
C1    O1    A    
C4    C6    A    
O8    Zn1   S    
C13   C16   S    
C7    C9    A    
C9    C13   A    
C17   O8    A    
C11   C17   S    
O5    Zn1   S    
C1    C14   S    
C2    C19   A    
C14   C15   D    
N1    Zn2   S    
C16   O7    A    
C3    H2    S    
N2    Zn1   S    
C3    C5    A    
C17   O6    A    
H8    N2    S    
