data_mof_unit_5958.cif
_audit_creation_date              2012-12-10T16:57:02-0500
_audit_creation_method            fapswitch 2.2
_symmetry_space_group_name_H-M    P1
_symmetry_Int_Tables_number       1
_space_group_crystal_system       triclinic
_cell_length_a                    7.810695
_cell_length_b                    8.566344
_cell_length_c                    16.533776
_cell_angle_alpha                 92.367127
_cell_angle_beta                  80.217411
_cell_angle_gamma                 93.439248
_cell_volume                      1087.66681276

loop_
_atom_site_label
_atom_site_type_symbol
_atom_type_description
_atom_site_fract_x
_atom_site_fract_y
_atom_site_fract_z
_atom_type_partial_charge
C1    C     C_R   0.545800 0.794578 0.498065 0.972040
C2    C     C_R   0.380179 0.466474 0.222500 -0.212977
C3    C     C_R   0.546869 0.266798 0.832673 -0.164538
C4    C     C_R   0.378322 0.410169 0.142881 -0.151195
C5    C     C_R   0.399395 0.299647 0.890495 0.204171
C6    C     C_R   0.526298 0.343110 0.097555 0.208581
C7    C     C_R   0.272910 0.392592 0.869618 -0.172399
C8    C     C_R   0.677957 0.339671 0.131739 -0.184350
C9    C     C_R   0.299213 0.460714 0.793206 -0.198752
C10   C     C_R   0.680011 0.396466 0.211472 -0.198005
C11   C     C_2   0.391612 0.265416 0.976873 -0.243029
C12   C     C_R   0.454187 0.205424 0.502027 0.966024
C13   C     C_2   0.534320 0.296503 0.010954 -0.227114
C14   C     C_2   0.570048 0.957940 0.496990 -0.388999
C15   C     C_2   0.429912 0.042099 0.503315 -0.381025
C16   C     C_R   0.475315 0.493093 0.654404 0.846683
C17   C     C_R   0.522525 0.493516 0.345154 0.852659
C18   C     C_R   0.452728 0.436574 0.737575 -0.030216
C19   C     C_R   0.530020 0.457904 0.257741 -0.031204
C20   C     C_R   0.574655 0.336785 0.757254 -0.208247
H1    H     H_    0.690441 0.310460 0.713876 0.160028
H2    H     H_    0.643842 0.191931 0.847026 0.130498
H3    H     H_    0.702613 0.008413 0.490938 0.172602
H4    H     H_    0.297343 0.991637 0.509393 0.172595
H5    H     H_    0.983143 0.238650 0.442256 0.168722
H6    H     H_    0.019162 0.368511 0.367215 0.161780
H7    H     H_    0.017211 0.761096 0.558335 0.167641
H8    H     H_    0.979847 0.630294 0.632971 0.167600
H9    H     H_    0.263432 0.514722 0.256761 0.153371
H10   H     H_    0.797314 0.388149 0.237466 0.148633
H11   H     H_    0.201180 0.533476 0.778005 0.146282
H12   H     H_    0.661169 0.311904 0.972462 0.147388
H13   H     H_    0.264228 0.250553 0.014737 0.142685
H14   H     H_    0.158593 0.419130 0.913953 0.121633
H15   H     H_    0.794736 0.292681 0.096707 0.120727
H16   H     H_    0.262139 0.423261 0.116923 0.122070
N1    N     N_2   0.953500 0.457650 0.478520 -0.004310
N2    N     N_2   0.046500 0.542350 0.521480 -0.003531
N3    N     N_3   0.042325 0.348150 0.426171 -0.318458
N4    N     N_3   0.957554 0.651556 0.573973 -0.318178
O1    O     O_R   0.388470 0.738640 0.505270 -0.619632
O2    O     O_R   0.611530 0.261360 0.494730 -0.624272
O3    O     O_R   0.679650 0.711510 0.491500 -0.608144
O4    O     O_R   0.320350 0.288490 0.508500 -0.610726
O5    O     O_R   0.337210 0.515200 0.623500 -0.624529
O6    O     O_R   0.662790 0.484800 0.376500 -0.628375
O7    O     O_R   0.628380 0.488060 0.609730 -0.608061
O8    O     O_R   0.371620 0.511940 0.390270 -0.604888
Zn1   Zn    Zn3+2 0.305580 0.518120 0.509190 0.957512
Zn2   Zn    Zn3+2 0.694420 0.481880 0.490810 0.953228

loop_
_geom_bond_atom_site_label_1
_geom_bond_atom_site_label_2
_ccdc_geom_bond_type
C14   H3    S    
C16   O5    A    
C2    C4    A    
C17   O6    A    
C4    H16   S    
O3    Zn2   S    
N1    N2    D    
C10   H10   S    
C13   H12   S    
C12   C15   S    
O5    Zn1   S    
H7    N4    S    
C17   O8    A    
C3    C20   A    
N1    N3    S    
N2    Zn1   S    
H5    N3    S    
C6    C13   S    
N2    N4    S    
N1    Zn2   S    
C11   C13   D    
O2    Zn2   S    
C2    H9    S    
C6    C8    A    
C16   O7    A    
O1    Zn1   S    
O8    Zn1   S    
C17   C19   S    
C10   C19   A    
C5    C11   S    
O7    Zn2   S    
C18   C20   A    
C7    H14   S    
H6    N3    S    
O4    Zn1   S    
C4    C6    A    
C9    H11   S    
C7    C9    A    
C9    C18   A    
C11   H13   S    
C20   H1    S    
C16   C18   S    
C12   O4    A    
C1    O1    A    
C5    C7    A    
O6    Zn2   S    
C14   C15   D    
C15   H4    S    
C3    H2    S    
C12   O2    A    
C1    C14   S    
C2    C19   A    
C1    O3    A    
C8    C10   A    
H8    N4    S    
C3    C5    A    
C8    H15   S    
