data_mof_unit_40085.cif
_audit_creation_date              2012-12-10T17:51:27-0500
_audit_creation_method            fapswitch 2.2
_symmetry_space_group_name_H-M    P1
_symmetry_Int_Tables_number       1
_space_group_crystal_system       triclinic
_cell_length_a                    14.723136
_cell_length_b                    14.657931
_cell_length_c                    17.243873
_cell_angle_alpha                 105.869208
_cell_angle_beta                  72.9494
_cell_angle_gamma                 115.04607
_cell_volume                      3175.03662112

loop_
_atom_site_label
_atom_site_type_symbol
_atom_type_description
_atom_site_fract_x
_atom_site_fract_y
_atom_site_fract_z
_atom_type_partial_charge
C1    C     C_R   0.118668 0.688332 0.513568 0.792046
C2    C     C_R   0.881309 0.311659 0.486167 0.796828
C3    C     C_R   0.185467 0.796830 0.518536 -0.105583
C4    C     C_R   0.814240 0.203177 0.480223 -0.049306
C5    C     C_R   0.214067 0.974284 0.523618 0.000570
C6    C     C_R   0.784086 0.025525 0.475038 0.019609
C7    C     C_R   0.148214 0.871432 0.522394 -0.161586
C8    C     C_R   0.850600 0.127961 0.476667 -0.289437
C9    C     C_R   0.289447 0.824022 0.512720 -0.248194
C10   C     C_R   0.710507 0.176557 0.484865 -0.255586
C11   C     C_R   0.358787 0.924798 0.509498 0.104106
C12   C     C_R   0.640661 0.075773 0.487039 0.048395
C13   C     C_R   0.319439 0.003198 0.524875 -0.033661
C14   C     C_R   0.679564 0.997138 0.471650 0.131190
C15   C     C_R   0.466113 0.948739 0.493206 0.087245
C16   C     C_R   0.533357 0.051910 0.502515 0.032866
C17   C     C_R   0.491266 0.128501 0.531993 -0.216261
C18   C     C_R   0.508233 0.872128 0.463086 -0.340630
C19   C     C_R   0.386522 0.106187 0.543076 -0.045871
C20   C     C_R   0.612852 0.894596 0.451410 -0.009659
C21   C     C_R   0.290792 0.322539 0.365880 0.415102
C22   C     C_R   0.709175 0.677257 0.635199 0.451930
C23   C     C_R   0.990301 0.504790 0.653000 0.823754
C24   C     C_R   0.009872 0.495488 0.347009 0.822694
C25   C     C_R   0.207812 0.354424 0.387931 -0.002958
C26   C     C_R   0.791929 0.644765 0.612925 -0.015418
C27   C     C_R   0.287904 0.493177 0.485226 0.047905
C28   C     C_R   0.712613 0.507845 0.514162 0.072512
C29   C     C_R   0.372442 0.463081 0.470130 -0.059620
C30   C     C_R   0.628487 0.538508 0.529253 -0.059381
C31   C     C_R   0.375141 0.380343 0.404981 -0.021900
C32   C     C_R   0.625580 0.620698 0.594946 -0.013324
C33   C     C_R   0.455514 0.514028 0.514236 -0.045538
C34   C     C_R   0.545756 0.488220 0.484783 -0.021115
C35   C     C_R   0.550216 0.413745 0.411794 0.497315
C36   C     C_R   0.451146 0.588628 0.587139 0.470300
C37   C     C_R   0.463904 0.358800 0.376170 -0.187143
C38   C     C_R   0.537087 0.642807 0.623274 -0.181131
C39   C     C_R   0.990106 0.514738 0.739925 -0.196049
C40   C     C_R   0.010753 0.486615 0.260096 -0.195965
C41   C     C_R   0.081146 0.530848 0.761595 -0.245783
C42   C     C_R   0.920193 0.471487 0.238175 -0.243913
C43   C     C_R   0.086027 0.543996 0.843840 0.032265
C44   C     C_R   0.916008 0.459460 0.155916 0.033821
C45   C     C_R   0.996554 0.538561 0.904971 0.015600
C46   C     C_R   0.005754 0.465147 0.095043 0.015543
C47   C     C_R   0.906688 0.525752 0.883889 -0.227908
C48   C     C_R   0.095190 0.477169 0.116367 -0.228816
C49   C     C_R   0.901956 0.511808 0.801720 0.488237
C50   C     C_R   0.099216 0.489959 0.198552 0.490461
C51   C     C_2   0.991114 0.537604 0.990678 -0.244277
C52   C     C_2   0.011787 0.466644 0.009331 -0.246023
Cu1   Cu    Cu3+1 0.916740 0.524770 0.521640 0.963545
Cu2   Cu    Cu3+1 0.083260 0.475230 0.478360 0.960860
H1    H     H_    0.149362 0.535282 0.714211 0.240451
H2    H     H_    0.851796 0.466938 0.285360 0.239936
H3    H     H_    0.538229 0.206751 0.551817 0.179160
H4    H     H_    0.461501 0.793770 0.442959 0.132298
H5    H     H_    0.469092 0.302616 0.321081 0.199251
H6    H     H_    0.531581 0.698716 0.678497 0.206523
H7    H     H_    0.716066 0.439113 0.473744 0.185732
H8    H     H_    0.284543 0.562215 0.525136 0.186197
H9    H     H_    0.856122 0.683503 0.643451 0.140049
H10   H     H_    0.143366 0.314326 0.357722 0.144571
H11   H     H_    0.041316 0.414765 0.961040 0.176105
H12   H     H_    0.961535 0.589452 0.038960 0.178641
H13   H     H_    0.838487 0.522417 0.931184 0.162340
H14   H     H_    0.163595 0.480692 0.069270 0.161752
H15   H     H_    0.685877 0.235906 0.484456 0.144975
H16   H     H_    0.314791 0.765120 0.512998 0.145751
H17   H     H_    0.930110 0.149727 0.478828 0.158769
H18   H     H_    0.068258 0.848713 0.521258 0.187848
N1    N     N_R   0.208390 0.438070 0.445820 -0.220304
N2    N     N_R   0.791610 0.561930 0.554180 -0.222001
O1    O     O_R   0.020090 0.662480 0.528530 -0.590680
O2    O     O_R   0.979910 0.337520 0.471470 -0.588445
O3    O     O_R   0.160710 0.620650 0.491980 -0.596120
O4    O     O_R   0.839290 0.379350 0.508020 -0.597716
O5    O     O_R   0.921540 0.523360 0.633990 -0.531009
O6    O     O_R   0.078460 0.476640 0.366010 -0.530945
O7    O     O_R   0.062170 0.481520 0.597440 -0.582171
O8    O     O_R   0.937830 0.518480 0.402560 -0.583385
O9    O     O_3   0.295394 0.240802 0.302649 -0.581967
C53   C     C_3   0.202516 0.155035 0.309961 -0.319681
H19   H     H_    0.148090 0.160566 0.280117 0.174376
H20   H     H_    0.166753 0.144453 0.375074 0.154623
H21   H     H_    0.218793 0.085515 0.276822 0.200183
O10   O     O_3   0.703198 0.757962 0.699410 -0.583344
C54   C     C_3   0.798877 0.839469 0.701858 -0.244013
H22   H     H_    0.844739 0.854172 0.639362 0.189708
H23   H     H_    0.842725 0.825138 0.736710 0.152704
H24   H     H_    0.785015 0.910109 0.735382 0.199297
O11   O     O_3   0.643133 0.406431 0.367802 -0.573802
C55   C     C_3   0.636538 0.303755 0.347897 -0.339548
H25   H     H_    0.613539 0.267016 0.287584 0.203973
H26   H     H_    0.583845 0.257783 0.396482 0.154673
H27   H     H_    0.713673 0.303567 0.341507 0.179340
O12   O     O_3   0.358439 0.596652 0.630808 -0.560895
C56   C     C_3   0.365655 0.699476 0.649625 -0.345187
H28   H     H_    0.418210 0.744442 0.600389 0.141573
H29   H     H_    0.389203 0.737138 0.709647 0.207533
H30   H     H_    0.288601 0.699909 0.656084 0.181160
O13   O     O_3   0.189153 0.502677 0.217686 -0.558940
C57   C     C_3   0.250112 0.607903 0.228740 -0.266054
H31   H     H_    0.321446 0.618497 0.245742 0.195650
H32   H     H_    0.272370 0.638787 0.170832 0.151838
H33   H     H_    0.210659 0.652199 0.279775 0.144727
O14   O     O_3   0.811641 0.498377 0.782821 -0.560215
C58   C     C_3   0.750820 0.393095 0.772651 -0.260964
H34   H     H_    0.790098 0.348465 0.721800 0.145351
H35   H     H_    0.679153 0.381916 0.755871 0.199986
H36   H     H_    0.729165 0.363049 0.830885 0.150776
C59   C     C_2   0.817222 0.437470 0.134351 0.366675
H37   H     H_    0.808857 0.414247 0.070681 0.080963
O15   O     O_2   0.743408 0.444336 0.187608 -0.503668
C60   C     C_2   0.185191 0.566750 0.865110 0.363004
H38   H     H_    0.193868 0.590335 0.928707 0.082175
O16   O     O_2   0.258965 0.560124 0.811691 -0.501453
C61   C     C_2   0.349114 0.190534 0.585477 0.335690
H39   H     H_    0.272850 0.174356 0.623565 0.096069
O17   O     O_2   0.403784 0.279382 0.579423 -0.547211
C62   C     C_2   0.648422 0.809758 0.406811 0.453654
H40   H     H_    0.599877 0.731816 0.415732 0.059471
O18   O     O_2   0.728890 0.825010 0.356223 -0.537000
C63   C     C_2   0.173450 0.045688 0.512022 0.287781
H41   H     H_    0.224712 0.112818 0.484728 0.086836
O19   O     O_2   0.081915 0.029350 0.531404 -0.576974
C64   C     C_2   0.824767 0.955551 0.488593 0.424134
H42   H     H_    0.905711 0.968891 0.467648 0.111263
O20   O     O_2   0.769867 0.886265 0.527342 -0.564505

loop_
_geom_bond_atom_site_label_1
_geom_bond_atom_site_label_2
_ccdc_geom_bond_type
C15   C18   A    
O11   C55   S    
C29   C33   A    
C27   C29   A    
C1    O3    A    
Cu1   N2    S    
C53   H21   S    
C4    C8    A    
C28   N2    A    
C64   H42   S    
C57   H32   S    
C39   C41   A    
Cu1   Cu2   S    
O14   C58   S    
C21   C31   A    
C22   C32   A    
C3    C9    A    
C35   C37   A    
C53   H20   S    
C3    C7    A    
C58   H35   S    
C23   C39   S    
C45   C51   S    
C15   C16   A    
C46   C52   S    
C33   C36   A    
C60   H38   S    
C18   C20   A    
C34   C35   A    
C45   C47   A    
C24   O8    A    
C41   H1    S    
C42   H2    S    
C11   C15   A    
C24   O6    A    
C21   O9    S    
C60   O16   D    
C16   C17   A    
C32   C38   A    
C54   H23   S    
C20   C62   S    
Cu2   O3    S    
C28   H7    S    
C61   O17   D    
C19   C61   S    
C50   O13   S    
C41   C43   A    
Cu1   O1    S    
C42   C44   A    
C12   C16   A    
C47   H13   S    
C57   H31   S    
C44   C46   A    
C49   O14   S    
Cu2   O6    S    
C35   O11   S    
C46   C48   A    
C30   C34   A    
C51   C52   D    
C1    O1    A    
C14   C20   A    
C53   H19   S    
C47   C49   A    
C58   H36   S    
C7    H18   S    
C5    C7    A    
C13   C19   A    
C6    C8    A    
C55   H27   S    
C31   C37   A    
C56   H29   S    
Cu1   O8    S    
C1    C3    S    
C51   H12   S    
C2    C4    S    
C26   H9    S    
C2    O4    A    
C27   H8    S    
C43   C60   S    
C6    C14   A    
Cu2   N1    S    
C43   C45   A    
O9    C53   S    
C33   C34   A    
C48   H14   S    
C54   H24   S    
C55   H26   S    
C48   C50   A    
C9    C11   A    
C37   H5    S    
C10   C12   A    
C38   H6    S    
C39   C49   A    
C12   C14   A    
C44   C59   S    
C22   O10   S    
C63   H41   S    
Cu2   O2    S    
C62   O18   D    
C36   C38   A    
C2    O2    A    
C59   H37   S    
C21   C25   A    
C24   C40   S    
C8    H17   S    
C23   O7    A    
Cu1   O5    S    
C5    C13   A    
C64   O20   D    
C61   H39   S    
C56   H28   S    
C28   C30   A    
Cu1   O4    S    
C54   H22   S    
C6    C64   S    
C29   C31   A    
C58   H34   S    
C30   C32   A    
C11   C13   A    
C40   C50   A    
C40   C42   A    
C17   C19   A    
C18   H4    S    
C25   N1    A    
C57   H33   S    
C55   H25   S    
C9    H16   S    
C10   H15   S    
C56   H30   S    
O10   C54   S    
C26   N2    A    
O12   C56   S    
C22   C26   A    
C5    C63   S    
O13   C57   S    
C63   O19   D    
C36   O12   S    
C23   O5    A    
C62   H40   S    
C27   N1    A    
C4    C10   A    
C25   H10   S    
Cu2   O7    S    
C52   H11   S    
C17   H3    S    
C59   O15   D    
