data_mof_unit_11168.cif
_audit_creation_date              2012-12-11T14:54:34-0500
_audit_creation_method            fapswitch 2.2
_symmetry_space_group_name_H-M    P1
_symmetry_Int_Tables_number       1
_space_group_crystal_system       triclinic
_cell_length_a                    18.981811
_cell_length_b                    10.915235
_cell_length_c                    18.866561
_cell_angle_alpha                 89.903841
_cell_angle_beta                  90.230089
_cell_angle_gamma                 89.963547
_cell_volume                      3908.94244521

loop_
_atom_site_label
_atom_site_type_symbol
_atom_type_description
_atom_site_fract_x
_atom_site_fract_y
_atom_site_fract_z
_atom_type_partial_charge
C1    C     C_R   0.729675 0.376060 0.645466 0.535957
C2    C     C_R   0.303080 0.868003 0.463242 -0.142743
C3    C     C_R   0.942744 0.551365 0.479223 -0.157083
C4    C     C_R   0.197321 0.367366 0.537049 -0.142123
C5    C     C_R   0.798801 0.357845 0.460881 -0.150599
C6    C     C_R   0.703767 0.844733 0.465985 -0.139076
C7    C     C_R   0.300816 0.855122 0.536614 -0.134530
C8    C     C_R   0.199590 0.354193 0.463706 -0.134551
C9    C     C_R   0.797018 0.346620 0.534368 -0.139491
C10   C     C_R   0.753303 0.911473 0.426420 0.032340
C11   C     C_R   0.249703 0.918744 0.575743 0.024447
C12   C     C_R   0.250303 0.418373 0.424297 0.023343
C13   C     C_R   0.269638 0.377538 0.353813 0.545573
C14   C     C_R   0.746238 0.411317 0.573362 0.033473
C15   C     C_R   0.799074 0.992672 0.460392 -0.132751
C16   C     C_R   0.204967 0.002039 0.541871 -0.146138
C17   C     C_R   0.294641 0.502405 0.457876 -0.146010
C18   C     C_R   0.699038 0.489500 0.538725 -0.132952
C19   C     C_R   0.798915 0.001319 0.532800 -0.113205
C20   C     C_R   0.205091 0.010642 0.469309 -0.106013
C21   C     C_R   0.294465 0.511459 0.530431 -0.105871
C22   C     C_R   0.699173 0.497114 0.466307 -0.114942
C23   C     C_R   0.749693 0.935415 0.573057 0.034642
C24   C     C_R   0.230384 0.877735 0.646227 0.545215
C25   C     C_R   0.253645 0.943284 0.429115 0.041561
C26   C     C_R   0.246351 0.443526 0.570896 0.041390
C27   C     C_R   0.749899 0.433799 0.426636 0.034636
C28   C     C_R   0.466152 0.068584 0.951500 0.216556
C29   C     C_R   0.457163 0.060534 0.024851 0.236438
C30   C     C_R   0.966131 0.568594 0.951488 0.216831
C31   C     C_R   0.957141 0.560543 0.024841 0.235773
C32   C     C_R   0.479622 0.159045 0.068614 0.031587
C33   C     C_R   0.502259 0.168661 0.923205 0.046264
C34   C     C_R   0.979601 0.659049 0.068605 0.029186
C35   C     C_R   0.770277 0.875944 0.354503 0.536329
C36   C     C_R   0.002245 0.668666 0.923196 0.047181
C37   C     C_R   0.511411 0.262151 0.039085 -0.223047
C38   C     C_R   0.524199 0.265710 0.966858 -0.208295
C39   C     C_R   0.011393 0.762154 0.039077 -0.222217
C40   C     C_R   0.024184 0.765713 0.966851 -0.207206
C41   C     C_R   0.564799 0.150834 0.639261 0.576193
C42   C     C_R   0.469100 0.155020 0.353359 0.541814
C43   C     C_R   0.030872 0.655148 0.646655 0.547858
C44   C     C_R   0.935232 0.650735 0.360747 0.574262
C45   C     C_R   0.814837 0.911900 0.955769 0.224567
C46   C     C_3   0.468854 0.374929 0.467519 0.103643
C47   C     C_R   0.214948 0.031323 0.024902 0.215674
C48   C     C_R   0.314841 0.411906 0.955769 0.224952
C49   C     C_R   0.714957 0.531332 0.024900 0.216021
C50   C     C_R   0.820694 0.898244 0.028625 -0.176125
C51   C     C_R   0.215673 0.012426 0.952486 -0.168196
C52   C     C_R   0.320697 0.398253 0.028626 -0.176966
C53   C     C_R   0.715681 0.512433 0.952484 -0.168970
C54   C     C_R   0.760672 0.901027 0.072061 0.063362
C55   C     C_R   0.248578 0.909840 0.924515 0.063259
C56   C     C_R   0.260674 0.401022 0.072059 0.063629
C57   C     C_3   0.490279 0.372461 0.545513 0.168484
C58   C     C_R   0.748578 0.409838 0.924515 0.062259
C59   C     C_R   0.693361 0.913260 0.042843 0.222076
C60   C     C_R   0.285784 0.827084 0.968860 0.228977
C61   C     C_R   0.193362 0.413236 0.042839 0.222480
C62   C     C_R   0.785777 0.327074 0.968862 0.229408
C63   C     C_R   0.687297 0.925556 0.969384 -0.195067
C64   C     C_R   0.285702 0.846631 0.041849 -0.155442
C65   C     C_R   0.187299 0.425530 0.969380 -0.195703
C66   C     C_R   0.785694 0.346622 0.041851 -0.156287
C67   C     C_R   0.747854 0.927273 0.926381 0.048524
C68   C     C_3   0.009061 0.872883 0.454231 0.168105
C69   C     C_R   0.251033 0.947714 0.069719 0.053338
C70   C     C_R   0.247857 0.427265 0.926379 0.048552
C71   C     C_R   0.751033 0.447715 0.069719 0.052570
C72   C     C_R   0.741111 0.971091 0.646590 0.538891
C73   C     C_R   0.259740 0.973512 0.354410 0.553716
C74   C     C_R   0.240245 0.473718 0.645576 0.560169
C75   C     C_R   0.758787 0.470565 0.353272 0.532045
C76   C     C_R   0.729681 0.376294 0.852907 0.576924
C77   C     C_R   0.271589 0.375920 0.146446 0.602809
C78   C     C_R   0.229681 0.876294 0.852908 0.579075
C79   C     C_3   0.030430 0.875410 0.532237 0.103228
C80   C     C_R   0.771588 0.875923 0.146448 0.600556
C81   C     C_R   0.531843 0.157701 0.852873 0.608012
C82   C     C_R   0.462974 0.155717 0.143864 0.586616
C83   C     C_R   0.031838 0.657702 0.852870 0.596269
C84   C     C_R   0.962958 0.655716 0.143857 0.596733
C85   C     C_R   0.740804 0.971391 0.854468 0.603549
C86   C     C_R   0.259420 0.976616 0.143961 0.581383
C87   C     C_R   0.240805 0.471388 0.854468 0.604882
C88   C     C_R   0.759419 0.476616 0.143961 0.579682
C89   C     C_R   0.512151 0.162510 0.418120 -0.010377
C90   C     C_R   0.701957 0.856802 0.539409 -0.150498
C91   C     C_R   0.552716 0.157829 0.562506 0.000352
C92   C     C_R   0.947440 0.657654 0.437470 0.001259
C93   C     C_R   0.987793 0.662630 0.581901 -0.009404
C94   C     C_R   0.519322 0.271425 0.456632 0.016176
C95   C     C_R   0.539193 0.268956 0.527617 -0.005660
C96   C     C_R   0.960503 0.768901 0.472215 -0.003834
C97   C     C_R   0.980313 0.771497 0.543215 0.017883
C98   C     C_R   0.557791 0.051600 0.520898 -0.156453
C99   C     C_R   0.538424 0.053969 0.449235 -0.145942
C100  C     C_R   0.961912 0.553899 0.550914 -0.145514
Cr1   Cr    Cr6+3 0.771950 0.169480 0.750100 1.085449
Cr2   Cr    Cr6+3 0.383410 0.010620 0.249390 1.062620
Cr3   Cr    Cr6+3 0.116590 0.510620 0.750610 1.033373
Cr4   Cr    Cr6+3 0.883410 0.510620 0.249390 1.057742
Cr5   Cr    Cr6+3 0.228050 0.169480 0.249900 1.098051
Cr6   Cr    Cr6+3 0.271950 0.669480 0.750100 1.103647
Cr7   Cr    Cr6+3 0.728050 0.669480 0.249900 1.079335
Cr8   Cr    Cr6+3 0.614930 0.323340 0.749170 1.050578
Cr9   Cr    Cr6+3 0.385070 0.323340 0.250830 1.013074
Cr10  Cr    Cr6+3 0.114930 0.823340 0.749170 1.023070
Cr11  Cr    Cr6+3 0.885070 0.823340 0.250830 1.041009
Cr12  Cr    Cr6+3 0.616590 0.010620 0.750610 1.028556
H1    H     H_    0.980463 0.955900 0.435568 0.184292
H2    H     H_    0.165813 0.053845 0.570847 0.148030
H3    H     H_    0.333487 0.554621 0.428679 0.148242
H4    H     H_    0.659071 0.540291 0.567178 0.132036
H5    H     H_    0.836395 0.063582 0.556764 0.157177
H6    H     H_    0.167327 0.072156 0.445009 0.156440
H7    H     H_    0.331836 0.573713 0.554516 0.155506
H8    H     H_    0.660593 0.557068 0.441905 0.158908
H9    H     H_    0.528082 0.337972 0.072114 0.149466
H10   H     H_    0.553472 0.342517 0.945578 0.156927
H11   H     H_    0.028064 0.837974 0.072106 0.152027
H12   H     H_    0.086458 0.851789 0.543272 0.141943
H13   H     H_    0.053460 0.842517 0.945572 0.157427
H14   H     H_    0.571425 0.964750 0.544910 0.139946
H15   H     H_    0.537427 0.968071 0.420591 0.149187
H16   H     H_    0.963139 0.467958 0.579678 0.149819
H17   H     H_    0.929558 0.464401 0.455328 0.139280
H18   H     H_    0.916249 0.918359 0.942724 0.323631
H19   H     H_    0.152338 0.172407 0.014402 0.320761
H20   H     H_    0.416254 0.418365 0.942728 0.323717
H21   H     H_    0.652359 0.672432 0.014399 0.320782
H22   H     H_    0.872547 0.883843 0.051374 0.134001
H23   H     H_    0.412893 0.350894 0.456568 0.143310
H24   H     H_    0.187596 0.075379 0.917922 0.123238
H25   H     H_    0.372550 0.383864 0.051375 0.134731
H26   H     H_    0.687610 0.575391 0.917919 0.122905
H27   H     H_    0.592082 0.923044 0.057103 0.324614
H28   H     H_    0.343318 0.679810 0.979108 0.316358
H29   H     H_    0.092081 0.422995 0.057094 0.324902
H30   H     H_    0.843302 0.179791 0.979110 0.316458
H31   H     H_    0.635583 0.940443 0.946372 0.122555
H32   H     H_    0.313522 0.784193 0.076897 0.124068
H33   H     H_    0.135584 0.440403 0.946367 0.123005
H34   H     H_    0.518579 0.455697 0.564045 0.183648
H35   H     H_    0.813508 0.284177 0.076899 0.123761
H36   H     H_    0.474867 0.476634 0.384173 0.345761
H37   H     H_    0.412838 0.262235 0.572530 0.323403
H38   H     H_    0.086922 0.763400 0.427413 0.322609
H39   H     H_    0.024029 0.976897 0.615446 0.346450
H40   H     H_    0.663088 0.806445 0.569572 0.118814
H41   H     H_    0.342678 0.818910 0.433384 0.130698
H42   H     H_    0.158045 0.317781 0.567112 0.130926
H43   H     H_    0.838686 0.309250 0.431152 0.117727
H44   H     H_    0.465511 0.903766 0.916909 0.320672
H45   H     H_    0.668288 0.780678 0.440600 0.129775
H46   H     H_    0.425986 0.889478 0.022216 0.328869
H47   H     H_    0.965478 0.403777 0.916894 0.320846
H48   H     H_    0.925974 0.389483 0.022209 0.329287
H49   H     H_    0.336681 0.791751 0.562196 0.131755
H50   H     H_    0.164051 0.290213 0.438374 0.131504
H51   H     H_    0.833667 0.285031 0.560294 0.128741
H52   H     H_    0.838005 0.045086 0.431423 0.131650
O1    O     O_R   0.787510 0.042610 0.670410 -0.519552
O2    O     O_R   0.454250 0.051070 0.169440 -0.437323
O3    O     O_R   0.045750 0.551070 0.830560 -0.490139
O4    O     O_R   0.954250 0.551070 0.169440 -0.432380
O5    O     O_R   0.681210 0.959150 0.825320 -0.536887
O6    O     O_R   0.318790 0.959150 0.174680 -0.485960
O7    O     O_R   0.181210 0.459150 0.825320 -0.537426
O8    O     O_R   0.818790 0.459150 0.174680 -0.485235
O9    O     O_3   0.667820 0.167810 0.749960 -0.301630
O10   O     O_3   0.332180 0.167810 0.250040 -0.278220
O11   O     O_3   0.167820 0.667810 0.749960 -0.277195
O12   O     O_R   0.212490 0.042610 0.329590 -0.512073
O13   O     O_3   0.832180 0.667810 0.250040 -0.302414
O14   O     O_R   0.765670 0.292090 0.675090 -0.512776
O15   O     O_R   0.234330 0.292090 0.324910 -0.508201
O16   O     O_R   0.265670 0.792090 0.675090 -0.509869
O17   O     O_R   0.734330 0.792090 0.324910 -0.511126
O18   O     O_R   0.670220 0.409020 0.668560 -0.535667
O19   O     O_R   0.329780 0.409020 0.331440 -0.536030
O20   O     O_R   0.170220 0.909020 0.668560 -0.536072
O21   O     O_R   0.829780 0.909020 0.331440 -0.535241
O22   O     O_R   0.556580 0.251590 0.674980 -0.454869
O23   O     O_R   0.287510 0.542610 0.670410 -0.506672
O24   O     O_R   0.443420 0.251590 0.325020 -0.510687
O25   O     O_R   0.056580 0.751590 0.674980 -0.507838
O26   O     O_R   0.943420 0.751590 0.325020 -0.458599
O27   O     O_R   0.545890 0.049670 0.670030 -0.505202
O28   O     O_R   0.454110 0.049670 0.329970 -0.518501
O29   O     O_R   0.045890 0.549670 0.670030 -0.514059
O30   O     O_R   0.954110 0.549670 0.329970 -0.511822
O31   O     O_R   0.681340 0.957860 0.676500 -0.527583
O32   O     O_R   0.318660 0.957860 0.323500 -0.513355
O33   O     O_R   0.181340 0.457860 0.676500 -0.510124
O34   O     O_R   0.712490 0.542610 0.329590 -0.525610
O35   O     O_R   0.818660 0.457860 0.323500 -0.530405
O36   O     O_R   0.787380 0.044010 0.830940 -0.412635
O37   O     O_R   0.212620 0.044010 0.169060 -0.448221
O38   O     O_R   0.287380 0.544010 0.830940 -0.411031
O39   O     O_R   0.712620 0.544010 0.169060 -0.450821
O40   O     O_R   0.765540 0.293390 0.823910 -0.427134
O41   O     O_R   0.234460 0.293390 0.176090 -0.420272
O42   O     O_R   0.265540 0.793390 0.823910 -0.428250
O43   O     O_R   0.734460 0.793390 0.176090 -0.418946
O44   O     O_R   0.670090 0.410410 0.829090 -0.545487
O45   O     O_R   0.556450 0.252890 0.823790 -0.500043
O46   O     O_R   0.329910 0.410410 0.170910 -0.548713
O47   O     O_R   0.170090 0.910410 0.829090 -0.545257
O48   O     O_R   0.829910 0.910410 0.170910 -0.549205
O49   O     O_3   0.873493 0.913587 0.912656 -0.664399
O50   O     O_3   0.179627 0.131159 0.052497 -0.647297
O51   O     O_3   0.373498 0.413604 0.912658 -0.658315
O52   O     O_3   0.679645 0.631179 0.052495 -0.647269
O53   O     O_3   0.635175 0.914578 0.086596 -0.666921
O54   O     O_3   0.319907 0.726659 0.940563 -0.653306
O55   O     O_3   0.135175 0.414538 0.086589 -0.663672
O56   O     O_R   0.443550 0.252890 0.176210 -0.522486
O57   O     O_3   0.819894 0.226643 0.940565 -0.653097
O58   O     O_3   0.491795 0.482153 0.433867 -0.729912
O59   O     O_3   0.434947 0.338294 0.591035 -0.684242
O60   O     O_3   0.064549 0.839299 0.408793 -0.690084
O61   O     O_3   0.007098 0.982377 0.565737 -0.727716
O62   O     O_3   0.439270 0.980421 0.906714 -0.662708
O63   O     O_3   0.424623 0.959948 0.054890 -0.674566
O64   O     O_3   0.939245 0.480440 0.906699 -0.666686
O65   O     O_3   0.924600 0.459958 0.054879 -0.674727
O66   O     O_R   0.056450 0.752890 0.823790 -0.507227
O67   O     O_R   0.943550 0.752890 0.176210 -0.514734
O68   O     O_R   0.545750 0.051070 0.830560 -0.486624

loop_
_geom_bond_atom_site_label_1
_geom_bond_atom_site_label_2
_ccdc_geom_bond_type
C58   C62   A    
C81   O45   A    
C21   C26   A    
Cr2   O6    S    
C88   O8    A    
C24   O20   A    
Cr11  O67   S    
C72   O1    A    
C14   C18   A    
C4    H42   S    
C2    C7    A    
C57   C95   S    
C4    C8    A    
C72   O31   A    
C20   H6    S    
Cr8   O45   S    
Cr1   O36   S    
C58   C76   S    
Cr10  O11   S    
C7    C11   A    
C7    H49   S    
C49   O52   S    
C32   C37   A    
C50   C54   A    
C100  H16   S    
Cr7   O17   S    
C40   H13   S    
Cr8   O22   S    
C28   C29   A    
C51   H24   S    
Cr6   O23   S    
C29   C32   A    
C60   O54   S    
C10   C15   A    
C17   H3    S    
C82   O2    A    
C30   C31   A    
Cr4   O4    S    
C20   C25   A    
C22   H8    S    
C36   C83   S    
H44   O62   S    
C65   C70   A    
C47   O50   S    
C11   C24   S    
C92   C96   A    
C39   H11   S    
C76   O44   A    
H18   O49   S    
Cr3   O33   S    
C62   O57   S    
C89   C94   A    
C9    H51   S    
C84   O67   A    
H36   O58   S    
Cr11  O48   S    
C47   C69   A    
Cr1   O14   S    
Cr10  O66   S    
C44   O26   A    
C46   H23   S    
C5    C27   A    
Cr5   O37   S    
C3    C100  A    
C47   C51   A    
Cr4   O13   S    
C13   O19   A    
Cr5   O12   S    
C12   C17   A    
Cr8   O44   S    
C45   O49   S    
Cr6   O11   S    
C10   C35   S    
C87   O38   A    
Cr7   O43   S    
C44   C92   S    
C16   C20   A    
C68   H1    S    
C80   O48   A    
Cr9   O19   S    
C68   C79   S    
Cr12  O9    S    
C48   O51   S    
Cr10  O20   S    
Cr2   O2    S    
C3    H17   S    
C55   C60   A    
C96   C97   A    
H19   O50   S    
Cr3   O7    S    
Cr7   O39   S    
C68   O60   S    
C34   C84   S    
Cr5   O15   S    
C27   C75   S    
C70   C87   S    
Cr6   O16   S    
C25   C73   S    
C54   C80   S    
C54   C59   A    
Cr9   O24   S    
C63   C67   A    
Cr11  O21   S    
C67   C85   S    
Cr1   O9    S    
C62   C66   A    
C86   O37   A    
C53   H26   S    
C30   O64   S    
C15   H52   S    
C36   C40   A    
C90   H40   S    
C59   O53   S    
C18   H4    S    
C39   C40   A    
C55   C78   S    
C41   O27   A    
Cr9   O10   S    
C99   H15   S    
C64   H32   S    
C5    H43   S    
C83   O3    A    
C81   O68   A    
C42   O28   A    
C85   O5    A    
C56   C77   S    
C34   C39   A    
Cr2   O32   S    
C3    C92   A    
C15   C19   A    
C9    C14   A    
C78   O42   A    
Cr12  O31   S    
C5    C9    A    
C37   C38   A    
C84   O4    A    
Cr8   O18   S    
C77   O41   A    
Cr6   O38   S    
C1    O14   A    
H27   O53   S    
C85   O36   A    
Cr2   O28   S    
Cr12  O5    S    
C46   C94   S    
C74   O33   A    
C48   C52   A    
C8    C12   A    
C87   O7    A    
Cr8   O9    S    
Cr3   O11   S    
C52   H25   S    
C23   C90   A    
C82   O56   A    
C94   C95   A    
C56   C61   A    
H20   O51   S    
C68   C96   S    
Cr3   O3    S    
Cr1   O1    S    
C93   C100  A    
C19   H5    S    
C66   H35   S    
C38   H10   S    
C66   C71   A    
C37   H9    S    
C77   O46   A    
H28   O54   S    
H39   O61   S    
C89   C99   A    
C28   C33   A    
C2    H41   S    
C75   O35   A    
Cr5   O10   S    
C46   C57   S    
C50   H22   S    
C22   C27   A    
Cr4   O35   S    
C35   O17   A    
C29   O63   S    
C65   H33   S    
Cr9   O46   S    
C78   O47   A    
C93   C97   A    
Cr4   O8    S    
C6    H45   S    
C31   C34   A    
C19   C23   A    
C74   O23   A    
C57   O59   S    
C75   O34   A    
C42   O24   A    
Cr4   O30   S    
H30   O57   S    
C41   C91   S    
C86   O6    A    
H21   O52   S    
H38   O60   S    
C23   C72   S    
C79   C97   S    
C61   O55   S    
C48   C70   A    
Cr1   O40   S    
C16   H2    S    
Cr6   O42   S    
Cr7   O34   S    
C4    C26   A    
C53   C58   A    
C76   O40   A    
Cr5   O41   S    
C45   C67   A    
C83   O66   A    
C30   C36   A    
Cr2   O10   S    
C64   C69   A    
C79   H12   S    
Cr10  O25   S    
C59   C63   A    
C33   C38   A    
Cr12  O68   S    
C60   C64   A    
C43   O29   A    
C42   C89   S    
Cr10  O47   S    
C18   C22   A    
C21   H7    S    
Cr9   O56   S    
C13   O15   A    
C35   O21   A    
H29   O55   S    
C32   C82   S    
C28   O62   S    
C91   C98   A    
C45   C50   A    
C73   O12   A    
C49   C53   A    
C24   O16   A    
C31   O65   S    
C44   O30   A    
C43   C93   S    
C41   O22   A    
C2    C25   A    
C51   C55   A    
C88   O39   A    
C46   O58   S    
C17   C21   A    
C1    O18   A    
C11   C16   A    
H47   O64   S    
C6    C10   A    
C91   C95   A    
C71   C88   S    
C61   C65   A    
C98   H14   S    
C80   O43   A    
C6    C90   A    
C12   C13   S    
C43   O25   A    
Cr11  O26   S    
C26   C74   S    
C98   C99   A    
C49   C71   A    
C73   O32   A    
Cr11  O13   S    
C63   H31   S    
H48   O65   S    
C8    H50   S    
C1    C14   S    
H37   O59   S    
C57   H34   S    
C33   C81   S    
H46   O63   S    
C79   O61   S    
Cr7   O13   S    
C69   C86   S    
C52   C56   A    
Cr3   O29   S    
Cr12  O27   S    
