data_mof_unit_8952.cif
_audit_creation_date              2012-12-10T17:07:12-0500
_audit_creation_method            fapswitch 2.2
_symmetry_space_group_name_H-M    P1
_symmetry_Int_Tables_number       1
_space_group_crystal_system       triclinic
_cell_length_a                    10.380856
_cell_length_b                    10.611828
_cell_length_c                    13.594505
_cell_angle_alpha                 93.768937
_cell_angle_beta                  82.202192
_cell_angle_gamma                 88.006166
_cell_volume                      1479.06404183

loop_
_atom_site_label
_atom_site_type_symbol
_atom_type_description
_atom_site_fract_x
_atom_site_fract_y
_atom_site_fract_z
_atom_type_partial_charge
C1    C     C_R   0.498835 0.735697 0.493276 0.914306
C2    C     C_R   0.502006 0.263818 0.502596 0.773955
C3    C     C_R   0.524370 0.499434 0.315118 0.861313
C4    C     C_1   0.543243 0.501290 0.210921 -0.133643
C5    C     C_2   0.557043 0.507136 0.018628 0.301665
C6    C     C_2   0.443239 0.524738 0.983427 0.348764
C7    C     C_1   0.445547 0.517303 0.877707 -0.069468
C8    C     C_1   0.554247 0.503696 0.122905 -0.009901
C9    C     C_3   0.224749 0.596354 0.007953 0.132523
C10   C     C_3   0.111640 0.631547 0.089639 -0.781643
C11   C     C_3   0.380179 0.136521 0.663232 0.123323
C12   C     C_1   0.456306 0.509650 0.789351 -0.104685
C13   C     C_3   0.343862 0.057774 0.751508 -0.793815
C14   C     C_3   0.808227 0.932153 0.346978 0.131953
C15   C     C_3   0.929273 0.848791 0.309053 -0.787243
C16   C     C_3   0.153822 0.662403 0.619861 0.404014
C17   C     C_3   0.087917 0.722050 0.721374 -0.789593
C18   C     C_2   0.575552 0.063136 0.429400 -0.418874
C19   C     C_2   0.510975 0.129984 0.509312 0.324347
C20   C     C_2   0.595303 0.925440 0.430249 0.568289
C21   C     C_2   0.492939 0.865703 0.472581 -0.317888
C22   C     C_2   0.081512 0.409186 0.464843 0.059250
C23   C     C_2   0.934891 0.402114 0.484753 0.033341
C24   C     C_R   0.475569 0.501813 0.684879 0.863130
H1    H     H_    0.610562 0.109631 0.362552 0.104511
H2    H     H_    0.739208 0.756324 0.695384 0.367279
H3    H     H_    0.828678 0.550651 0.054510 0.340396
H4    H     H_    0.293732 0.145447 0.623287 0.151755
H5    H     H_    0.406296 0.231384 0.692112 0.151863
H6    H     H_    0.426906 0.049516 0.794660 0.269677
H7    H     H_    0.258675 0.103452 0.800835 0.221922
H8    H     H_    0.318695 0.961721 0.724944 0.237839
H9    H     H_    0.833890 0.004604 0.403305 0.158183
H10   H     H_    0.777430 0.978137 0.282204 0.131312
H11   H     H_    0.906301 0.774591 0.253355 0.251861
H12   H     H_    0.397921 0.914623 0.491538 0.125917
H13   H     H_    0.006938 0.906941 0.273437 0.195826
H14   H     H_    0.965386 0.802845 0.371650 0.287492
H15   H     H_    0.150813 0.728016 0.559795 0.131183
H16   H     H_    0.251707 0.662578 0.635342 0.151820
H17   H     H_    0.080527 0.650102 0.777457 0.272018
H18   H     H_    0.146998 0.799207 0.748309 0.158236
H19   H     H_    0.990703 0.766392 0.718493 0.291303
H20   H     H_    0.133570 0.335750 0.413916 0.069903
H21   H     H_    0.899127 0.314253 0.455872 0.060331
H22   H     H_    0.190595 0.528900 0.951846 0.175235
H23   H     H_    0.255347 0.684490 0.972761 0.134020
H24   H     H_    0.143581 0.697411 0.147591 0.251131
H25   H     H_    0.031279 0.678705 0.057688 0.211517
H26   H     H_    0.075437 0.545363 0.124414 0.267337
N1    N     N_2   0.147970 0.498670 0.498970 0.052428
N2    N     N_2   0.852310 0.498640 0.498940 0.054695
O1    O     O_R   0.386960 0.680940 0.500020 -0.703546
O2    O     O_2   0.895857 0.554872 0.683858 -0.200589
O3    O     O_2   0.935086 0.717053 0.553518 -0.375073
O4    O     O_3   0.714536 0.693167 0.645065 -0.474975
O5    O     O_2   0.712207 0.375511 0.870589 -0.236366
O6    O     O_2   0.733439 0.604616 0.885206 -0.288056
O7    O     O_3   0.830095 0.470107 0.013123 -0.530672
O8    O     O_3   0.487079 0.075732 0.600634 -0.615326
O9    O     O_3   0.709449 0.856192 0.389347 -0.580387
O10   O     O_3   0.108006 0.538694 0.595612 -0.461496
O11   O     O_R   0.613100 0.680900 0.499980 -0.468856
O12   O     O_R   0.370650 0.500000 0.640370 -0.646762
O13   O     O_R   0.596800 0.499960 0.640330 -0.491954
O14   O     O_R   0.386900 0.319100 0.500020 -0.637479
O15   O     O_R   0.613040 0.319060 0.499980 -0.624521
O16   O     O_R   0.403200 0.500040 0.359670 -0.601780
O17   O     O_R   0.629350 0.500000 0.359630 -0.619024
O18   O     O_3   0.327671 0.539821 0.050189 -0.621583
S1    S     S_3+6 0.853740 0.614679 0.595472 0.175859
S2    S     S_3+6 0.710554 0.489340 0.942693 0.040426
Zn1   Zn    Zn3+2 0.349000 0.500030 0.500020 0.955918
Zn2   Zn    Zn3+2 0.651000 0.499970 0.499980 1.095830

loop_
_geom_bond_atom_site_label_1
_geom_bond_atom_site_label_2
_ccdc_geom_bond_type
O3    S1    D    
C14   H10   S    
C5    C8    S    
O12   Zn1   S    
C17   H19   S    
C15   H14   S    
C1    C21   S    
C6    C7    S    
C23   H21   S    
O11   Zn2   S    
C19   O8    S    
C10   H25   S    
C9    C10   S    
C12   C24   S    
C13   H8    S    
C18   C20   S    
C3    O16   A    
N2    S1    S    
O7    S2    S    
C4    C8    T    
O4    S1    S    
C14   H9    S    
C14   C15   S    
O16   Zn1   S    
C9    H22   S    
C24   O12   A    
C21   H12   S    
H3    O7    S    
C11   O8    S    
C20   C21   D    
C11   C13   S    
O6    S2    D    
C23   N2    D    
C7    C12   T    
N1    O10   S    
C16   O10   S    
C11   H4    S    
C16   H16   S    
C24   O13   A    
C1    O11   A    
C15   H11   S    
O17   Zn2   S    
C3    O17   A    
C9    H23   S    
C5    S2    S    
N2    Zn2   S    
O5    S2    D    
C10   H24   S    
C5    C6    D    
C18   H1    S    
C17   H17   S    
C16   C17   S    
O2    S1    D    
C16   H15   S    
C3    C4    S    
C10   H26   S    
C13   H6    S    
C14   O9    S    
C9    O18   S    
C11   H5    S    
C6    O18   S    
C18   C19   D    
C20   O9    S    
O15   Zn2   S    
C1    O1    A    
C17   H18   S    
C15   H13   S    
C22   H20   S    
C2    O14   A    
C2    C19   S    
C22   C23   S    
O14   Zn1   S    
C13   H7    S    
O1    Zn1   S    
O13   Zn2   S    
N1    Zn1   S    
C22   N1    D    
C2    O15   A    
H2    O4    S    
