data_mof_unit_13182.cif
_audit_creation_date              2013-03-05T15:44:36-0500
_audit_creation_method            fapswitch 2.2
_symmetry_space_group_name_H-M    P1
_symmetry_Int_Tables_number       1
_space_group_crystal_system       triclinic
_cell_length_a                    27.786809
_cell_length_b                    10.931853
_cell_length_c                    9.72731
_cell_angle_alpha                 90.668084
_cell_angle_beta                  90.586172
_cell_angle_gamma                 90.611048
_cell_volume                      2954.25311997

loop_
_atom_site_label
_atom_site_type_symbol
_atom_site_description
_atom_site_fract_x
_atom_site_fract_y
_atom_site_fract_z
_atom_type_partial_charge
O1    O     O_R   0.500010 0.321960 0.617040 -0.569490
O2    O     O_R   0.499990 0.321920 0.382900 -0.574377
C1    C     C_R   0.498440 0.265671 0.499198 0.842422
O3    O     O_R   0.430270 0.500040 0.617060 -0.586989
O4    O     O_R   0.430260 0.500000 0.382910 -0.582736
C2    C     C_R   0.407591 0.499812 0.499359 0.798676
Cu1   Cu    Cu3+1 0.500010 0.500020 0.638630 0.942900
Cu2   Cu    Cu3+1 0.499990 0.499980 0.361370 0.936890
O5    O     O_R   0.500010 0.678080 0.617100 -0.578996
O6    O     O_R   0.499990 0.678040 0.382960 -0.581207
O7    O     O_R   0.569740 0.500000 0.617090 -0.581309
O8    O     O_R   0.569730 0.499960 0.382940 -0.578990
C3    C     C_R   0.502817 0.734524 0.501003 0.827238
C4    C     C_R   0.592199 0.498370 0.500583 0.833099
C5    C     C_R   0.178339 0.431845 0.602209 0.534948
O9    O     O_2   0.203754 0.376946 0.702647 -0.544135
N1    N     N_R   0.201821 0.488126 0.496628 -0.464545
C6    C     C_R   0.176661 0.540849 0.391279 0.534828
C7    C     C_R   0.279124 0.543990 0.608634 -0.096303
C8    C     C_R   0.329311 0.545685 0.610037 -0.222778
C9    C     C_R   0.329309 0.448092 0.384870 -0.223524
C10   C     C_R   0.279130 0.443776 0.385021 -0.095408
C11   C     C_R   0.253651 0.492124 0.496648 0.338881
C12   C     C_R   0.101386 0.482079 0.497998 -0.047449
C13   C     C_R   0.127838 0.429928 0.606174 -0.018616
C14   C     C_R   0.103420 0.375881 0.715091 -0.144209
C15   C     C_R   0.126127 0.536632 0.388675 -0.018224
C16   C     C_R   0.354745 0.498201 0.497891 -0.036709
H1    H     H_    0.348230 0.410141 0.297672 0.152497
H2    H     H_    0.260024 0.402372 0.298458 0.155941
H3    H     H_    0.122870 0.332751 0.798236 0.188011
C17   C     C_R   0.644886 0.489626 0.501681 -0.076544
C18   C     C_R   0.974857 0.439703 0.620449 -0.001305
C19   C     C_R   0.973085 0.515428 0.383208 0.055197
C20   C     C_R   0.948560 0.476747 0.503071 0.068360
C21   C     C_R   0.949476 0.414016 0.741591 -0.198888
C22   C     C_R   0.899178 0.415981 0.746993 0.165055
C23   C     C_R   0.872236 0.444087 0.626502 -0.043591
C24   C     C_R   0.897370 0.475429 0.505237 -0.082271
C25   C     C_R   0.871313 0.506145 0.385333 -0.012881
C26   C     C_R   0.820998 0.504804 0.386872 0.537909
N2    N     N_R   0.797202 0.473936 0.503433 -0.459388
C27   C     C_R   0.821122 0.444023 0.621623 0.545844
C28   C     C_R   0.718078 0.372135 0.460410 0.211900
C29   C     C_R   0.667064 0.379110 0.459846 0.091414
C30   C     C_R   0.673010 0.591342 0.544753 0.097171
C31   C     C_R   0.723022 0.583128 0.544300 -0.141578
C32   C     C_R   0.745556 0.475725 0.502564 0.284780
O10   O     O_2   0.795061 0.413990 0.732538 -0.535473
C33   C     C_R   0.025844 0.432076 0.614523 0.050243
C34   C     C_R   0.050262 0.479835 0.499245 0.072419
C35   C     C_R   0.024091 0.525549 0.385329 0.039501
C36   C     C_R   0.053450 0.377028 0.719582 -0.212265
H4    H     H_    0.037406 0.330449 0.805057 0.142041
O11   O     O_2   0.200421 0.598420 0.289979 -0.544039
C37   C     C_R   0.099999 0.587075 0.280106 -0.144286
H5    H     H_    0.259987 0.582822 0.694892 0.155486
H6    H     H_    0.118115 0.631166 0.195603 0.187719
C38   C     C_R   0.945657 0.541903 0.264488 -0.215432
C39   C     C_R   0.895817 0.537229 0.265789 -0.150520
O12   O     O_2   0.795830 0.534195 0.272690 -0.532991
C40   C     C_R   0.050003 0.581222 0.277867 -0.212443
H7    H     H_    0.961726 0.563592 0.167267 0.138345
H8    H     H_    0.876490 0.558697 0.171967 0.183153
H9    H     H_    0.745079 0.660906 0.576368 0.151828
H10   H     H_    0.032598 0.624737 0.192153 0.142581
C41   C     C_2   0.501567 0.932872 0.393604 -0.157738
C42   C     C_2   0.512702 0.865686 0.504819 0.031633
H11   H     H_    0.487541 0.888805 0.300633 0.148770
C43   C     C_2   0.505875 0.066244 0.390202 -0.162977
C44   C     C_2   0.493232 0.134275 0.498600 -0.318271
H12   H     H_    0.478660 0.092838 0.590172 0.171459
C45   C     C_2   0.461975 0.481747 0.923608 0.019394
N3    N     N_2   0.499480 0.498660 0.846910 -0.136552
C46   C     C_2   0.461215 0.504423 0.076653 -0.094587
N4    N     N_2   0.499460 0.498630 0.153040 -0.287722
H13   H     H_    0.426889 0.523304 0.123800 0.159020
H14   H     H_    0.528772 0.456484 0.110802 0.219344
C47   C     C_3   0.650193 0.709480 0.589665 -0.850601
H15   H     H_    0.677544 0.781416 0.614603 0.235787
H16   H     H_    0.626596 0.744019 0.506181 0.227532
H17   H     H_    0.628543 0.693681 0.683099 0.229319
C48   C     C_3   0.539638 0.916304 0.629944 -0.844167
H18   H     H_    0.564865 0.847205 0.670372 0.221373
H19   H     H_    0.562030 0.997602 0.605086 0.250347
H20   H     H_    0.513931 0.938535 0.712906 0.231733
H21   H     H_    0.517416 0.108430 0.295315 0.170794
H22   H     H_    0.428643 0.450710 0.875289 0.127933
C49   C     C_3   0.538898 0.577397 0.896637 -0.475402
H23   H     H_    0.552192 0.634943 0.812392 0.219944
H24   H     H_    0.527848 0.644383 0.976730 0.170508
H25   H     H_    0.569706 0.521145 0.930786 0.166927
C50   C     C_3   0.635487 0.270397 0.417799 -0.835129
H26   H     H_    0.655574 0.186420 0.392711 0.236644
H27   H     H_    0.610793 0.247368 0.502976 0.219550
H28   H     H_    0.613822 0.293443 0.325365 0.240743
C51   C     C_3   0.743034 0.255740 0.416877 -0.793613
H29   H     H_    0.732793 0.231753 0.309200 0.236216
H30   H     H_    0.782813 0.263187 0.421071 0.229834
H31   H     H_    0.732588 0.180140 0.486106 0.227933
C52   C     C_3   0.876316 0.388844 0.884042 -0.741155
H32   H     H_    0.903441 0.373270 0.966530 0.194575
H33   H     H_    0.854325 0.467599 0.918027 0.258643
H34   H     H_    0.853895 0.304386 0.875803 0.261797
H35   H     H_    0.968451 0.396206 0.836292 0.138832
H36   H     H_    0.348223 0.585488 0.697920 0.153945

loop_
_geom_bond_atom_site_label_1
_geom_bond_atom_site_label_2
_geom_bond_distance
_ccdc_geom_bond_type
C26   N2    1.362404 A    
C50   H26   1.105600 S    
C25   C39   1.397057 A    
C45   N3    1.300716 D    
C20   C24   1.422717 A    
C7    C8    1.394412 A    
C12   C15   1.407177 A    
C26   O12   1.350246 S    
C29   C50   1.519411 S    
C51   H29   1.110270 S    
Cu1   Cu2   2.696983 S    
C36   H4    1.077925 S    
C7    H5    1.082872 S    
Cu1   O7    1.950999 S    
N1    C11   1.440366 S    
N3    C49   1.460787 S    
C21   C22   1.399538 A    
N4    H14   1.027086 S    
O4    C2    1.301730 A    
O7    C4    1.299385 A    
C5    C13   1.404126 A    
C5    O9    1.349813 S    
Cu2   N4    2.026274 S    
C18   C21   1.409002 A    
Cu1   O5    1.960187 S    
C19   C20   1.422755 A    
C17   C29   1.419338 A    
O5    C3    1.295839 A    
C19   C35   1.420352 A    
C2    C16   1.468239 S    
C30   C47   1.506875 S    
C48   H18   1.108687 S    
C43   C44   1.335357 D    
C49   H24   1.110799 S    
C12   C34   1.420679 A    
C38   C39   1.385499 A    
C50   H27   1.110628 S    
C9    C10   1.394631 A    
C45   C46   1.506758 S    
O3    Cu1   1.947048 S    
C43   H21   1.086404 S    
C51   H30   1.107776 S    
C33   C34   1.418454 A    
Cu1   N3    2.026434 S    
C8    H36   1.083301 S    
C33   C36   1.415290 A    
C40   H10   1.077617 S    
C41   C42   1.349827 D    
C52   H32   1.111047 S    
C12   C13   1.407000 A    
O3    C2    1.301193 A    
C24   C25   1.412222 A    
C47   H16   1.110619 S    
C15   C37   1.397466 A    
C27   O10   1.347372 S    
C8    C16   1.403333 A    
C18   C33   1.421842 A    
C9    H1    1.083294 S    
C23   C27   1.420575 A    
C34   C35   1.417967 A    
O1    C1    1.294792 A    
C1    C44   1.442065 S    
C46   N4    1.292991 D    
C45   H22   1.083766 S    
C22   C23   1.422643 A    
C47   H17   1.109235 S    
C28   C51   1.513757 S    
C31   C32   1.394707 A    
Cu2   O8    1.947042 S    
N1    C6    1.370700 A    
N2    C32   1.435356 S    
C49   H25   1.109728 S    
C46   H13   1.083341 S    
C6    O11   1.349760 S    
Cu2   O6    1.955386 S    
C25   C26   1.398227 A    
C48   H19   1.109850 S    
C9    C16   1.403591 A    
O8    C4    1.298352 A    
C50   H28   1.109838 S    
C19   C38   1.411641 A    
C37   C40   1.389959 A    
N2    C27   1.366831 A    
C14   C36   1.389820 A    
C51   H31   1.110233 S    
C28   C29   1.420349 A    
C7    C11   1.403691 A    
C5    N1    1.370754 A    
C30   C31   1.393581 A    
C10   H2    1.082854 S    
C21   H35   1.077464 S    
O1    Cu1   1.955386 S    
C42   C48   1.518100 S    
C17   C30   1.409451 A    
O2    Cu2   1.960187 S    
C6    C15   1.404403 A    
C4    C17   1.468079 S    
O6    C3    1.298646 A    
O4    Cu2   1.951002 S    
C52   H34   1.109960 S    
C38   H7    1.077759 S    
C39   H8    1.083516 S    
C41   C43   1.462418 S    
O2    C1    1.294750 A    
C13   C14   1.397389 A    
C44   H12   1.084199 S    
C35   C40   1.415055 A    
C22   C52   1.513706 S    
C23   C24   1.420475 A    
C18   C20   1.414775 A    
C37   H6    1.083475 S    
C47   H15   1.110815 S    
C14   H3    1.083474 S    
C48   H20   1.109722 S    
C52   H33   1.110227 S    
C10   C11   1.403560 A    
C41   H11   1.086489 S    
C49   H23   1.103182 S    
C31   H9    1.083819 S    
C28   C32   1.413438 A    
C3    C42   1.457012 S    
