data_mof_unit_59903.cif
_audit_creation_date              2012-10-26T20:32:22-0400
_audit_creation_method            fapswitch 2.2
_symmetry_space_group_name_H-M    P1
_symmetry_Int_Tables_number       1
_space_group_crystal_system       triclinic
_cell_length_a                    19.32077
_cell_length_b                    10.940751
_cell_length_c                    9.585796
_cell_angle_alpha                 90.871896
_cell_angle_beta                  89.381772
_cell_angle_gamma                 92.229154
_cell_volume                      2024.40807576

loop_
_atom_site_label
_atom_site_type_symbol
_atom_type_description
_atom_site_fract_x
_atom_site_fract_y
_atom_site_fract_z
_atom_type_partial_charge
C1    C     C_R   0.497556 0.262927 0.499291 0.556459
C2    C     C_R   0.854323 0.498064 0.495041 0.036307
C3    C     C_R   0.493225 0.064674 0.619754 0.063740
C4    C     C_R   0.367765 0.502645 0.500133 0.532850
C5    C     C_R   0.491541 0.130580 0.497836 -0.047568
C6    C     C_R   0.483178 0.063046 0.372617 -0.149156
C7    C     C_R   0.477949 0.934008 0.373264 0.230273
C8    C     C_R   0.491169 0.870236 0.498511 -0.004214
C9    C     C_R   0.496819 0.941561 0.619142 -0.064406
C10   C     C_3   0.508401 0.938408 0.771629 -0.252972
C11   C     C_3   0.501518 0.077961 0.773525 0.166876
C12   C     C_R   0.292227 0.508146 0.497650 0.004378
C13   C     C_R   0.554571 0.551964 0.073712 0.141577
C14   C     C_R   0.450158 0.437728 0.075297 -0.037662
C15   C     C_R   0.448352 0.440303 0.926093 0.360895
C16   C     C_R   0.497602 0.737402 0.500384 0.540472
C17   C     C_R   0.554885 0.551048 0.925898 0.116729
C18   C     C_3   0.577648 0.682592 0.922913 -0.138838
C19   C     C_3   0.578384 0.683254 0.081920 -0.128801
C20   C     C_R   0.632521 0.497969 0.499252 0.528672
C21   C     C_R   0.256732 0.574634 0.599820 -0.152688
C22   C     C_R   0.184605 0.576507 0.598094 -0.126015
C23   C     C_R   0.930573 0.503388 0.493884 0.343292
C24   C     C_R   0.147223 0.514118 0.492144 0.033963
C25   C     C_R   0.183263 0.451549 0.386930 -0.123009
C26   C     C_R   0.255189 0.448584 0.389742 -0.140559
C27   C     C_3   0.390582 0.837004 0.253365 0.006676
C28   C     C_3   0.372588 0.766707 0.119629 -0.378410
C29   C     C_3   0.445324 0.111278 0.983755 0.010771
C30   C     C_3   0.373455 0.114692 0.050054 -0.357420
C31   C     C_3   0.331210 0.417530 0.889679 -0.010412
C32   C     C_3   0.275780 0.341832 0.811463 -0.339222
C33   C     C_3   0.646800 0.708070 0.846935 -0.391406
C34   C     C_R   0.071021 0.512512 0.492125 0.342303
C35   C     C_3   0.648651 0.704392 0.152868 -0.385370
C36   C     C_R   0.817509 0.498982 0.622037 -0.121028
C37   C     C_R   0.745367 0.495771 0.623207 -0.141211
C38   C     C_R   0.708660 0.494521 0.497648 0.010046
C39   C     C_R   0.745434 0.489750 0.370717 -0.139914
C40   C     C_R   0.817619 0.491593 0.369342 -0.120879
Cu1   Cu    Cu3+1 0.500000 0.499980 0.640670 0.990255
Cu2   Cu    Cu3+1 0.500000 0.500020 0.359330 0.924111
H1    H     H_    0.284738 0.625579 0.680253 0.107769
H2    H     H_    0.281832 0.397952 0.308785 0.110583
H3    H     H_    0.844379 0.501250 0.720663 0.133949
H4    H     H_    0.718432 0.493837 0.722512 0.122766
H5    H     H_    0.718526 0.484285 0.272385 0.124319
H6    H     H_    0.844609 0.489456 0.269790 0.134208
H7    H     H_    0.480031 0.109750 0.274705 0.132727
H8    H     H_    0.357651 0.918006 0.261375 0.119576
H9    H     H_    0.377875 0.776089 0.342851 0.148968
H10   H     H_    0.402957 0.682928 0.111810 0.163920
H11   H     H_    0.316576 0.739833 0.119738 0.097638
H12   H     H_    0.465612 0.887226 0.826324 0.145679
H13   H     H_    0.384628 0.824240 0.027521 0.137754
H14   H     H_    0.477227 0.191834 0.020417 0.134462
H15   H     H_    0.469617 0.026949 0.020129 0.143957
H16   H     H_    0.340830 0.035087 0.013410 0.148846
H17   H     H_    0.376638 0.113201 0.165160 0.087310
H18   H     H_    0.348287 0.199466 0.022415 0.167815
H19   H     H_    0.328250 0.515089 0.860642 0.128815
H20   H     H_    0.318859 0.410037 0.002730 0.077097
H21   H     H_    0.270380 0.248301 0.854226 0.142941
H22   H     H_    0.225116 0.385783 0.822301 0.106015
H23   H     H_    0.562124 0.914084 0.795454 0.092919
H24   H     H_    0.289689 0.333543 0.699363 0.185747
H25   H     H_    0.639151 0.702086 0.732598 0.167091
H26   H     H_    0.666508 0.802335 0.872243 0.123490
H27   H     H_    0.686133 0.642576 0.877035 0.130951
H28   H     H_    0.670023 0.797450 0.129037 0.131501
H29   H     H_    0.641842 0.699273 0.267603 0.168514
H30   H     H_    0.686225 0.635812 0.118205 0.127117
H31   H     H_    0.548740 0.133221 0.804172 0.101330
H32   H     H_    0.411122 0.385772 0.133152 0.112985
H33   H     H_    0.535089 0.735215 0.883011 0.138536
H34   H     H_    0.158200 0.627233 0.679165 0.134686
H35   H     H_    0.538460 0.742096 0.126699 0.210857
H36   H     H_    0.155886 0.402891 0.303782 0.133612
N1    N     N_R   0.035402 0.477476 0.376013 -0.231734
N2    N     N_R   0.966517 0.473392 0.376720 -0.230740
N3    N     N_R   0.966188 0.538552 0.609980 -0.230988
N4    N     N_R   0.035090 0.543220 0.609069 -0.231734
N5    N     N_R   0.500440 0.500930 0.147930 -0.273589
N6    N     N_R   0.500440 0.500890 0.852020 -0.236492
O1    O     O_R   0.500000 0.319640 0.618810 -0.443432
O2    O     O_3   0.439016 0.113504 0.837099 -0.503915
O3    O     O_3   0.397285 0.373687 0.854673 -0.489700
O4    O     O_R   0.500010 0.319680 0.381230 -0.517366
O5    O     O_R   0.400140 0.499970 0.618830 -0.462189
O6    O     O_R   0.400150 0.500010 0.381250 -0.521596
O7    O     O_R   0.499990 0.680320 0.618770 -0.523198
O8    O     O_R   0.500000 0.680360 0.381190 -0.469277
O9    O     O_R   0.599850 0.499990 0.618750 -0.512638
O10   O     O_R   0.599860 0.500030 0.381170 -0.504514
O11   O     O_3   0.461628 0.873186 0.250073 -0.582832

loop_
_geom_bond_atom_site_label_1
_geom_bond_atom_site_label_2
_ccdc_geom_bond_type
Cu1   O5    S    
C20   O9    A    
C18   H33   S    
Cu1   Cu2   S    
C31   H19   S    
C27   O11   S    
C22   H34   S    
N3    N4    A    
C26   H2    S    
C7    C8    A    
C37   C38   A    
C1    C5    S    
C14   H32   S    
C39   H5    S    
C36   C37   A    
C5    C6    A    
C11   O2    S    
C18   C19   S    
C19   H35   S    
C21   H1    S    
Cu1   O9    S    
C35   H28   S    
C8    C9    A    
C30   H18   S    
C23   N2    A    
C4    C12   S    
C9    C10   S    
C27   H8    S    
C33   H27   S    
C1    O4    A    
C35   H29   S    
C8    C16   S    
C21   C22   A    
C31   H20   S    
C14   N5    A    
C28   H13   S    
C27   H9    S    
C4    O6    A    
C1    O1    A    
C31   O3    S    
C13   C19   S    
C25   H36   S    
C24   C25   A    
C32   H22   S    
C11   H31   S    
C39   C40   A    
C25   C26   A    
Cu1   N6    S    
C12   C21   A    
C24   C34   S    
C12   C26   A    
Cu2   O6    S    
C29   C30   S    
C3    C9    A    
C34   N1    A    
C20   C38   S    
C31   C32   S    
C30   H17   S    
C17   C18   S    
C36   H3    S    
C29   O2    S    
C6    C7    A    
Cu1   O7    S    
C29   H15   S    
C35   H30   S    
C16   O8    A    
C22   C24   A    
Cu2   O4    S    
C2    C23   S    
C7    O11   S    
C33   H25   S    
C32   H24   S    
C4    O5    A    
C10   H23   S    
C2    C36   A    
C40   H6    S    
C20   O10   A    
C23   N3    A    
Cu2   O10   S    
Cu2   N5    S    
C32   H21   S    
C3    C5    A    
C28   H11   S    
C15   N6    A    
C29   H14   S    
Cu1   O1    S    
C13   N5    A    
C13   C17   A    
C17   N6    A    
C19   C35   S    
C28   H10   S    
C38   C39   A    
C30   H16   S    
Cu2   O8    S    
C6    H7    S    
C10   H12   S    
C18   C33   S    
C3    C11   S    
C10   C11   S    
N1    N2    A    
C2    C40   A    
C16   O7    A    
C15   O3    S    
C27   C28   S    
C14   C15   A    
C34   N4    A    
C37   H4    S    
C33   H26   S    
