data_mof_unit_44603.cif
_audit_creation_date              2012-10-26T19:56:20-0400
_audit_creation_method            fapswitch 2.2
_symmetry_space_group_name_H-M    P1
_symmetry_Int_Tables_number       1
_space_group_crystal_system       triclinic
_cell_length_a                    11.217299
_cell_length_b                    10.609713
_cell_length_c                    9.555759
_cell_angle_alpha                 89.981278
_cell_angle_beta                  90.449043
_cell_angle_gamma                 90.937757
_cell_volume                      1137.06581405

loop_
_atom_site_label
_atom_site_type_symbol
_atom_type_description
_atom_site_fract_x
_atom_site_fract_y
_atom_site_fract_z
_atom_type_partial_charge
C1    C     C_R   0.499953 0.259861 0.500134 0.541445
C2    C     C_3   0.400494 0.039651 0.438350 -0.128822
C3    C     C_3   0.501428 0.877345 0.499434 0.048137
C4    C     C_3   0.500441 0.122613 0.500754 0.048994
C5    C     C_3   0.405863 0.955822 0.570483 -0.121565
C6    C     C_3   0.596106 0.044172 0.429744 -0.121564
C7    C     C_3   0.524624 0.610555 0.049892 -0.031328
C8    C     C_3   0.475226 0.389487 0.950125 -0.029773
C9    C     C_3   0.422300 0.576745 0.948984 0.014691
C10   C     C_3   0.577486 0.423178 0.051098 0.019132
C11   C     C_3   0.601857 0.534373 0.949190 -0.012336
C12   C     C_R   0.500809 0.740124 0.499899 0.541849
C13   C     C_3   0.398050 0.465608 0.050925 -0.014781
C14   C     C_R   0.262347 0.497583 0.498439 0.531382
C15   C     C_R   0.737649 0.500543 0.501377 0.540249
C16   C     C_R   0.149331 0.693642 0.047337 -0.120417
C17   C     C_R   0.843415 0.300888 0.949368 -0.165511
C18   C     C_R   0.128234 0.676405 0.189173 -0.136984
C19   C     C_R   0.867645 0.316171 0.808121 -0.124109
C20   C     C_R   0.106759 0.555340 0.241727 0.057126
C21   C     C_R   0.893512 0.436054 0.755110 0.033767
C22   C     C_R   0.108491 0.449287 0.153020 0.202259
C23   C     C_R   0.871999 0.499889 0.504530 -0.009811
C24   C     C_R   0.891822 0.543518 0.842353 0.208835
C25   C     C_R   0.131971 0.466670 0.010425 0.269612
C26   C     C_R   0.867950 0.527347 0.985025 0.305650
C27   C     C_R   0.150523 0.589450 0.956493 0.247475
C28   C     C_R   0.845792 0.405628 0.039580 0.208224
C29   C     C_R   0.935027 0.550507 0.392792 -0.090510
C30   C     C_R   0.064930 0.439350 0.604035 -0.099709
C31   C     C_3   0.177502 0.248156 0.246223 -0.310562
C32   C     C_3   0.824565 0.755680 0.780213 -0.307228
C33   C     C_R   0.127936 0.492465 0.493512 -0.005256
C34   C     C_R   0.940314 0.448127 0.614412 -0.026878
C35   C     C_R   0.059317 0.540730 0.381994 0.003618
C36   C     C_3   0.505913 0.040934 0.633091 -0.111656
C37   C     C_3   0.496069 0.959022 0.367138 -0.112623
C38   C     C_3   0.601518 0.960209 0.561886 -0.128770
Cu1   Cu    Cu3+1 0.500030 0.499990 0.643150 0.932002
Cu2   Cu    Cu3+1 0.499970 0.500010 0.356850 0.931172
H1    H     H_    0.370457 0.654294 0.903263 0.129991
H2    H     H_    0.870455 0.234102 0.740853 0.119739
H3    H     H_    0.886504 0.596529 0.311804 0.188790
H4    H     H_    0.113680 0.394141 0.685423 0.191143
H5    H     H_    0.684226 0.925875 0.611897 0.091010
H6    H     H_    0.317940 0.073642 0.388100 0.091812
H7    H     H_    0.510040 0.076810 0.742203 0.109508
H8    H     H_    0.491921 0.923188 0.258010 0.108838
H9    H     H_    0.327998 0.916643 0.627990 0.103221
H10   H     H_    0.673922 0.083427 0.372211 0.103974
H11   H     H_    0.180784 0.696049 0.794544 0.310555
H12   H     H_    0.627467 0.344404 0.096975 0.133075
H13   H     H_    0.815243 0.300766 0.203118 0.311951
H14   H     H_    0.024270 0.275378 0.138024 0.288635
H15   H     H_    0.141627 0.158210 0.289401 0.121794
H16   H     H_    0.232018 0.293667 0.328854 0.172568
H17   H     H_    0.233766 0.225629 0.154746 0.152139
H18   H     H_    0.973557 0.670231 0.702347 0.263470
H19   H     H_    0.755300 0.720950 0.705656 0.149426
H20   H     H_    0.860134 0.847424 0.741510 0.120390
H21   H     H_    0.784216 0.772998 0.883723 0.182627
H22   H     H_    0.217385 0.377404 0.870284 0.339517
H23   H     H_    0.546333 0.704821 0.094578 0.095701
H24   H     H_    0.787502 0.621665 0.124693 0.329432
H25   H     H_    0.453592 0.295198 0.905446 0.098787
H26   H     H_    0.674599 0.582268 0.895454 0.120989
H27   H     H_    0.325516 0.417747 0.105127 0.128333
H28   H     H_    0.163738 0.788315 0.007941 0.100702
H29   H     H_    0.825497 0.207024 0.989316 0.091759
H30   H     H_    0.123623 0.757821 0.257207 0.111664
N1    N     N_3   0.500090 0.499970 0.858290 -0.237493
N2    N     N_3   0.499910 0.500030 0.141710 -0.238562
N3    N     N_2   0.078974 0.326125 0.204806 -0.477361
N4    N     N_2   0.920817 0.666936 0.789951 -0.470060
O1    O     O_R   0.500060 0.316850 0.620870 -0.511234
O2    O     O_3   0.827124 0.391476 0.181135 -0.708013
O3    O     O_3   0.146812 0.361016 0.929660 -0.745019
O4    O     O_3   0.859975 0.633012 0.067118 -0.720975
O5    O     O_R   0.499940 0.683150 0.379130 -0.511285
O6    O     O_R   0.500000 0.316860 0.379090 -0.514855
O7    O     O_R   0.500000 0.683140 0.620910 -0.514623
O8    O     O_R   0.319670 0.500010 0.620890 -0.464700
O9    O     O_R   0.680330 0.499990 0.379110 -0.465025
O10   O     O_R   0.319620 0.500010 0.379110 -0.521352
O11   O     O_R   0.680380 0.499990 0.620890 -0.517657
O12   O     O_3   0.170810 0.604921 0.815541 -0.718756

loop_
_geom_bond_atom_site_label_1
_geom_bond_atom_site_label_2
_ccdc_geom_bond_type
C18   H30   S    
C4    C36   S    
C17   H29   S    
C8    C13   S    
Cu2   O10   S    
H22   O3    S    
C14   O10   A    
C10   H12   S    
C14   C33   S    
C2    H6    S    
C7    C11   S    
C14   O8    A    
C26   O4    S    
C25   O3    S    
C23   C29   A    
C19   C21   A    
C24   C26   A    
C32   H21   S    
C32   N4    S    
C11   N1    S    
C31   N3    S    
C5    C36   S    
C36   H7    S    
C9    C13   S    
C38   H5    S    
C3    C12   S    
C17   C19   A    
C20   C35   S    
C3    C38   S    
C22   C25   A    
C6    C38   S    
C16   H28   S    
Cu1   O1    S    
C31   H16   S    
C19   H2    S    
C15   O11   A    
C16   C27   A    
C15   C23   S    
C8    H25   S    
C29   H3    S    
Cu2   O9    S    
C30   H4    S    
H24   O4    S    
H11   O12   S    
Cu2   O5    S    
C30   C34   A    
C1    O1    A    
Cu1   O7    S    
C4    C6    S    
C7    N2    S    
C15   O9    A    
C21   C34   S    
C27   O12   S    
C2    C4    S    
H14   N3    S    
C23   C34   A    
Cu2   O6    S    
C6    C37   S    
Cu1   O11   S    
C6    H10   S    
C37   H8    S    
C7    H23   S    
C16   C18   A    
C20   C22   A    
H13   O2    S    
C32   H20   S    
C28   O2    S    
Cu1   Cu2   S    
H18   N4    S    
C13   H27   S    
C7    C9    S    
C8    N1    S    
Cu2   N2    S    
C30   C33   A    
C17   C28   A    
C9    H1    S    
C9    N1    S    
Cu1   O8    S    
C3    C5    S    
C11   H26   S    
C13   N2    S    
C25   C27   A    
C29   C35   A    
C26   C28   A    
C22   N3    S    
C1    C4    S    
C31   H17   S    
C36   C38   S    
C2    C37   S    
C24   N4    S    
C33   C35   A    
C12   O7    A    
C18   C20   A    
C5    H9    S    
C10   C11   S    
C2    C5    S    
C3    C37   S    
C8    C10   S    
C21   C24   A    
C1    O6    A    
Cu1   N1    S    
C32   H19   S    
C31   H15   S    
C12   O5    A    
C10   N2    S    
