data_mof_unit_37804.cif
_audit_creation_date              2013-03-05T16:48:04-0500
_audit_creation_method            fapswitch 2.2
_symmetry_space_group_name_H-M    P1
_symmetry_Int_Tables_number       1
_space_group_crystal_system       triclinic
_cell_length_a                    19.280565
_cell_length_b                    8.91967
_cell_length_c                    8.087902
_cell_angle_alpha                 90.086038
_cell_angle_beta                  89.99846
_cell_angle_gamma                 90.000059
_cell_volume                      1390.9257077

loop_
_atom_site_label
_atom_site_type_symbol
_atom_site_description
_atom_site_fract_x
_atom_site_fract_y
_atom_site_fract_z
_atom_type_partial_charge
O1    O     O_R   0.500000 0.285350 0.636850 -0.613978
O2    O     O_R   0.500000 0.714650 0.363150 -0.614029
O3    O     O_R   0.500000 0.714650 0.636850 -0.617172
O4    O     O_R   0.500000 0.285350 0.363150 -0.617240
C1    C     C_R   0.500040 0.217940 0.499919 0.930446
C2    C     C_R   0.500041 0.782060 0.500081 0.930246
O5    O     O_R   0.398140 0.500000 0.636920 -0.602587
O6    O     O_R   0.601860 0.500000 0.363080 -0.600677
O7    O     O_R   0.601860 0.500000 0.636920 -0.600723
O8    O     O_R   0.398140 0.500000 0.363080 -0.602533
C3    C     C_R   0.365336 0.499986 0.500004 0.938135
C4    C     C_R   0.634994 0.500113 0.500001 0.930475
Zn1   Zn    Zn3+2 0.500000 0.500000 0.682780 0.995205
Zn2   Zn    Zn3+2 0.500000 0.500000 0.317220 0.995191
C5    C     C_1   0.499998 0.065201 0.499884 -0.205370
C6    C     C_1   0.499999 0.934798 0.500118 -0.205489
N1    N     N_1   0.500000 0.500000 0.073640 -0.030586
N2    N     N_1   0.500000 0.500000 0.926360 -0.030590
C7    C     C_R   0.254095 0.415385 0.619724 0.153016
C8    C     C_R   0.747276 0.438624 0.364301 0.159761
C9    C     C_R   0.747074 0.562978 0.635825 0.159964
C10   C     C_R   0.254038 0.584635 0.380551 0.152734
C11   C     C_R   0.181429 0.422725 0.626920 0.110348
C12   C     C_R   0.820153 0.442887 0.361576 0.118998
C13   C     C_R   0.819951 0.559179 0.638945 0.118764
C14   C     C_R   0.181353 0.577686 0.373931 0.110460
C15   C     C_R   0.145471 0.500355 0.500606 0.009357
C16   C     C_R   0.855772 0.500997 0.500428 -0.011773
C17   C     C_R   0.289829 0.499986 0.500061 -0.202451
C18   C     C_R   0.711091 0.500547 0.500043 -0.223866
N3    N     N_R   0.035293 0.631084 0.517629 -0.168246
N4    N     N_R   0.966405 0.370224 0.485222 -0.174959
N5    N     N_R   0.966527 0.631279 0.516433 -0.175007
N6    N     N_R   0.035169 0.370103 0.484101 -0.168161
C19   C     C_R   0.931208 0.500832 0.500780 0.327397
C20   C     C_R   0.070390 0.500515 0.500855 0.312935
N7    N     N_2   0.292084 0.321075 0.730075 -0.278010
H1    H     H_    0.274421 0.317019 0.850141 0.236993
C21   C     C_3   0.308905 0.174824 0.663477 -0.759333
H2    H     H_    0.260841 0.108620 0.643057 0.232930
H3    H     H_    0.342640 0.113729 0.751929 0.240585
H4    H     H_    0.337349 0.185725 0.544630 0.229775
N8    N     N_2   0.709353 0.368789 0.233841 -0.275383
H5    H     H_    0.719708 0.406622 0.116166 0.220567
C22   C     C_3   0.701794 0.208062 0.248467 -0.740092
H6    H     H_    0.753038 0.152081 0.237119 0.238436
H7    H     H_    0.667244 0.166193 0.148749 0.235955
H8    H     H_    0.678045 0.179028 0.369494 0.231560
N9    N     N_2   0.708934 0.632928 0.765860 -0.275346
H9    H     H_    0.719275 0.595633 0.883753 0.220566
C23   C     C_3   0.701057 0.793524 0.750453 -0.740172
H10   H     H_    0.666319 0.835439 0.849779 0.236041
H11   H     H_    0.677367 0.821873 0.629158 0.231440
H12   H     H_    0.752174 0.850036 0.761822 0.238368
N10   N     N_2   0.291987 0.678522 0.269682 -0.278014
H13   H     H_    0.274201 0.682287 0.149701 0.236931
C24   C     C_3   0.308984 0.824904 0.335672 -0.758846
H14   H     H_    0.342659 0.885643 0.246778 0.240560
H15   H     H_    0.337552 0.814241 0.454365 0.229770
H16   H     H_    0.260993 0.891324 0.356176 0.232786
C25   C     C_3   0.143962 0.348281 0.770309 -0.881119
H17   H     H_    0.087313 0.367783 0.772314 0.252151
H18   H     H_    0.152889 0.225388 0.766990 0.250273
H19   H     H_    0.163616 0.394267 0.888968 0.223733
C26   C     C_3   0.860698 0.385958 0.212853 -0.889541
H20   H     H_    0.888717 0.281625 0.245942 0.258812
H21   H     H_    0.828584 0.359544 0.103573 0.236139
H22   H     H_    0.898592 0.472287 0.172562 0.241442
C27   C     C_3   0.860289 0.616661 0.787726 -0.889560
H23   H     H_    0.828026 0.643662 0.896599 0.236089
H24   H     H_    0.898095 0.530437 0.828781 0.241436
H25   H     H_    0.888391 0.720809 0.754343 0.258850
C28   C     C_3   0.143791 0.652145 0.230697 -0.880910
H26   H     H_    0.163192 0.605744 0.111978 0.223801
H27   H     H_    0.087108 0.633111 0.229240 0.252162
H28   H     H_    0.152925 0.774974 0.233602 0.250175

loop_
_geom_bond_atom_site_label_1
_geom_bond_atom_site_label_2
_geom_bond_distance
_ccdc_geom_bond_type
C25   H19   1.109824 S    
C7    C11   1.403787 A    
N8    H5    1.029803 S    
N3    N5    1.325884 A    
O7    Zn1   1.998627 S    
C10   N10   1.429315 S    
C7    N7    1.429323 S    
C10   C17   1.408113 A    
C11   C15   1.416326 A    
C15   C20   1.447604 S    
C27   H25   1.109148 S    
N8    C22   1.446042 S    
C9    C18   1.412666 A    
C13   C27   1.521159 S    
O3    Zn1   1.950859 S    
O5    Zn1   1.998649 S    
O6    C4    1.278477 A    
C26   H22   1.110703 S    
C23   H12   1.110741 S    
N10   H13   1.029808 S    
C9    N9    1.426223 S    
N1    N2    1.191185 T    
C14   C15   1.416394 A    
C21   H3    1.110397 S    
C8    C18   1.412535 A    
C22   H6    1.110748 S    
C13   C16   1.414084 A    
O5    C3    1.275274 A    
C28   H27   1.106050 S    
Zn2   N1    1.970051 S    
C24   H14   1.110467 S    
N7    H1    1.029748 S    
C10   C14   1.403797 A    
Zn1   N2    1.970051 S    
C22   H7    1.110316 S    
O1    C1    1.259389 A    
C5    C6    1.163157 T    
C12   C26   1.521170 S    
N5    C19   1.353929 A    
N9    H9    1.029834 S    
C21   H4    1.111043 S    
N6    C20   1.353564 A    
C27   H23   1.104371 S    
N10   C24   1.447396 S    
O4    Zn2   1.950859 S    
C25   H17   1.106103 S    
O2    Zn2   1.949763 S    
C28   H28   1.109873 S    
C1    C5    1.362374 S    
C24   H15   1.110991 S    
O8    C3    1.275303 A    
C2    C6    1.362372 S    
C23   H10   1.110308 S    
C7    C17   1.408172 A    
N4    C19   1.353915 A    
C12   C16   1.414124 A    
C11   C25   1.519858 S    
C8    N8    1.426195 S    
O1    Zn1   1.949764 S    
C3    C17   1.455812 S    
N7    C21   1.447400 S    
C26   H20   1.109172 S    
C28   H26   1.109946 S    
O3    C2    1.259819 A    
C21   H2    1.111067 S    
C27   H24   1.110792 S    
N9    C23   1.446063 S    
C9    C13   1.405756 A    
N3    C20   1.353591 A    
C24   H16   1.111017 S    
O6    Zn2   1.998647 S    
C22   H8    1.111584 S    
C4    C18   1.467206 S    
O7    C4    1.278429 A    
C26   H21   1.104306 S    
C14   C28   1.519860 S    
C8    C12   1.405795 A    
C25   H18   1.109876 S    
O2    C2    1.259392 A    
C16   C19   1.454456 S    
O8    Zn2   1.998629 S    
O4    C1    1.259823 A    
C23   H11   1.111638 S    
N4    N6    1.325850 A    
