data_mof_unit_37456.cif
_audit_creation_date              2012-12-11T16:53:53-0500
_audit_creation_method            fapswitch 2.2
_symmetry_space_group_name_H-M    P1
_symmetry_Int_Tables_number       1
_space_group_crystal_system       triclinic
_cell_length_a                    14.884061
_cell_length_b                    14.77061
_cell_length_c                    17.081366
_cell_angle_alpha                 108.851298
_cell_angle_beta                  106.394736
_cell_angle_gamma                 108.211331
_cell_volume                      3053.70755622

loop_
_atom_site_label
_atom_site_type_symbol
_atom_type_description
_atom_site_fract_x
_atom_site_fract_y
_atom_site_fract_z
_atom_type_partial_charge
C1    C     C_R   0.087651 0.285825 0.076085 -0.138845
C2    C     C_R   0.065574 0.478449 0.251088 -0.121481
C3    C     C_R   0.277555 0.787442 0.178104 -0.144072
C4    C     C_R   0.936185 0.490981 0.737378 -0.135760
C5    C     C_R   0.699149 0.407972 0.998701 -0.120132
C6    C     C_R   0.331722 0.785608 0.257915 0.058909
C7    C     C_R   0.639481 0.438947 0.944837 0.074899
C8    C     C_R   0.974866 0.414236 0.250863 0.063662
C9    C     C_R   0.995561 0.822072 0.983289 0.045001
C10   C     C_R   0.390327 0.455491 0.871005 0.172363
C11   C     C_R   0.347679 0.414085 0.922543 0.033320
C12   C     C_R   0.028470 0.524431 0.727879 0.067164
C13   C     C_R   0.377763 0.341216 0.944964 -0.199576
C14   C     C_R   0.467938 0.335504 0.939468 -0.203273
C15   C     C_R   0.526853 0.402498 0.911265 0.031074
C16   C     C_R   0.774027 0.200533 0.813179 -0.136181
C17   C     C_R   0.478532 0.448854 0.864761 0.163702
C18   C     C_3   0.520962 0.556072 0.866588 -0.523929
C19   C     C_3   0.425309 0.564092 0.874171 -0.531353
C20   C     C_R   0.968987 0.374634 0.318120 0.129743
C21   C     C_R   0.038676 0.489865 0.642150 0.137310
C22   C     C_R   0.146094 0.490606 0.559229 -0.226905
C23   C     C_R   0.753329 0.193715 0.726442 0.061744
C24   C     C_R   0.137523 0.524721 0.641282 -0.176597
C25   C     C_R   0.949564 0.413956 0.561072 -0.281183
C26   C     C_R   0.956870 0.383835 0.478488 0.189782
C27   C     C_R   0.055580 0.425026 0.477527 0.191424
C28   C     C_R   0.257887 0.532190 0.948947 -0.138775
C29   C     C_R   0.060982 0.412620 0.395558 -0.281682
C30   C     C_R   0.871730 0.320055 0.316173 -0.169298
C31   C     C_R   0.866022 0.322621 0.396529 -0.223085
C32   C     C_R   0.711481 0.097552 0.640546 0.132189
C33   C     C_R   0.439599 0.859716 0.325502 0.130309
C34   C     C_R   0.287780 0.457734 0.963831 0.072407
C35   C     C_R   0.586101 0.034924 0.398863 -0.218234
C36   C     C_R   0.493221 0.955873 0.324313 -0.183039
C37   C     C_R   0.486199 0.838809 0.397038 -0.277544
C38   C     C_R   0.574421 0.919875 0.474331 0.188553
C39   C     C_R   0.622486 0.019959 0.476449 0.187781
C40   C     C_R   0.774659 0.295659 0.735035 -0.121940
C41   C     C_R   0.696113 0.106953 0.559168 -0.276703
C42   C     C_R   0.673450 0.995870 0.636986 -0.172633
C43   C     C_R   0.606768 0.906535 0.553378 -0.225594
C44   C     C_R   0.090880 0.115934 0.140438 0.128434
C45   C     C_R   0.270119 0.691225 0.255050 -0.118512
C46   C     C_R   0.999392 0.114856 0.087609 0.043636
C47   C     C_R   0.904852 0.037746 0.076503 -0.209797
C48   C     C_R   0.905869 0.968170 0.117696 -0.177130
C49   C     C_R   0.000633 0.972610 0.170245 0.013210
C50   C     C_R   0.091018 0.048468 0.179102 0.130405
C51   C     C_3   0.206862 0.089739 0.218825 0.025133
C52   C     C_R   0.253217 0.436673 0.026540 -0.125685
C53   C     C_3   0.207353 0.167782 0.176513 -0.667546
C54   C     C_R   0.109249 0.576747 0.814325 -0.143156
C55   C     C_R   0.915252 0.201281 0.000028 -0.140316
C56   C     C_R   0.704242 0.500366 0.918788 -0.151437
C57   C     C_R   0.001245 0.192067 0.049159 0.074645
C58   C     C_3   0.259217 0.144407 0.323839 -0.309539
C59   C     C_3   0.253230 0.062357 0.360706 -0.906581
C60   C     C_R   0.892178 0.393502 0.174423 -0.129091
C61   C     C_R   0.082913 0.806775 0.019441 -0.123317
C62   C     C_R   0.910218 0.722283 0.943102 -0.114643
H1    H     H_    0.164821 0.314723 0.128129 0.099305
H2    H     H_    0.497601 0.290171 0.968663 0.124153
H3    H     H_    0.593720 0.616778 0.929015 0.201703
H4    H     H_    0.858456 0.462590 0.686704 0.083630
H5    H     H_    0.523433 0.550466 0.800802 0.190114
H6    H     H_    0.445642 0.629144 0.941207 0.199033
H7    H     H_    0.373052 0.564157 0.813084 0.191051
H8    H     H_    0.137007 0.448336 0.396666 0.112872
H9    H     H_    0.799532 0.284602 0.255683 0.112016
H10   H     H_    0.222386 0.521883 0.559209 0.124076
H11   H     H_    0.789990 0.287832 0.396169 0.120483
H12   H     H_    0.680940 0.522099 0.864465 0.101526
H13   H     H_    0.208206 0.579777 0.703187 0.110514
H14   H     H_    0.873307 0.382073 0.560712 0.112822
H15   H     H_    0.730737 0.183746 0.560173 0.115243
H16   H     H_    0.765207 0.136537 0.832247 0.094261
H17   H     H_    0.688150 0.985580 0.698482 0.115099
H18   H     H_    0.623207 0.111160 0.399374 0.120977
H19   H     H_    0.571902 0.829455 0.552141 0.124605
H20   H     H_    0.460876 0.973206 0.268933 0.113980
H21   H     H_    0.448936 0.763891 0.398016 0.114126
H22   H     H_    0.830051 0.031024 0.037061 0.123291
H23   H     H_    0.811528 0.336186 0.146821 0.083360
H24   H     H_    0.832810 0.910406 0.108365 0.132639
H25   H     H_    0.232612 0.030327 0.186707 0.128011
H26   H     H_    0.243202 0.252947 0.227584 0.197223
H27   H     H_    0.271801 0.566378 0.905022 0.105014
H28   H     H_    0.233485 0.152697 0.120717 0.195009
H29   H     H_    0.759934 0.318606 0.680987 0.086057
H30   H     H_    0.263033 0.382524 0.054262 0.093051
H31   H     H_    0.189712 0.627634 0.833822 0.081423
H32   H     H_    0.834483 0.152024 0.981765 0.083592
H33   H     H_    0.291074 0.655486 0.298920 0.083734
H34   H     H_    0.163552 0.865175 0.049563 0.083827
H35   H     H_    0.170442 0.007857 0.339050 0.264832
H36   H     H_    0.292735 0.014652 0.335320 0.259485
H37   H     H_    0.292904 0.104091 0.436590 0.253932
H38   H     H_    0.342889 0.198401 0.347778 0.190197
H39   H     H_    0.221999 0.193475 0.351930 0.196791
H40   H     H_    0.830038 0.702227 0.902852 0.093421
H41   H     H_    0.145269 0.500009 0.293661 0.082290
H42   H     H_    0.307582 0.841513 0.151594 0.085006
H43   H     H_    0.671650 0.347964 0.020606 0.083836
H44   H     H_    0.341221 0.299836 0.977798 0.126525
N1    N     N_R   0.055640 0.348550 0.045600 -0.039162
N2    N     N_R   0.811290 0.303400 0.871650 -0.039947
N3    N     N_R   0.205180 0.552990 0.997660 -0.040488
N4    N     N_R   0.814810 0.361830 0.823710 -0.040331
N5    N     N_R   0.201660 0.494570 0.045600 -0.040877
N6    N     N_R   0.068420 0.560530 0.871650 -0.036087
N7    N     N_R   0.948050 0.295860 0.997660 -0.037235
N8    N     N_R   0.185190 0.638170 0.176290 -0.040457
N9    N     N_R   0.798340 0.505430 0.954400 -0.039831
N10   N     N_R   0.931580 0.439470 0.128350 -0.038904
N11   N     N_R   0.051950 0.704140 0.002340 -0.039955
N12   N     N_R   0.944360 0.651450 0.954400 -0.041880
N13   N     N_R   0.039170 0.492150 0.176290 -0.039926
N14   N     N_R   0.188710 0.696600 0.128350 -0.037722
N15   N     N_R   0.794820 0.447010 0.002340 -0.040498
N16   N     N_R   0.960830 0.507850 0.823710 -0.036550
Ni1   Ni    Ni4+2 0.119330 0.493420 0.109950 0.206369
Ni2   Ni    Ni4+2 0.880670 0.506580 0.890050 0.209191
Ni3   Ni    Ni4+2 0.872590 0.372590 0.000000 0.207329
Ni4   Ni    Ni4+2 0.127410 0.627410 0.000000 0.210595

loop_
_geom_bond_atom_site_label_1
_geom_bond_atom_site_label_2
_ccdc_geom_bond_type
C3    H42   S    
N9    N15   A    
C6    C45   A    
C27   C29   A    
C59   H37   S    
C35   C36   A    
N1    Ni1   S    
C3    C6    A    
C30   H9    S    
C61   H34   S    
C39   C41   A    
C5    H43   S    
C18   H3    S    
N15   Ni3   S    
C26   C27   A    
C8    C20   S    
C9    C61   A    
N3    N5    A    
C41   H15   S    
C30   C31   A    
N14   Ni4   S    
C31   H11   S    
N7    Ni3   S    
C10   C17   A    
C23   C40   A    
C5    N15   A    
C35   H18   S    
C33   C36   A    
C18   C19   S    
N1    N7    A    
C54   H31   S    
N4    Ni2   S    
C45   N8    A    
C36   H20   S    
C32   C41   A    
C28   H27   S    
N2    Ni3   S    
C4    C12   A    
N11   Ni4   S    
N6    Ni4   S    
C7    C15   S    
C28   C34   A    
C42   H17   S    
C13   C14   A    
C54   N6    A    
C7    C56   A    
C55   H32   S    
C1    H1    S    
C22   H10   S    
C44   C46   A    
C50   C51   S    
C20   C29   A    
C56   H12   S    
N5    Ni1   S    
C9    C62   A    
C58   H38   S    
C18   H5    S    
C3    N14   A    
C51   H25   S    
C58   H39   S    
C20   C30   A    
C55   N7    A    
C52   N5    A    
C58   C59   S    
C61   N11   A    
C12   C21   S    
C33   C37   A    
C51   C53   S    
C35   C39   A    
N6    N16   A    
C37   C38   A    
C1    C57   A    
C47   C48   A    
C10   C19   S    
C60   H23   S    
C14   H2    S    
C17   C18   S    
C44   C53   S    
C4    N16   A    
C19   H6    S    
C51   C58   S    
N12   Ni2   S    
C47   H22   S    
C1    N1    A    
N8    Ni1   S    
C48   C49   A    
C16   C23   A    
C22   C27   A    
C55   C57   A    
C46   C57   S    
C43   H19   S    
C22   C24   A    
C60   N10   A    
C42   C43   A    
N16   Ni2   S    
C45   H33   S    
C16   H16   S    
C5    C7    A    
C29   H8    S    
C44   C50   A    
C15   C17   A    
C21   C25   A    
C46   C47   A    
N9    Ni2   S    
C11   C34   S    
C2    C8    A    
C13   H44   S    
C40   N4    A    
C2    N13   A    
N10   N13   A    
C24   H13   S    
N13   Ni1   S    
C28   N3    A    
C34   C52   A    
C6    C33   S    
N10   Ni3   S    
C25   H14   S    
C23   C32   S    
C25   C26   A    
C38   C43   A    
N11   N12   A    
C8    C60   A    
C4    H4    S    
C11   C13   A    
C38   C39   A    
C2    H41   S    
C59   H35   S    
C56   N9    A    
N2    N4    A    
C53   H26   S    
C48   H24   S    
C40   H29   S    
C12   C54   A    
C62   N12   A    
C19   H7    S    
C10   C11   A    
C16   N2    A    
N3    Ni4   S    
C26   C31   A    
C49   C50   A    
C21   C24   A    
C53   H28   S    
C59   H36   S    
C32   C42   A    
C14   C15   A    
C37   H21   S    
C52   H30   S    
N8    N14   A    
C62   H40   S    
