data_mof_unit_60853.cif
_audit_creation_date              2012-12-10T17:35:49-0500
_audit_creation_method            fapswitch 2.2
_symmetry_space_group_name_H-M    P1
_symmetry_Int_Tables_number       1
_space_group_crystal_system       triclinic
_cell_length_a                    24.382026
_cell_length_b                    24.382043
_cell_length_c                    27.682971
_cell_angle_alpha                 90.001445
_cell_angle_beta                  90.001364
_cell_angle_gamma                 89.793879
_cell_volume                      16456.9659319

loop_
_atom_site_label
_atom_site_type_symbol
_atom_type_description
_atom_site_fract_x
_atom_site_fract_y
_atom_site_fract_z
_atom_type_partial_charge
C1    C     C_1   1.000000 0.499999 0.569094 0.020914
C2    C     C_1   1.000000 0.500001 0.474479 -0.025877
C3    C     C_R   0.237157 0.319288 0.723005 0.013643
C4    C     C_R   0.326170 0.755691 0.256794 0.011338
C5    C     C_R   0.673813 0.244329 0.743361 0.011317
C6    C     C_R   0.237210 0.319340 0.276911 0.013641
C7    C     C_R   0.762782 0.680651 0.723103 0.013640
C8    C     C_R   0.180660 0.262790 0.223089 0.013641
C9    C     C_R   0.819349 0.737219 0.776897 0.013639
C10   C     C_R   0.255691 0.826167 0.243210 0.011335
C11   C     C_R   0.744330 0.173814 0.756639 0.011317
C12   C     C_R   0.819093 0.736961 0.222689 0.013661
C13   C     C_1   0.499999 1.000000 0.525521 -0.025881
C14   C     C_R   0.180712 0.262843 0.776995 0.013643
C15   C     C_R   0.744308 0.173831 0.243200 0.011338
C16   C     C_R   0.255669 0.826189 0.756623 0.011314
C17   C     C_R   0.173812 0.744332 0.756623 0.011314
C18   C     C_R   0.826166 0.255692 0.243204 0.011335
C19   C     C_R   0.262843 0.180712 0.776994 0.013643
C20   C     C_R   0.736960 0.819092 0.222689 0.013661
C21   C     C_R   0.826187 0.255671 0.756639 0.011317
C22   C     C_R   0.173830 0.744309 0.243206 0.011338
C23   C     C_R   0.737218 0.819349 0.776897 0.013640
C24   C     C_1   0.500001 1.000000 0.474479 -0.025877
C25   C     C_R   0.262790 0.180660 0.223089 0.013641
C26   C     C_R   0.729435 0.770565 0.750000 0.033840
C27   C     C_R   0.270565 0.229435 0.250000 0.033841
C28   C     C_R   0.770505 0.270505 0.750000 0.033530
C29   C     C_R   0.229494 0.729495 0.249999 0.033539
C30   C     C_R   0.270565 0.229434 0.750000 0.033844
C31   C     C_R   0.729435 0.770565 0.250000 0.033845
C32   C     C_R   0.229495 0.729495 0.750000 0.033530
C33   C     C_R   0.770505 0.270506 0.250001 0.033540
C34   C     C_R   0.729495 0.229494 0.249999 0.033540
C35   C     C_1   0.500000 0.999999 0.025521 -0.025877
C36   C     C_R   0.270505 0.770505 0.750000 0.033530
C37   C     C_R   0.770565 0.729435 0.250000 0.033845
C38   C     C_R   0.229435 0.270565 0.750000 0.033844
C39   C     C_R   0.270506 0.770505 0.250001 0.033539
C40   C     C_R   0.729495 0.229495 0.750000 0.033530
C41   C     C_R   0.229435 0.270565 0.250000 0.033841
C42   C     C_R   0.770565 0.729435 0.750000 0.033840
C43   C     C_R   0.673769 0.714115 0.696727 -0.120752
C44   C     C_R   0.326215 0.285869 0.303299 -0.120742
C45   C     C_R   0.700198 0.339971 0.736895 -0.121063
C46   C     C_1   0.500000 0.000001 0.974479 -0.025881
C47   C     C_R   0.299762 0.660068 0.263416 -0.121054
C48   C     C_R   0.326106 0.285760 0.696529 -0.120748
C49   C     C_R   0.674284 0.714631 0.304104 -0.120735
C50   C     C_R   0.299805 0.660024 0.736927 -0.121064
C51   C     C_R   0.700240 0.339932 0.263431 -0.121054
C52   C     C_R   0.660070 0.299760 0.263429 -0.121054
C53   C     C_R   0.339975 0.700194 0.736927 -0.121064
C54   C     C_R   0.714631 0.674284 0.304104 -0.120735
C55   C     C_R   0.285760 0.326106 0.696530 -0.120748
C56   C     C_R   0.339934 0.700238 0.263418 -0.121054
C57   C     C_1   0.999999 0.500000 0.025521 -0.025877
C58   C     C_R   0.660027 0.299801 0.736895 -0.121063
C59   C     C_R   0.285869 0.326215 0.303299 -0.120743
C60   C     C_R   0.714115 0.673769 0.696726 -0.120753
C61   C     C_R   0.173785 0.214131 0.196701 -0.120742
C62   C     C_R   0.826231 0.785884 0.803273 -0.120752
C63   C     C_R   0.200238 0.839932 0.236584 -0.121054
C64   C     C_R   0.799802 0.160029 0.763105 -0.121063
C65   C     C_R   0.825716 0.785369 0.195896 -0.120735
C66   C     C_R   0.173893 0.214240 0.803471 -0.120748
C67   C     C_R   0.799760 0.160068 0.236569 -0.121054
C68   C     C_1   0.000001 0.500000 0.974479 -0.025881
C69   C     C_R   0.200195 0.839976 0.763072 -0.121064
C70   C     C_R   0.160025 0.799806 0.763073 -0.121064
C71   C     C_R   0.839930 0.200239 0.236571 -0.121054
C72   C     C_R   0.214240 0.173894 0.803470 -0.120748
C73   C     C_R   0.785369 0.825716 0.195896 -0.120735
C74   C     C_R   0.839972 0.200199 0.763105 -0.121063
C75   C     C_R   0.160066 0.799761 0.236582 -0.121054
C76   C     C_R   0.785885 0.826231 0.803274 -0.120753
C77   C     C_R   0.214130 0.173784 0.196701 -0.120743
C78   C     C_R   0.000001 0.500000 0.879028 0.505864
C79   C     C_R   0.999999 0.500000 0.120972 0.505883
C80   C     C_R   0.500000 0.000001 0.879028 0.505864
C81   C     C_1   1.000000 0.500001 0.430906 0.020925
C82   C     C_R   0.500000 0.999999 0.120972 0.505883
C83   C     C_R   0.500000 1.000000 0.379028 0.505883
C84   C     C_R   0.499999 1.000000 0.620972 0.505864
C85   C     C_R   1.000000 0.500001 0.379028 0.505883
C86   C     C_R   0.000000 0.499999 0.620972 0.505864
C87   C     C_R   0.105879 0.605878 0.750000 0.526292
C88   C     C_R   0.894122 0.394122 0.250000 0.526334
C89   C     C_R   0.605787 0.894213 0.750000 0.530710
C90   C     C_R   0.394213 0.105786 0.250000 0.530714
C91   C     C_R   0.894122 0.394121 0.749999 0.526296
C92   C     C_1   0.499999 1.000000 0.569094 0.020914
C93   C     C_R   0.105877 0.605878 0.250000 0.526332
C94   C     C_R   0.394213 0.105787 0.750000 0.530736
C95   C     C_R   0.605787 0.894213 0.250000 0.530784
C96   C     C_R   0.105787 0.394213 0.250000 0.530714
C97   C     C_R   0.894213 0.605786 0.750000 0.530710
C98   C     C_R   0.605878 0.105877 0.250000 0.526334
C99   C     C_R   0.394121 0.894122 0.749999 0.526292
C100  C     C_R   0.894213 0.605787 0.250000 0.530784
C101  C     C_R   0.105787 0.394213 0.750000 0.530736
C102  C     C_R   0.394122 0.894122 0.250000 0.526333
C103  C     C_1   0.500001 1.000000 0.430906 0.020925
C104  C     C_R   0.605878 0.105878 0.750000 0.526296
C105  C     C_R   0.696194 0.860045 0.776832 -0.002335
C106  C     C_R   0.303816 0.139965 0.223152 -0.002333
C107  C     C_R   0.866785 0.296511 0.756808 0.000866
C108  C     C_R   0.133229 0.703469 0.243045 0.000825
C109  C     C_R   0.303865 0.140013 0.776924 -0.002345
C110  C     C_R   0.695943 0.859797 0.222769 -0.002368
C111  C     C_R   0.133214 0.703492 0.756793 0.000873
C112  C     C_R   0.866766 0.296532 0.243046 0.000837
C113  C     C_R   0.703468 0.133230 0.243040 0.000824
C114  C     C_1   0.500000 0.999998 0.069094 0.020925
C115  C     C_R   0.296508 0.866787 0.756792 0.000870
C116  C     C_R   0.859798 0.695943 0.222769 -0.002369
C117  C     C_R   0.140013 0.303865 0.776925 -0.002345
C118  C     C_R   0.296531 0.866766 0.243052 0.000838
C119  C     C_R   0.703490 0.133216 0.756807 0.000869
C120  C     C_R   0.139966 0.303817 0.223152 -0.002332
C121  C     C_R   0.860045 0.696194 0.776831 -0.002335
C122  C     C_R   0.196184 0.360035 0.276848 -0.002333
C123  C     C_R   0.803806 0.639955 0.723168 -0.002335
C124  C     C_R   0.366771 0.796531 0.256955 0.000825
C125  C     C_1   0.500000 0.000001 0.930906 0.020914
C126  C     C_R   0.633214 0.203489 0.743192 0.000866
C127  C     C_R   0.804057 0.640203 0.277231 -0.002368
C128  C     C_R   0.196135 0.359987 0.723076 -0.002345
C129  C     C_R   0.633234 0.203468 0.256953 0.000837
C130  C     C_R   0.366786 0.796508 0.743207 0.000873
C131  C     C_R   0.203492 0.633213 0.743208 0.000870
C132  C     C_R   0.796532 0.366770 0.256960 0.000824
C133  C     C_R   0.359987 0.196135 0.723075 -0.002345
C134  C     C_R   0.640202 0.804057 0.277231 -0.002369
C135  C     C_R   0.796510 0.366784 0.743192 0.000869
C136  C     C_1   0.999999 0.500000 0.069094 0.020925
C137  C     C_R   0.203468 0.633234 0.256948 0.000838
C138  C     C_R   0.639955 0.803806 0.723169 -0.002335
C139  C     C_R   0.360034 0.196183 0.276848 -0.002332
C140  C     C_R   0.648051 0.851949 0.750000 0.029369
C141  C     C_R   0.351949 0.148051 0.250000 0.029370
C142  C     C_R   0.851783 0.351782 0.749999 0.019565
C143  C     C_R   0.148215 0.648217 0.249999 0.019648
C144  C     C_R   0.351949 0.148050 0.750000 0.029390
C145  C     C_R   0.648050 0.851949 0.250000 0.029457
C146  C     C_R   0.148218 0.648217 0.750001 0.019557
C147  C     C_1   0.000001 0.500000 0.930906 0.020914
C148  C     C_R   0.851783 0.351785 0.250001 0.019651
C149  C     C_R   0.648217 0.148215 0.249999 0.019651
C150  C     C_R   0.351782 0.851783 0.749999 0.019557
C151  C     C_R   0.851950 0.648050 0.250000 0.029457
C152  C     C_R   0.148051 0.351949 0.750000 0.029390
C153  C     C_R   0.351785 0.851783 0.250001 0.019648
C154  C     C_R   0.648217 0.148218 0.750001 0.019565
C155  C     C_R   0.148051 0.351949 0.250000 0.029370
C156  C     C_R   0.851949 0.648051 0.750000 0.029369
C157  C     C_R   0.680651 0.762781 0.723103 0.013639
C158  C     C_1   1.000000 0.499999 0.525521 -0.025881
C159  C     C_R   0.319340 0.237210 0.276911 0.013641
C160  C     C_R   0.755670 0.326186 0.743361 0.011317
C161  C     C_R   0.244309 0.673833 0.256790 0.011335
C162  C     C_R   0.319288 0.237156 0.723005 0.013643
C163  C     C_R   0.680907 0.763039 0.277311 0.013661
C164  C     C_R   0.244331 0.673811 0.743377 0.011314
C165  C     C_R   0.755691 0.326169 0.256800 0.011338
C166  C     C_R   0.673834 0.244308 0.256796 0.011335
C167  C     C_R   0.326188 0.755668 0.743377 0.011314
C168  C     C_R   0.763039 0.680908 0.277311 0.013661
Cl1   Cl    Cl    0.703843 0.921302 0.810726 -0.079506
Cl2   Cl    Cl    0.279200 0.936524 0.767599 -0.064242
Cl3   Cl    Cl    0.920786 0.703310 0.188452 -0.079625
Cl4   Cl    Cl    0.078818 0.296281 0.810915 -0.079535
Cl5   Cl    Cl    0.279260 0.936477 0.232082 -0.064352
Cl6   Cl    Cl    0.720797 0.063482 0.767625 -0.064245
Cl7   Cl    Cl    0.078725 0.296184 0.189233 -0.079486
Cl8   Cl    Cl    0.921303 0.703843 0.810724 -0.079508
Cl9   Cl    Cl    0.203817 0.421276 0.310765 -0.079487
Cl10  Cl    Cl    0.796157 0.578698 0.689274 -0.079506
Cl11  Cl    Cl    0.436484 0.779266 0.267943 -0.064394
Cl12  Cl    Cl    0.296183 0.078724 0.189235 -0.079487
Cl13  Cl    Cl    0.563480 0.220793 0.732368 -0.064255
Cl14  Cl    Cl    0.796691 0.579215 0.311549 -0.079625
Cl15  Cl    Cl    0.203720 0.421183 0.689086 -0.079537
Cl16  Cl    Cl    0.563524 0.220739 0.267928 -0.064356
Cl17  Cl    Cl    0.436522 0.779198 0.732406 -0.064233
Cl18  Cl    Cl    0.220800 0.563475 0.732401 -0.064242
Cl19  Cl    Cl    0.779268 0.436482 0.267953 -0.064398
Cl20  Cl    Cl    0.421182 0.203719 0.689085 -0.079535
Cl21  Cl    Cl    0.579214 0.796690 0.311548 -0.079625
Cl22  Cl    Cl    0.779203 0.436518 0.732375 -0.064245
Cl23  Cl    Cl    0.936520 0.279207 0.767632 -0.064254
Cl24  Cl    Cl    0.220740 0.563523 0.267918 -0.064352
Cl25  Cl    Cl    0.578697 0.796157 0.689276 -0.079508
Cl26  Cl    Cl    0.421275 0.203816 0.310767 -0.079486
Cl27  Cl    Cl    0.063516 0.720734 0.232057 -0.064394
Cl28  Cl    Cl    0.296280 0.078817 0.810913 -0.079537
Cl29  Cl    Cl    0.703309 0.920785 0.188451 -0.079625
Cl30  Cl    Cl    0.063478 0.720802 0.767594 -0.064233
Cl31  Cl    Cl    0.936476 0.279261 0.232072 -0.064356
Cl32  Cl    Cl    0.720732 0.063518 0.232046 -0.064398
H1    H     H_    0.637147 0.706505 0.675770 0.132375
H2    H     H_    0.381961 0.686958 0.731897 0.132299
H3    H     H_    0.707229 0.637870 0.325395 0.132398
H4    H     H_    0.293319 0.362678 0.675493 0.132386
H5    H     H_    0.381904 0.687022 0.268589 0.132315
H6    H     H_    0.618042 0.313034 0.731853 0.132301
H7    H     H_    0.293475 0.362833 0.324263 0.132381
H8    H     H_    0.706506 0.637147 0.675770 0.132375
H9    H     H_    0.137167 0.206526 0.175737 0.132381
H10   H     H_    0.862853 0.793494 0.824229 0.132375
H11   H     H_    0.187021 0.881902 0.231413 0.132306
H12   H     H_    0.362833 0.293474 0.324263 0.132381
H13   H     H_    0.813036 0.118044 0.768148 0.132299
H14   H     H_    0.862131 0.792771 0.174605 0.132398
H15   H     H_    0.137322 0.206681 0.824507 0.132386
H16   H     H_    0.812975 0.118098 0.231392 0.132315
H17   H     H_    0.186960 0.881962 0.768101 0.132302
H18   H     H_    0.118039 0.813041 0.768103 0.132299
H19   H     H_    0.881899 0.187024 0.231394 0.132306
H20   H     H_    0.206681 0.137322 0.824507 0.132386
H21   H     H_    0.792771 0.862130 0.174605 0.132398
H22   H     H_    0.881957 0.186965 0.768147 0.132301
H23   H     H_    0.686963 0.381955 0.731852 0.132299
H24   H     H_    0.118096 0.812978 0.231411 0.132315
H25   H     H_    0.793494 0.862852 0.824230 0.132375
H26   H     H_    0.206525 0.137167 0.175737 0.132381
H27   H     H_    0.312979 0.618098 0.268587 0.132306
H28   H     H_    0.362678 0.293319 0.675493 0.132385
H29   H     H_    0.637869 0.707229 0.325395 0.132398
H30   H     H_    0.313040 0.618037 0.731899 0.132302
H31   H     H_    0.687025 0.381902 0.268608 0.132315
H32   H     H_    0.618101 0.312976 0.268606 0.132306
O1    O     O_3   0.000000 0.500000 0.750000 -0.456398
O2    O     O_R   0.954240 0.500000 0.143870 -0.533612
O3    O     O_R   0.500000 0.954240 0.856130 -0.533624
O4    O     O_R   0.500000 0.045760 0.143870 -0.533624
O5    O     O_R   0.454240 0.000000 0.356130 -0.533624
O6    O     O_R   0.545760 0.000000 0.643870 -0.533625
O7    O     O_R   0.000000 0.545760 0.356130 -0.533612
O8    O     O_R   0.000000 0.454240 0.643870 -0.533627
O9    O     O_R   0.545760 0.000000 0.356130 -0.533612
O10   O     O_R   0.454240 0.000000 0.643870 -0.533627
O11   O     O_R   0.000000 0.454240 0.356130 -0.533624
O12   O     O_3   0.000000 0.500000 0.250000 -0.456405
O13   O     O_R   0.000000 0.545760 0.643870 -0.533624
O14   O     O_R   0.110440 0.564520 0.777740 -0.529551
O15   O     O_R   0.889560 0.435480 0.222260 -0.529570
O16   O     O_R   0.564520 0.889560 0.777740 -0.529900
O17   O     O_R   0.435480 0.110440 0.222260 -0.529903
O18   O     O_R   0.889560 0.435480 0.777740 -0.529539
O19   O     O_R   0.110440 0.564520 0.222260 -0.529541
O20   O     O_R   0.435480 0.110440 0.777740 -0.529901
O21   O     O_R   0.564520 0.889560 0.222260 -0.529904
O22   O     O_R   0.110440 0.435480 0.222260 -0.529903
O23   O     O_3   0.500000 0.000000 0.750000 -0.456398
O24   O     O_R   0.889560 0.564520 0.777740 -0.529901
O25   O     O_R   0.564520 0.110440 0.222260 -0.529541
O26   O     O_R   0.435480 0.889560 0.777740 -0.529539
O27   O     O_R   0.889560 0.564520 0.222260 -0.529905
O28   O     O_R   0.110440 0.435480 0.777740 -0.529900
O29   O     O_R   0.435480 0.889560 0.222260 -0.529570
O30   O     O_R   0.564520 0.110440 0.777740 -0.529551
O31   O     O_R   0.610440 0.064520 0.277740 -0.529570
O32   O     O_R   0.389560 0.935480 0.722260 -0.529551
O33   O     O_R   0.064520 0.389560 0.277740 -0.529903
O34   O     O_3   0.500000 0.000000 0.250000 -0.456405
O35   O     O_R   0.935480 0.610440 0.722260 -0.529901
O36   O     O_R   0.389560 0.935480 0.277740 -0.529541
O37   O     O_R   0.610440 0.064520 0.722260 -0.529539
O38   O     O_R   0.935480 0.610440 0.277740 -0.529904
O39   O     O_R   0.064520 0.389560 0.722260 -0.529901
O40   O     O_R   0.610440 0.935480 0.722260 -0.529901
O41   O     O_R   0.389560 0.064520 0.277740 -0.529903
O42   O     O_R   0.064520 0.610440 0.722260 -0.529538
O43   O     O_R   0.935480 0.389560 0.277740 -0.529541
O44   O     O_R   0.389560 0.064520 0.722260 -0.529900
O45   O     O_R   0.954240 0.500000 0.856130 -0.533625
O46   O     O_R   0.610440 0.935480 0.277740 -0.529905
O47   O     O_R   0.935480 0.389560 0.722260 -0.529551
O48   O     O_R   0.064520 0.610440 0.277740 -0.529570
O49   O     O_R   0.045760 0.500000 0.143870 -0.533624
O50   O     O_R   0.500000 0.045760 0.856130 -0.533627
O51   O     O_R   0.500000 0.954240 0.143870 -0.533612
O52   O     O_R   0.045760 0.500000 0.856130 -0.533626
Zn1   Zn    Zn3+2 1.000000 0.565500 0.710070 0.967473
Zn2   Zn    Zn3+2 0.500000 0.934500 0.789930 0.967473
Zn3   Zn    Zn3+2 0.065500 0.500000 0.210070 0.967492
Zn4   Zn    Zn3+2 0.934500 0.500000 0.789930 0.967474
Zn5   Zn    Zn3+2 0.500000 0.934500 0.210070 0.967504
Zn6   Zn    Zn3+2 0.500000 0.065500 0.789930 0.967478
Zn7   Zn    Zn3+2 0.934500 0.500000 0.210070 0.967505
Zn8   Zn    Zn3+2 0.065500 0.500000 0.789930 0.967477
Zn9   Zn    Zn3+2 1.000000 0.434500 0.289930 0.967492
Zn10  Zn    Zn3+2 0.565500 0.000000 0.710070 0.967474
Zn11  Zn    Zn3+2 0.434500 0.000000 0.289930 0.967492
Zn12  Zn    Zn3+2 0.000000 0.434500 0.710070 0.967478
Zn13  Zn    Zn3+2 0.000000 0.565500 0.289930 0.967504
Zn14  Zn    Zn3+2 0.434500 0.000000 0.710070 0.967477
Zn15  Zn    Zn3+2 0.565500 0.000000 0.289930 0.967505
Zn16  Zn    Zn3+2 0.500000 0.065500 0.210070 0.967492

loop_
_geom_bond_atom_site_label_1
_geom_bond_atom_site_label_2
_ccdc_geom_bond_type
C83   O5    A    
C22   C29   A    
C10   C63   A    
C70   H18   S    
C105  Cl1   S    
O23   Zn6   S    
C115  Cl2   S    
C48   C162  A    
C28   C40   A    
C30   C38   A    
C109  Cl28  S    
C7    C42   A    
C66   H15   S    
C104  O37   A    
O5    Zn11  S    
C133  Cl20  S    
C130  C167  A    
C135  C142  A    
C66   C72   A    
C56   H5    S    
C118  Cl5   S    
C5    C126  A    
C43   H1    S    
C9    C121  A    
C87   O42   A    
C110  C145  A    
C95   O21   A    
C91   C142  S    
C139  C159  A    
C77   H26   S    
C4    C56   A    
C110  Cl29  S    
C45   C160  A    
O19   Zn3   S    
C123  Cl10  S    
C37   C168  A    
C123  C156  A    
O45   Zn4   S    
C50   C53   A    
C50   C164  A    
C51   C52   A    
C99   O26   A    
C120  C155  A    
C31   C37   A    
C116  Cl3   S    
O34   Zn11  S    
C29   C161  A    
C14   C38   A    
C120  Cl7   S    
C88   C148  S    
O1    Zn8   S    
O2    Zn7   S    
C8    C41   A    
C108  Cl27  S    
C102  C153  S    
C138  C140  A    
C97   O24   A    
C126  C154  A    
C21   C28   A    
C30   C162  A    
C16   C115  A    
C138  Cl25  S    
C18   C71   A    
C74   H22   S    
C79   O2    A    
C7    C123  A    
C94   O20   A    
C79   O49   A    
C73   H21   S    
C94   C144  S    
C96   O22   A    
C105  C140  A    
C137  C161  A    
O6    Zn10  S    
C117  Cl4   S    
C131  C164  A    
C20   C73   A    
C109  C144  A    
C69   C70   A    
C90   C141  S    
O30   Zn6   S    
C96   C155  S    
O52   Zn8   S    
C44   C159  A    
C2    C81   T    
C85   O7    A    
C19   C30   A    
O7    Zn13  S    
C91   O18   A    
C122  Cl9   S    
O28   Zn8   S    
C121  C156  A    
C122  C155  A    
C23   C76   A    
C79   C136  S    
O23   Zn2   S    
O14   Zn8   S    
C83   C103  S    
C5    C58   A    
C131  C146  A    
C32   C36   A    
O32   Zn14  S    
C90   O41   A    
O4    Zn16  S    
C119  Cl6   S    
C48   H28   S    
O1    Zn4   S    
C44   C59   A    
C27   C159  A    
C54   H3    S    
C23   C105  A    
C28   C160  A    
C134  C163  A    
C4    C124  A    
C97   C156  S    
O12   Zn7   S    
C127  C151  A    
C3    C55   A    
C128  C152  A    
C61   C77   A    
C130  C150  A    
C15   C113  A    
C14   C117  A    
C100  O27   A    
C124  C153  A    
C67   H16   S    
C128  Cl15  S    
O23   Zn10  S    
C17   C111  A    
C106  Cl12  S    
C19   C109  A    
C72   H20   S    
C51   H31   S    
C64   H13   S    
C132  C165  A    
C111  C146  A    
C3    C128  A    
C135  Cl22  S    
C129  C149  A    
O25   Zn16  S    
C86   O8    A    
C89   C140  S    
C15   C67   A    
O33   Zn9   S    
C62   H10   S    
C91   O47   A    
C20   C110  A    
C75   H24   S    
C86   O13   A    
C51   C165  A    
C57   C68   S    
C26   C42   A    
C59   H7    S    
C1    C86   S    
C17   C32   A    
C133  C144  A    
C76   H25   S    
C6    C59   A    
C33   C165  A    
C54   C168  A    
C43   C157  A    
O44   Zn14  S    
O1    Zn12  S    
C24   C103  T    
C16   C36   A    
C139  C141  A    
C63   C75   A    
C32   C164  A    
C50   H30   S    
O20   Zn6   S    
C11   C40   A    
C18   C33   A    
C49   C163  A    
O17   Zn16  S    
C47   H27   S    
O35   Zn1   S    
O15   Zn7   S    
C127  Cl14  S    
C126  Cl13  S    
C84   C92   S    
C116  C151  A    
C81   C85   S    
O40   Zn10  S    
C47   C56   A    
C12   C116  A    
C48   C55   A    
C80   O50   A    
C82   O4    A    
C89   O40   A    
C46   C125  T    
C95   C145  S    
C133  C162  A    
C130  Cl17  S    
C100  O38   A    
O22   Zn3   S    
C101  O39   A    
C104  O30   A    
C69   H17   S    
C134  Cl21  S    
C1    C158  T    
C87   C146  S    
C88   O43   A    
C18   C112  A    
C111  Cl30  S    
C94   O44   A    
O12   Zn9   S    
C58   H6    S    
O3    Zn2   S    
C71   H19   S    
O24   Zn4   S    
O41   Zn11  S    
C23   C26   A    
C12   C37   A    
C124  Cl11  S    
O43   Zn9   S    
O1    Zn1   S    
C127  C168  A    
O29   Zn5   S    
O31   Zn15  S    
C15   C34   A    
O34   Zn15  S    
C95   O46   A    
O48   Zn13  S    
C62   C76   A    
C132  Cl19  S    
C90   O17   A    
C25   C106  A    
C99   C150  S    
C45   C58   A    
C45   H23   S    
C63   H11   S    
C60   H8    S    
O13   Zn1   S    
C36   C167  A    
C10   C39   A    
C137  Cl24  S    
O46   Zn15  S    
C2    C158  S    
C102  O29   A    
C61   H9    S    
O23   Zn14  S    
C78   O52   A    
O37   Zn10  S    
C78   C147  S    
O38   Zn13  S    
C129  C166  A    
C98   O25   A    
C129  Cl16  S    
C99   O32   A    
C119  C154  A    
C13   C92   T    
C25   C27   A    
C7    C60   A    
C106  C141  A    
C96   O33   A    
C134  C145  A    
C135  C160  A    
C84   O6    A    
C78   O45   A    
C12   C65   A    
C83   O9    A    
C101  C152  S    
C53   H2    S    
C65   H14   S    
O16   Zn2   S    
C22   C108  A    
C55   H4    S    
C113  Cl32  S    
C67   C71   A    
C49   H29   S    
C118  C153  A    
C47   C161  A    
C5    C40   A    
C64   C74   A    
C104  C154  S    
C34   C166  A    
C35   C46   S    
C108  C143  A    
C49   C54   A    
C98   C149  S    
O49   Zn3   S    
C11   C119  A    
O9    Zn15  S    
O51   Zn5   S    
C9    C42   A    
C26   C157  A    
C25   C77   A    
C121  Cl8   S    
C80   C125  S    
O47   Zn12  S    
O8    Zn12  S    
C101  O28   A    
C85   O11   A    
C65   C73   A    
C35   C114  T    
C93   O48   A    
C52   C166  A    
C98   O31   A    
C53   C167  A    
C3    C38   A    
C6    C41   A    
C57   C136  T    
C117  C152  A    
C112  Cl31  S    
C93   C143  S    
C139  Cl26  S    
C8    C61   A    
C137  C143  A    
C17   C70   A    
C102  O36   A    
C80   O3    A    
C19   C72   A    
C22   C75   A    
C82   O51   A    
C97   O35   A    
O12   Zn13  S    
C100  C151  S    
C31   C163  A    
O34   Zn16  S    
C9    C62   A    
C132  C148  A    
C113  C149  A    
C82   C114  S    
C11   C64   A    
C52   H32   S    
C21   C74   A    
C112  C148  A    
C13   C24   S    
C44   H12   S    
C10   C118  A    
O50   Zn6   S    
C27   C41   A    
C4    C39   A    
O27   Zn7   S    
C29   C39   A    
C33   C34   A    
C14   C66   A    
O42   Zn1   S    
C107  C142  A    
C21   C107  A    
C68   C147  T    
C43   C60   A    
C6    C122  A    
C107  Cl23  S    
C8    C120  A    
C87   O14   A    
O10   Zn14  S    
O21   Zn5   S    
C16   C69   A    
O11   Zn9   S    
C89   O16   A    
O26   Zn2   S    
O36   Zn11  S    
C88   O15   A    
C138  C157  A    
C115  C150  A    
O34   Zn5   S    
O39   Zn12  S    
C131  Cl18  S    
O12   Zn3   S    
O18   Zn4   S    
C84   O10   A    
C93   O19   A    
C20   C31   A    
