data_mof_unit_13144.cif
_audit_creation_date              2012-12-10T20:43:22-0500
_audit_creation_method            fapswitch 2.2
_symmetry_space_group_name_H-M    P1
_symmetry_Int_Tables_number       1
_space_group_crystal_system       triclinic
_cell_length_a                    15.62822
_cell_length_b                    10.671077
_cell_length_c                    9.903163
_cell_angle_alpha                 89.264325
_cell_angle_beta                  89.004667
_cell_angle_gamma                 91.015886
_cell_volume                      1650.89834493

loop_
_atom_site_label
_atom_site_type_symbol
_atom_type_description
_atom_site_fract_x
_atom_site_fract_y
_atom_site_fract_z
_atom_type_partial_charge
C1    C     C_R   0.505387 0.260185 0.499933 0.908875
C2    C     C_R   0.557635 0.937173 0.382725 0.020992
C3    C     C_R   0.524983 0.871124 0.498091 -0.217254
C4    C     C_R   0.338695 0.503633 0.500906 0.897053
C5    C     C_R   0.514817 0.934449 0.618709 0.119367
C6    C     C_3   0.445904 0.924077 0.725361 -0.080678
C7    C     C_3   0.447396 0.066458 0.726969 -0.519455
C8    C     C_R   0.427252 0.524977 0.073579 0.098031
C9    C     C_R   0.573642 0.481252 0.068811 0.152104
C10   C     C_R   0.573399 0.483436 0.925435 -0.194058
C11   C     C_R   0.426381 0.519889 0.931206 0.071195
C12   C     C_R   0.044037 0.622190 0.610094 0.213104
C13   C     C_3   0.346247 0.437932 0.938175 0.398957
C14   C     C_3   0.345181 0.454340 0.091210 -0.558982
C15   C     C_R   0.506042 0.739781 0.498825 0.882247
C16   C     C_R   0.661263 0.502196 0.498878 0.886856
C17   C     C_R   0.954439 0.612985 0.609717 0.008088
C18   C     C_R   0.913066 0.583227 0.488980 -0.015844
C19   C     C_R   0.959021 0.576704 0.366228 0.065982
C20   C     C_R   0.048164 0.584282 0.366981 0.181266
C21   C     C_R   0.090086 0.595602 0.490864 -0.037548
C22   C     C_3   0.130386 0.773743 0.729699 -0.801557
C23   C     C_1   0.824264 0.552745 0.492330 -0.055224
C24   C     C_3   0.188580 0.469595 0.918203 -0.773439
C25   C     C_3   0.293885 0.217804 0.919444 -0.804435
C26   C     C_3   0.101731 0.700016 0.170480 -0.776594
C27   C     C_3   0.519532 0.138157 0.156188 -0.739052
C28   C     C_1   0.178031 0.563805 0.498388 -0.012058
C29   C     C_1   0.251062 0.533459 0.501739 -0.195791
C30   C     C_1   0.749982 0.526429 0.495608 -0.199234
C31   C     C_R   0.515316 0.061997 0.619534 0.042758
C32   C     C_R   0.524320 0.129424 0.499269 -0.202264
C33   C     C_R   0.555172 0.068420 0.381967 0.195689
H1    H     H_    0.472677 0.106779 0.821328 0.205962
H2    H     H_    0.177408 0.782240 0.644622 0.248891
H3    H     H_    0.697278 0.523025 0.104949 0.158452
H4    H     H_    0.673097 0.367990 0.102521 0.161942
H5    H     H_    0.284919 0.583312 0.828357 0.231869
H6    H     H_    0.147910 0.438825 0.833736 0.255720
H7    H     H_    0.162773 0.556252 0.961571 0.240208
H8    H     H_    0.185411 0.396316 0.998475 0.244442
H9    H     H_    0.420262 0.276843 0.930239 0.205448
H10   H     H_    0.317535 0.121919 0.902479 0.225587
H11   H     H_    0.241471 0.234404 0.847628 0.267796
H12   H     H_    0.632321 0.468208 0.869733 0.157385
H13   H     H_    0.269449 0.220148 0.025260 0.227236
H14   H     H_    0.862828 0.703048 0.716011 0.197957
H15   H     H_    0.871919 0.548918 0.756251 0.192898
H16   H     H_    0.872921 0.629050 0.226843 0.186310
H17   H     H_    0.882204 0.471925 0.247304 0.186296
H18   H     H_    0.150717 0.531229 0.243116 0.219707
H19   H     H_    0.170134 0.724572 0.149509 0.218303
H20   H     H_    0.073023 0.777713 0.228852 0.242074
H21   H     H_    0.067842 0.692955 0.073327 0.246835
H22   H     H_    0.641704 0.114891 0.229036 0.226823
H23   H     H_    0.294336 0.516403 0.130230 0.199361
H24   H     H_    0.512529 0.043637 0.111851 0.219036
H25   H     H_    0.541718 0.204410 0.075166 0.216357
H26   H     H_    0.456042 0.168642 0.194205 0.247418
H27   H     H_    0.540399 0.832748 0.214094 0.215539
H28   H     H_    0.634220 0.807299 0.296090 0.198439
H29   H     H_    0.533310 0.909714 0.880087 0.196664
H30   H     H_    0.430426 0.881574 0.926173 0.174984
H31   H     H_    0.352695 0.366206 0.150598 0.202702
H32   H     H_    0.385045 0.881336 0.689553 0.155463
H33   H     H_    0.387544 0.108191 0.689173 0.207344
H34   H     H_    0.053187 0.635614 0.819008 0.246298
H35   H     H_    0.165496 0.786048 0.825317 0.229298
H36   H     H_    0.082522 0.849064 0.720857 0.242139
N1    N     N_R   0.499440 0.499140 0.142800 -0.090693
N2    N     N_2   0.581367 0.137490 0.263642 -0.265522
N3    N     N_3   0.590766 0.875037 0.265652 -0.465247
N4    N     N_3   0.476238 0.866234 0.850254 -0.422523
N5    N     N_R   0.499440 0.499180 0.857150 -0.110645
N6    N     N_2   0.087886 0.652135 0.730950 -0.293553
N7    N     N_3   0.651697 0.454968 0.135233 -0.390951
N8    N     N_2   0.274937 0.494105 0.867727 -0.256830
N9    N     N_2   0.362499 0.309431 0.896969 -0.253899
N10   N     N_3   0.906363 0.631404 0.732539 -0.472661
N11   N     N_3   0.916445 0.556916 0.240768 -0.427940
N12   N     N_2   0.094700 0.580749 0.242224 -0.282249
O1    O     O_R   0.500010 0.316790 0.614690 -0.605634
O2    O     O_R   0.500000 0.316760 0.385350 -0.586739
O3    O     O_R   0.378030 0.499990 0.614640 -0.595568
O4    O     O_R   0.378020 0.499950 0.385300 -0.617629
O5    O     O_R   0.500000 0.683240 0.614650 -0.592148
O6    O     O_R   0.499990 0.683210 0.385310 -0.628734
O7    O     O_R   0.621980 0.500050 0.614700 -0.626548
O8    O     O_R   0.621970 0.500010 0.385360 -0.586324
Zn1   Zn    Zn3+2 0.500010 0.500020 0.653130 0.960909
Zn2   Zn    Zn3+2 0.499990 0.499980 0.346870 0.952850

loop_
_geom_bond_atom_site_label_1
_geom_bond_atom_site_label_2
_ccdc_geom_bond_type
C14   H23   S    
O6    Zn2   S    
C10   N5    A    
N1    Zn2   S    
H14   N10   S    
C25   H10   S    
O4    Zn2   S    
C27   N2    S    
C22   H2    S    
H15   N10   S    
C28   C29   T    
C5    C6    S    
H27   N3    S    
C16   C30   S    
C17   N10   S    
C24   H6    S    
C18   C19   A    
H3    N7    S    
C6    H32   S    
C19   C20   A    
C12   C17   A    
H29   N4    S    
C9    N7    S    
O8    Zn2   S    
C9    C10   A    
H18   N12   S    
C22   H36   S    
C4    C29   S    
C16   O8    A    
C20   N12   S    
C24   H8    S    
O3    Zn1   S    
C22   N6    S    
C2    N3    S    
C26   H21   S    
C25   H11   S    
C13   N8    S    
C7    C31   S    
C18   C23   S    
C23   C30   T    
C9    N1    A    
C27   H24   S    
C4    O4    A    
H30   N4    S    
C1    O1    A    
C12   C21   A    
C11   N5    A    
C1    C32   S    
C25   N9    S    
C26   H19   S    
C31   C32   A    
C4    O3    A    
C14   H31   S    
C10   H12   S    
C17   C18   A    
C22   H35   S    
C15   O5    A    
H28   N3    S    
H4    N7    S    
O7    Zn1   S    
H9    N9    S    
C26   N12   S    
O5    Zn1   S    
C7    H1    S    
H34   N6    S    
C26   H20   S    
C3    C15   S    
C2    C33   A    
C6    N4    S    
C15   O6    A    
C13   N9    S    
C8    C14   S    
C21   C28   S    
C3    C5    A    
C27   H25   S    
H17   N11   S    
C6    C7    S    
H5    N8    S    
C1    O2    A    
O2    Zn2   S    
C8    N1    A    
O1    Zn1   S    
H16   N11   S    
C32   C33   A    
N5    Zn1   S    
C2    C3    A    
C27   H26   S    
C7    H33   S    
C11   C13   S    
C8    C11   A    
C24   H7    S    
C19   N11   S    
C33   N2    S    
C24   N8    S    
C20   C21   A    
C12   N6    S    
C16   O7    A    
C13   C14   S    
C25   H13   S    
H22   N2    S    
C5    C31   A    
