data_mof_unit_53491.cif
_audit_creation_date              2013-03-05T15:58:06-0500
_audit_creation_method            fapswitch 2.2
_symmetry_space_group_name_H-M    P1
_symmetry_Int_Tables_number       1
_space_group_crystal_system       triclinic
_cell_length_a                    15.241185
_cell_length_b                    15.302643
_cell_length_c                    15.323195
_cell_angle_alpha                 111.187549
_cell_angle_beta                  109.315393
_cell_angle_gamma                 109.323874
_cell_volume                      2701.37726443

loop_
_atom_site_label
_atom_site_type_symbol
_atom_site_description
_atom_site_fract_x
_atom_site_fract_y
_atom_site_fract_z
_atom_type_partial_charge
C1    C     C_R   0.953239 0.226608 0.037434 0.346793
N1    N     N_R   0.947080 0.293830 0.002870 -0.097835
C2    C     C_R   0.300070 0.803147 0.213367 0.041438
H1    H     H_    0.354439 0.828507 0.185732 0.186819
N2    N     N_R   0.208950 0.706170 0.152110 -0.046477
C3    C     C_R   0.204439 0.409100 0.899353 0.255746
N3    N     N_R   0.153670 0.443180 0.946090 -0.101304
C4    C     C_R   0.048692 0.593753 0.314934 -0.075128
H2    H     H_    0.089512 0.677743 0.378564 0.115668
N4    N     N_R   0.002360 0.556820 0.208890 -0.056835
C5    C     C_R   0.296522 0.590320 0.994018 0.489040
N5    N     N_R   0.210070 0.556820 0.002870 -0.103207
C6    C     C_R   0.963893 0.410903 0.221533 -0.110620
H3    H     H_    0.931218 0.328529 0.201188 0.168178
N6    N     N_R   0.945960 0.443180 0.152110 -0.065427
C7    C     C_R   0.205595 0.805115 0.297369 -0.104691
H4    H     H_    0.166517 0.833506 0.337803 0.121890
N7    N     N_R   0.151710 0.706170 0.208890 -0.057934
C8    C     C_R   0.062435 0.248744 0.967422 -0.039533
H5    H     H_    0.120432 0.247154 0.942436 0.151641
N8    N     N_R   0.004320 0.293830 0.946090 -0.059840
C9    C     C_R   0.031622 0.203471 0.022804 -0.043195
C10   C     C_R   0.299525 0.868627 0.304155 0.014669
C11   C     C_R   0.300962 0.500188 0.937349 -0.102023
C12   C     C_R   0.024007 0.502550 0.323562 0.067980
C13   C     C_R   0.697698 0.408832 0.995927 -0.064865
H6    H     H_    0.643792 0.325315 0.967589 0.160871
N9    N     N_R   0.789930 0.443180 0.997130 -0.050825
C14   C     C_R   0.090368 0.591227 0.792609 -0.025285
H7    H     H_    0.145160 0.674908 0.824788 0.193678
N10   N     N_R   0.054040 0.556820 0.847890 -0.070900
C15   C     C_R   0.780035 0.256713 0.688468 -0.061947
H8    H     H_    0.805668 0.260485 0.632408 0.105535
N11   N     N_R   0.848290 0.293830 0.791110 -0.043851
C16   C     C_R   0.960686 0.774684 0.056225 -0.055791
H9    H     H_    0.916059 0.789260 0.095537 0.112698
N12   N     N_R   0.995680 0.706170 0.053910 -0.079344
C17   C     C_R   0.062173 0.784930 0.976718 0.308452
N13   N     N_R   0.052920 0.706170 0.997130 -0.095003
C18   C     C_R   0.686396 0.246533 0.774254 -0.038780
H10   H     H_    0.622755 0.229969 0.792815 0.158987
N14   N     N_R   0.791050 0.293830 0.847890 -0.048634
C19   C     C_R   0.785892 0.590417 0.084034 -0.002655
H11   H     H_    0.810731 0.675036 0.130928 0.130696
N15   N     N_R   0.846330 0.556820 0.053910 -0.053467
C20   C     C_R   0.001153 0.409855 0.699663 -0.088208
H12   H     H_    0.973734 0.326757 0.642529 0.163432
N16   N     N_R   0.997640 0.443180 0.791110 -0.058666
Ni1   Ni    Ni4+2 0.869690 0.369690 0.000000 0.286344
Ni2   Ni    Ni4+2 0.130310 0.630310 0.000000 0.318820
Ni3   Ni    Ni4+2 0.000970 0.369690 0.869780 0.306130
Ni4   Ni    Ni4+2 0.999030 0.630310 0.130220 0.241572
C21   C     C_R   0.688178 0.498279 0.041161 0.079312
C22   C     C_R   0.058151 0.500950 0.698976 0.023666
C23   C     C_R   0.676709 0.222884 0.672654 0.040415
C24   C     C_R   0.001042 0.826474 0.009046 -0.031319
C25   C     C_R   0.674883 0.330462 0.176521 -0.166426
H13   H     H_    0.628288 0.362872 0.145734 0.148658
C26   C     C_R   0.771298 0.399357 0.277446 -0.085432
H14   H     H_    0.798906 0.485298 0.323804 0.194079
C27   C     C_R   0.833889 0.357757 0.315977 0.076389
C28   C     C_R   0.797535 0.246285 0.253262 -0.170397
H15   H     H_    0.847155 0.213739 0.278740 0.183313
C29   C     C_R   0.700954 0.177948 0.152796 -0.005216
H16   H     H_    0.675277 0.093100 0.103583 0.210960
C30   C     C_R   0.640540 0.220347 0.113492 0.523538
C31   C     C_R   0.955597 0.434275 0.509826 -0.200930
H17   H     H_    0.885495 0.387719 0.510808 0.179284
C32   C     C_R   0.056965 0.500177 0.604763 0.123235
C33   C     C_R   0.148079 0.568213 0.607492 0.179435
C34   C     C_R   0.135189 0.563436 0.511642 -0.141623
H18   H     H_    0.204305 0.609595 0.509032 0.181703
C35   C     C_R   0.033654 0.499237 0.418220 0.054467
C36   C     C_R   0.942546 0.431800 0.415616 0.058343
C37   C     C_R   0.297968 0.753929 0.776386 0.278188
C38   C     C_R   0.409005 0.823498 0.854727 -0.017076
H19   H     H_    0.441230 0.908564 0.911443 0.218536
C39   C     C_R   0.481007 0.786397 0.857255 -0.036954
H20   H     H_    0.566628 0.843021 0.913144 0.241281
C40   C     C_R   0.443389 0.677997 0.785144 -0.148905
H21   H     H_    0.500848 0.651212 0.786154 0.228902
C41   C     C_R   0.332721 0.604587 0.711469 0.500466
C42   C     C_R   0.258519 0.641425 0.704784 -0.239296
H22   H     H_    0.200454 0.769731 0.588700 0.192190
C43   C     C_R   0.192849 0.889814 0.550943 0.320837
C44   C     C_R   0.246115 0.968692 0.531690 -0.243290
H23   H     H_    0.209135 0.011024 0.506793 0.184224
C45   C     C_R   0.340811 0.981761 0.530472 -0.033808
C46   C     C_R   0.391351 0.929246 0.564025 -0.197032
H24   H     H_    0.465936 0.941220 0.564863 0.164038
C47   C     C_R   0.343177 0.856345 0.589685 0.513574
C48   C     C_R   0.242929 0.834597 0.580541 -0.307198
C49   C     C_R   0.479245 0.143711 0.567961 -0.045976
H25   H     H_    0.483566 0.185335 0.643512 0.202248
C50   C     C_R   0.574799 0.164564 0.566684 -0.002626
C51   C     C_R   0.565318 0.108830 0.464266 0.105020
C52   C     C_R   0.463562 0.036270 0.371586 -0.029181
H26   H     H_    0.459344 0.999820 0.294288 0.168160
C53   C     C_R   0.378108 0.986557 0.384826 0.041717
C54   C     C_R   0.386814 0.042728 0.486956 0.118084
C55   C     C_R   0.714009 0.156618 0.424963 0.527207
C56   C     C_R   0.811527 0.160758 0.440356 -0.313003
H27   H     H_    0.865324 0.213663 0.427307 0.167440
C57   C     C_R   0.844121 0.101237 0.480384 -0.240079
H28   H     H_    0.923016 0.111313 0.499437 0.188002
C58   C     C_R   0.774486 0.028711 0.494624 0.622032
C59   C     C_R   0.679050 0.026451 0.482265 -0.230917
H29   H     H_    0.628094 0.975079 0.499599 0.180670
C60   C     C_R   0.652500 0.095387 0.453926 -0.127603
C61   C     C_3   0.483120 0.377805 0.930737 0.295861
H30   H     H_    0.480074 0.327907 0.968585 0.118786
C62   C     C_3   0.381189 0.384698 0.899113 -0.416367
H31   H     H_    0.344313 0.362719 0.813170 0.297981
H32   H     H_    0.322045 0.322510 0.902557 0.176522
H33   H     H_    0.561813 0.467077 0.137213 0.128172
C63   C     C_3   0.574637 0.533567 0.120755 -0.045388
C64   C     C_3   0.579224 0.571590 0.969288 0.252475
C65   C     C_3   0.584390 0.495772 0.015811 -0.184996
H34   H     H_    0.646588 0.656093 0.033405 0.146177
C66   C     C_3   0.405336 0.501693 0.971094 -0.051455
C67   C     C_3   0.470485 0.543365 0.097238 0.551898
C68   C     C_3   0.475333 0.575848 0.945732 -0.460222
H35   H     H_    0.426072 0.549311 0.859861 0.233716
H36   H     H_    0.499004 0.661980 0.995020 0.260132
H37   H     H_    0.219628 0.101878 0.708102 0.182784
C69   C     C_R   0.073386 0.042743 0.712703 0.125586
H38   H     H_    0.023280 0.021597 0.631112 0.197438
C70   C     C_R   0.027641 0.026327 0.774732 -0.092781
H39   H     H_    0.941122 0.991036 0.740119 0.199743
C71   C     C_R   0.093329 0.057586 0.882173 -0.109085
C72   C     C_R   0.207153 0.102340 0.926625 0.439440
C73   C     C_R   0.250452 0.116676 0.861473 -0.138331
H40   H     H_    0.336001 0.149732 0.891932 0.216831
C74   C     C_R   0.184435 0.088387 0.756167 -0.174207
C75   C     C_R   0.000524 0.935646 0.928817 -0.047296
H41   H     H_    0.979077 0.867428 0.853933 0.182644
C76   C     C_R   0.000823 0.922775 0.013906 0.055026
C77   C     C_R   0.022621 0.009950 0.109121 0.069384
C78   C     C_R   0.058584 0.113031 0.122799 0.549143
C79   C     C_R   0.055637 0.123319 0.035303 -0.044887
C80   C     C_R   0.041276 0.038168 0.944557 0.012413
C81   C     C_R   0.871334 0.943230 0.142913 0.242751
C82   C     C_R   0.835465 0.937722 0.215791 0.261610
C83   C     C_R   0.909490 0.965181 0.318375 -0.221173
H42   H     H_    0.882199 0.951117 0.371112 0.247705
C84   C     C_R   0.019642 0.013542 0.355772 -0.240536
H43   H     H_    0.074740 0.041341 0.438545 0.204191
C85   C     C_R   0.058778 0.027328 0.288350 0.376201
C86   C     C_R   0.984239 0.991069 0.180703 -0.244996
N17   N     N_R   0.863151 0.156680 0.037219 0.232367
O1    O     O_R   0.766310 0.131582 0.972350 -0.384028
O2    O     O_R   0.877852 0.134656 0.113285 -0.422141
N18   N     N_R   0.153883 0.844168 0.972399 0.245970
O3    O     O_R   0.142236 0.868366 0.898127 -0.347996
O4    O     O_R   0.247877 0.861320 0.033856 -0.342708
Cl1   Cl    Cl    0.525480 0.136772 0.982593 -0.614952
N19   N     N_R   0.230316 0.801481 0.767109 0.249432
O5    O     O_R   0.274547 0.906979 0.815082 -0.309954
O6    O     O_R   0.125597 0.741502 0.704126 -0.369269
Cl2   Cl    Cl    0.290107 0.467945 0.622279 -0.456810
N20   N     N_R   0.143003 0.314055 0.791201 0.210639
O7    O     O_R   0.164376 0.317987 0.716777 -0.390794
O8    O     O_R   0.049065 0.236734 0.759533 -0.474470
N21   N     N_R   0.084141 0.857463 0.528965 0.235645
O9    O     O_R   0.038253 0.792487 0.556384 -0.298063
O10   O     O_R   0.025744 0.882289 0.470145 -0.429231
Cl3   Cl    Cl    0.405609 0.785868 0.621711 -0.623626
Cl4   Cl    Cl    0.673575 0.236113 0.382201 -0.607876
Cl5   Cl    Cl    0.804297 0.939306 0.526235 -0.558540
Cl6   Cl    Cl    0.476670 0.298690 0.807503 -0.649360
N22   N     N_R   0.401692 0.476519 0.124156 0.226407
O11   O     O_R   0.374807 0.375094 0.087696 -0.432305
O12   O     O_R   0.364630 0.517189 0.183483 -0.299508
N23   N     N_R   0.592466 0.540751 0.873197 0.281139
O13   O     O_R   0.688174 0.587017 0.886134 -0.348339
O14   O     O_R   0.509441 0.477355 0.774317 -0.267599
Cl7   Cl    Cl    0.355624 0.715190 0.002628 -0.649898
N24   N     N_R   0.674830 0.629827 0.220230 0.289851
O15   O     O_R   0.720629 0.622436 0.303444 -0.299037
O16   O     O_R   0.720155 0.722191 0.226964 -0.340747
Cl8   Cl    Cl    0.510446 0.684052 0.184000 -0.452600
N25   N     N_R   0.279615 0.132199 0.035176 0.284115
O17   O     O_R   0.244608 0.092283 0.086592 -0.308720
O18   O     O_R   0.383718 0.192403 0.079872 -0.280093
Cl9   Cl    Cl    0.107781 0.230222 0.248825 -0.507425
N26   N     N_R   0.792381 0.888626 0.028905 0.266155
O19   O     O_R   0.709610 0.791962 0.980942 -0.407486
O20   O     O_R   0.804535 0.930192 0.970339 -0.333598
N27   N     N_R   0.726451 0.911566 0.189312 0.268009
O21   O     O_R   0.670536 0.927345 0.118023 -0.381197
O22   O     O_R   0.691712 0.895553 0.252089 -0.290688
N28   N     N_R   0.173464 0.077022 0.329836 0.254351
O23   O     O_R   0.241675 0.150086 0.432912 -0.309369
O24   O     O_R   0.210618 0.045432 0.266790 -0.358677

loop_
_geom_bond_atom_site_label_1
_geom_bond_atom_site_label_2
_geom_bond_distance
_ccdc_geom_bond_type
H37   C74   1.082009 S    
C85   N28   1.439976 S    
C10   C53   1.482189 S    
N22   O11   1.299938 A    
C49   H25   1.067267 S    
C63   N24   1.474313 S    
C35   C36   1.407094 A    
C2    C10   1.394613 A    
C50   C51   1.418480 A    
N11   N14   1.421341 A    
C64   C68   1.532639 S    
N23   O14   1.301841 A    
C25   C30   1.396997 A    
C19   H11   1.076772 S    
N4    Ni4   1.922936 S    
C70   H39   1.082032 S    
C61   C65   1.569817 S    
C57   C58   1.398014 A    
C52   H26   1.080057 S    
N7    Ni4   1.886997 S    
C75   H41   1.083270 S    
C43   C44   1.403722 A    
N22   O12   1.302384 A    
C13   H6    1.079289 S    
C55   C56   1.401307 A    
C81   C86   1.425867 A    
C47   Cl3   1.749917 S    
N21   O9    1.300168 A    
C8    N8    1.320353 A    
C38   C39   1.388597 A    
N4    N6    1.393648 A    
C64   H34   1.107806 S    
C17   N13   1.326463 A    
C4    N4    1.330954 A    
C72   N25   1.447975 S    
C39   C40   1.388475 A    
C82   C83   1.398565 A    
C25   C26   1.398311 A    
C14   C22   1.363974 A    
C55   C60   1.395796 A    
H33   C63   1.106140 S    
C9    C79   1.447625 S    
C5    C11   1.376920 A    
C44   C45   1.397465 A    
C1    N1    1.331292 A    
C81   C82   1.412242 A    
N27   O22   1.298907 A    
C71   C80   1.477323 S    
N23   O13   1.300827 A    
C57   H28   1.080478 S    
C28   C29   1.395984 A    
C61   C62   1.518834 S    
N20   O8    1.299827 A    
N25   O17   1.299526 A    
C19   C21   1.389626 A    
N16   Ni3   1.922938 S    
C8    H5    1.076987 S    
C4    H2    1.073923 S    
C59   H29   1.083989 S    
C33   C34   1.386766 A    
C5    Cl7   1.755029 S    
N18   O4    1.299246 A    
C21   C65   1.482298 S    
C15   C23   1.387115 A    
C37   N19   1.444733 S    
C18   N14   1.340239 A    
C1    C9    1.415100 A    
C49   C50   1.392485 A    
C6    H3    1.063924 S    
N19   O5    1.301991 A    
C4    C12   1.387666 A    
C59   C60   1.400907 A    
C6    C12   1.366619 A    
C32   C33   1.409760 A    
N1    N8    1.421341 A    
C14   N10   1.319487 A    
C62   H32   1.105008 S    
C62   H31   1.108309 S    
C52   C53   1.395270 A    
C43   C48   1.406081 A    
C66   C68   1.539057 S    
N20   O7    1.301022 A    
C84   C85   1.396262 A    
C77   C86   1.473261 S    
N3    N5    1.393648 A    
C81   N26   1.444585 S    
C20   N16   1.333273 A    
N9    N15   1.393649 A    
C26   C27   1.401752 A    
C11   C66   1.490450 S    
C63   C67   1.578070 S    
C67   Cl8   1.816854 S    
C56   H27   1.074181 S    
N24   O15   1.301390 A    
C8    C9    1.376225 A    
C79   C80   1.406957 A    
C23   C50   1.487379 S    
C47   C48   1.397502 A    
C62   C66   1.557338 S    
N12   Ni4   1.923129 S    
C39   H20   1.078478 S    
C73   H40   1.078902 S    
N2    N7    1.421341 A    
N15   Ni4   1.888243 S    
N11   Ni3   1.886996 S    
C31   H17   1.078867 S    
C15   H8    1.066206 S    
C31   C32   1.393475 A    
C16   H9    1.072184 S    
C15   N11   1.326403 A    
C55   Cl4   1.759023 S    
C37   C38   1.406525 A    
C14   H7    1.069462 S    
N1    Ni1   1.910384 S    
C41   Cl2   1.763579 S    
N9    Ni1   1.910383 S    
N5    Ni2   1.910382 S    
C53   C54   1.421387 A    
C3    N20   1.438199 S    
C75   C80   1.373962 A    
C5    N5    1.318631 A    
C18   C23   1.407781 A    
C3    C11   1.391326 A    
C51   C52   1.385077 A    
C20   C22   1.383196 A    
C28   H15   1.080241 S    
C82   N27   1.442886 S    
C1    N17   1.432623 S    
C61   H30   1.111748 S    
C31   C36   1.374972 A    
C38   H19   1.080633 S    
C56   C57   1.397970 A    
C33   C42   1.481750 S    
C19   N15   1.322518 A    
C49   C54   1.388973 A    
C45   C54   1.460364 S    
C73   C74   1.391517 A    
C61   Cl6   1.785249 S    
C83   C84   1.389001 A    
C18   H10   1.076030 S    
C67   N22   1.482277 S    
C7    C10   1.382940 A    
N10   N16   1.393650 A    
C6    N6    1.314198 A    
C58   Cl5   1.748623 S    
N17   O2    1.297509 A    
N2    Ni2   1.868712 S    
C46   C47   1.379928 A    
N10   Ni2   1.869860 S    
C68   H36   1.106017 S    
C2    H1    1.074557 S    
C13   C21   1.373758 A    
N8    Ni3   1.923127 S    
C66   C67   1.596584 S    
C34   C35   1.385994 A    
C84   H43   1.078807 S    
C76   C77   1.413435 A    
N27   O21   1.299562 A    
C75   C76   1.386025 A    
C20   H12   1.076876 S    
C69   C70   1.395592 A    
C16   N12   1.319345 A    
C16   C24   1.383739 A    
C44   H23   1.077435 S    
C7    N7    1.327314 A    
C40   H21   1.080908 S    
C2    N2    1.333721 A    
C70   C71   1.401788 A    
N24   O16   1.298775 A    
C78   C79   1.393461 A    
C3    N3    1.321844 A    
C27   C36   1.480695 S    
C51   C60   1.459328 S    
C13   N9    1.318905 A    
C83   H42   1.077586 S    
N28   O23   1.301353 A    
N21   O10   1.299799 A    
C71   C72   1.427363 A    
C46   H24   1.084787 S    
N3    Ni3   1.888246 S    
C34   H18   1.079835 S    
N12   N13   1.421340 A    
C64   C65   1.575338 S    
C29   H16   1.080918 S    
C30   Cl1   1.751749 S    
C24   C76   1.449592 S    
C37   C42   1.429125 A    
C25   H13   1.074001 S    
C7    H4    1.071514 S    
C22   C32   1.433457 S    
C69   H38   1.078610 S    
C40   C41   1.396794 A    
C63   C65   1.576479 S    
C12   C35   1.430054 S    
C85   C86   1.414542 A    
N6    Ni1   1.869858 S    
C27   C28   1.406276 A    
N25   O18   1.301121 A    
C77   C78   1.394767 A    
N14   Ni1   1.868715 S    
C26   H14   1.082559 S    
N13   Ni2   1.910382 S    
C17   C24   1.409715 A    
C45   C46   1.396362 A    
C69   C74   1.389860 A    
N19   O6    1.300924 A    
C41   C42   1.412185 A    
C58   C59   1.390147 A    
C68   H35   1.103827 S    
C43   N21   1.439147 S    
N17   O1    1.300919 A    
H22   C48   1.066765 S    
C17   N18   1.430342 S    
N26   O19   1.298268 A    
C78   Cl9   1.776617 S    
N26   O20   1.299568 A    
C64   N23   1.479454 S    
C72   C73   1.406639 A    
C29   C30   1.393751 A    
N18   O3    1.295502 A    
N28   O24   1.301203 A    
