data_mof_unit_61155.cif
_audit_creation_date              2012-12-10T20:07:27-0500
_audit_creation_method            fapswitch 2.2
_symmetry_space_group_name_H-M    P1
_symmetry_Int_Tables_number       1
_space_group_crystal_system       orthorhombic
_cell_length_a                    32.078015
_cell_length_b                    32.078016
_cell_length_c                    47.197666
_cell_angle_alpha                 90.0
_cell_angle_beta                  90.0
_cell_angle_gamma                 90.0
_cell_volume                      48566.3548175

loop_
_atom_site_label
_atom_site_type_symbol
_atom_type_description
_atom_site_fract_x
_atom_site_fract_y
_atom_site_fract_z
_atom_type_partial_charge
C1    C     C_R   0.080688 0.500000 0.000000 0.914295
C2    C     C_R   0.500000 1.000000 0.145825 0.312447
C3    C     C_R   0.419489 0.500000 0.000000 0.903232
C4    C     C_R   0.000000 0.919489 0.500000 0.903232
C5    C     C_R   0.080511 0.000000 0.500000 0.903231
C6    C     C_R   0.000000 0.080511 0.500000 0.903231
C7    C     C_R   0.919489 0.000000 0.500000 0.903232
C8    C     C_R   0.000000 0.500000 0.055560 0.880682
C9    C     C_R   0.500000 0.000000 0.055560 0.880682
C10   C     C_R   0.000000 0.500000 0.944440 0.880683
C11   C     C_R   0.500000 1.000000 0.944440 0.880684
C12   C     C_R   0.500000 0.000000 0.555560 0.880682
C13   C     C_R   0.000000 0.500000 0.854175 0.312447
C14   C     C_R   0.000000 0.500000 0.555560 0.880682
C15   C     C_R   0.500000 0.000000 0.444440 0.880683
C16   C     C_R   0.000000 0.500000 0.444440 0.880684
C17   C     C_R   0.024042 0.471739 0.309777 0.515166
C18   C     C_R   0.528262 0.024042 0.309777 0.515166
C19   C     C_R   0.975958 0.528262 0.309777 0.515166
C20   C     C_R   0.471738 0.975958 0.309777 0.515165
C21   C     C_R   0.024042 0.528261 0.690223 0.515165
C22   C     C_R   0.528261 0.975958 0.690223 0.515165
C23   C     C_R   0.975958 0.471739 0.690223 0.515166
C24   C     C_R   0.500000 0.000000 0.854175 0.312447
C25   C     C_R   0.471739 0.024042 0.690223 0.515166
C26   C     C_R   0.524042 0.971738 0.809777 0.515166
C27   C     C_R   0.028261 0.524042 0.809777 0.515166
C28   C     C_R   0.475958 0.028261 0.809777 0.515166
C29   C     C_R   0.971739 0.475958 0.809777 0.515165
C30   C     C_R   0.524042 0.028261 0.190223 0.515166
C31   C     C_R   0.028261 0.475958 0.190223 0.515166
C32   C     C_R   0.475958 0.971739 0.190223 0.515166
C33   C     C_R   0.971739 0.524042 0.190223 0.515166
C34   C     C_R   0.972682 0.526913 0.279964 -0.053515
C35   C     C_R   0.500000 0.000000 0.645825 0.312447
C36   C     C_R   0.473087 0.972682 0.279964 -0.053515
C37   C     C_R   0.027318 0.473087 0.279964 -0.053515
C38   C     C_R   0.526913 0.027318 0.279964 -0.053515
C39   C     C_R   0.972682 0.473087 0.720036 -0.053515
C40   C     C_R   0.473087 0.027318 0.720036 -0.053515
C41   C     C_R   0.027318 0.526913 0.720036 -0.053514
C42   C     C_R   0.526913 0.972682 0.720036 -0.053514
C43   C     C_R   0.472682 0.026913 0.779964 -0.053514
C44   C     C_R   0.973087 0.472682 0.779964 -0.053514
C45   C     C_R   0.527318 0.973087 0.779964 -0.053515
C46   C     C_R   1.000000 0.500000 0.645825 0.312447
C47   C     C_R   0.026913 0.527318 0.779964 -0.053514
C48   C     C_R   0.472682 0.973087 0.220036 -0.053514
C49   C     C_R   0.973087 0.527318 0.220036 -0.053514
C50   C     C_R   0.527318 0.026913 0.220036 -0.053515
C51   C     C_R   0.026913 0.472682 0.220036 -0.053514
C52   C     C_R   0.000000 0.500000 0.264965 -0.095994
C53   C     C_R   0.500000 1.000000 0.264965 -0.095993
C54   C     C_R   0.000000 0.500000 0.735035 -0.095994
C55   C     C_R   0.500000 0.000000 0.735035 -0.095994
C56   C     C_R   0.500000 0.000000 0.764965 -0.095994
C57   C     C_R   0.500000 1.000000 0.354175 0.312447
C58   C     C_R   1.000000 0.500000 0.764965 -0.095994
C59   C     C_R   0.500000 1.000000 0.235035 -0.095994
C60   C     C_R   0.000000 0.500000 0.235035 -0.095994
C61   C     C_R   0.944041 0.552364 0.264844 0.176821
C62   C     C_R   0.447636 0.944041 0.264844 0.176821
C63   C     C_R   0.055959 0.447636 0.264844 0.176821
C64   C     C_R   0.552364 0.055959 0.264844 0.176821
C65   C     C_R   0.944041 0.447636 0.735156 0.176821
C66   C     C_R   0.447636 0.055959 0.735156 0.176820
C67   C     C_R   0.055959 0.552364 0.735156 0.176821
C68   C     C_R   0.000000 0.500000 0.354175 0.312447
C69   C     C_R   0.552364 0.944041 0.735156 0.176821
C70   C     C_R   0.444041 0.052364 0.764844 0.176822
C71   C     C_R   0.947636 0.444041 0.764844 0.176821
C72   C     C_R   0.555959 0.947636 0.764844 0.176821
C73   C     C_R   0.052364 0.555959 0.764844 0.176821
C74   C     C_R   0.444041 0.947636 0.235156 0.176821
C75   C     C_R   0.947636 0.555959 0.235156 0.176821
C76   C     C_R   0.555959 0.052364 0.235156 0.176821
C77   C     C_R   0.052364 0.444041 0.235156 0.176821
C78   C     C_R   0.992104 0.463021 0.130991 -0.095931
C79   C     C_R   0.271674 0.461969 0.000008 0.152825
C80   C     C_R   0.536979 0.992104 0.130991 -0.095931
C81   C     C_R   0.007896 0.536979 0.130991 -0.095931
C82   C     C_R   0.463021 0.007896 0.130991 -0.095931
C83   C     C_R   0.992104 0.536979 0.869008 -0.095931
C84   C     C_R   0.536979 0.007896 0.869008 -0.095931
C85   C     C_R   0.007896 0.463021 0.869008 -0.095931
C86   C     C_R   0.463021 0.992104 0.869008 -0.095931
C87   C     C_R   0.492104 0.963021 0.630991 -0.095931
C88   C     C_R   0.036979 0.492104 0.630991 -0.095930
C89   C     C_R   0.507896 0.036979 0.630991 -0.095931
C90   C     C_R   0.538031 0.271674 0.999986 0.152825
C91   C     C_R   0.963021 0.507896 0.630991 -0.095931
C92   C     C_R   0.492104 0.036979 0.369009 -0.095931
C93   C     C_R   0.036979 0.507896 0.369009 -0.095931
C94   C     C_R   0.507896 0.963021 0.369009 -0.095931
C95   C     C_R   0.963021 0.492104 0.369009 -0.095931
C96   C     C_R   0.992299 0.462945 0.101517 -0.207563
C97   C     C_R   0.537055 0.992299 0.101517 -0.207564
C98   C     C_R   0.007701 0.537055 0.101517 -0.207564
C99   C     C_R   0.462945 0.007701 0.101517 -0.207564
C100  C     C_R   0.992299 0.537055 0.898483 -0.207564
C101  C     C_R   0.728326 0.538032 0.999987 0.152825
C102  C     C_R   0.537055 0.007701 0.898483 -0.207564
C103  C     C_R   0.007701 0.462945 0.898483 -0.207563
C104  C     C_R   0.462945 0.992299 0.898483 -0.207563
C105  C     C_R   0.492299 0.962945 0.601517 -0.207563
C106  C     C_R   0.037055 0.492299 0.601517 -0.207564
C107  C     C_R   0.507701 0.037055 0.601517 -0.207564
C108  C     C_R   0.962945 0.507700 0.601517 -0.207564
C109  C     C_R   0.492299 0.037055 0.398483 -0.207564
C110  C     C_R   0.037055 0.507700 0.398483 -0.207564
C111  C     C_R   0.507700 0.962945 0.398483 -0.207564
C112  C     C_R   0.500000 0.080688 0.000000 0.914295
C113  C     C_R   0.461968 0.728326 0.999987 0.152825
C114  C     C_R   0.962945 0.492299 0.398483 -0.207563
C115  C     C_R   0.000000 0.500000 0.086581 -0.047101
C116  C     C_R   0.500000 0.000000 0.086581 -0.047101
C117  C     C_R   0.000000 0.500000 0.913419 -0.047101
C118  C     C_R   0.500000 1.000000 0.913419 -0.047101
C119  C     C_R   0.500000 0.000000 0.586581 -0.047100
C120  C     C_R   0.000000 0.500000 0.586581 -0.047100
C121  C     C_R   0.500000 0.000000 0.413419 -0.047101
C122  C     C_R   0.000000 0.500000 0.413419 -0.047101
C123  C     C_3   0.907119 0.572599 0.279604 -0.775323
C124  C     C_R   0.271674 0.538031 0.999991 0.152825
C125  C     C_3   0.427401 0.907119 0.279604 -0.775324
C126  C     C_3   0.092881 0.427401 0.279604 -0.775324
C127  C     C_3   0.572599 0.092881 0.279604 -0.775323
C128  C     C_3   0.907119 0.427402 0.720396 -0.775323
C129  C     C_3   0.427402 0.092881 0.720396 -0.775323
C130  C     C_3   0.092881 0.572598 0.720396 -0.775322
C131  C     C_3   0.572598 0.907119 0.720396 -0.775323
C132  C     C_3   0.407119 0.072598 0.779604 -0.775324
C133  C     C_3   0.927402 0.407119 0.779604 -0.775323
C134  C     C_3   0.592881 0.927401 0.779604 -0.775322
C135  C     C_R   0.538032 0.728326 0.000013 0.152825
C136  C     C_3   0.072598 0.592881 0.779604 -0.775322
C137  C     C_3   0.407119 0.927402 0.220396 -0.775324
C138  C     C_3   0.927402 0.592881 0.220396 -0.775323
C139  C     C_3   0.592881 0.072598 0.220396 -0.775323
C140  C     C_3   0.072598 0.407119 0.220396 -0.775322
C141  C     C_R   0.728326 0.461968 0.000013 0.152825
C142  C     C_R   0.461968 0.271674 0.000014 0.152825
C143  C     C_R   0.771674 0.961968 0.499997 0.152825
C144  C     C_R   0.038032 0.771674 0.499991 0.152825
C145  C     C_R   0.228326 0.038032 0.499997 0.152825
C146  C     C_R   0.961968 0.228326 0.499964 0.152825
C147  C     C_R   0.771674 0.038032 0.500003 0.152825
C148  C     C_R   0.919312 0.500000 0.000000 0.914296
C149  C     C_R   0.038032 0.228326 0.500035 0.152825
C150  C     C_R   0.228326 0.961968 0.500004 0.152825
C151  C     C_R   0.961968 0.771674 0.500009 0.152825
C152  C     C_R   0.293470 0.500000 0.000000 0.024888
C153  C     C_R   0.500000 0.293470 0.000000 0.024888
C154  C     C_R   0.706530 0.500000 0.000000 0.024886
C155  C     C_R   0.500000 0.706530 1.000000 0.024887
C156  C     C_R   0.793470 0.000000 0.500000 0.024887
C157  C     C_R   0.000000 0.793470 0.500000 0.024887
C158  C     C_R   0.206530 0.000000 0.500000 0.024887
C159  C     C_R   0.500000 0.919312 0.000000 0.914296
C160  C     C_R   0.000000 0.206530 0.500000 0.024888
C161  C     C_R   0.228226 0.537813 0.999992 -0.196270
C162  C     C_R   0.462186 0.228226 0.000014 -0.196270
C163  C     C_R   0.771774 0.462186 0.000013 -0.196270
C164  C     C_R   0.537814 0.771774 0.000013 -0.196270
C165  C     C_R   0.228226 0.462187 0.000008 -0.196270
C166  C     C_R   0.462186 0.771774 0.999987 -0.196270
C167  C     C_R   0.771774 0.537814 0.999987 -0.196270
C168  C     C_R   0.537814 0.228226 0.999986 -0.196270
C169  C     C_R   0.728226 0.037814 0.500003 -0.196270
C170  C     C_R   0.580688 0.000000 0.500000 0.914295
C171  C     C_R   0.962186 0.728226 0.500009 -0.196270
C172  C     C_R   0.271774 0.962186 0.500003 -0.196270
C173  C     C_R   0.037814 0.271774 0.500035 -0.196270
C174  C     C_R   0.728226 0.962186 0.499997 -0.196270
C175  C     C_R   0.962186 0.271774 0.499965 -0.196270
C176  C     C_R   0.271774 0.037814 0.499997 -0.196270
C177  C     C_R   0.037814 0.728226 0.499991 -0.196270
C178  C     C_R   0.206661 0.500000 0.000000 0.079833
C179  C     C_R   0.500000 0.206661 0.000000 0.079835
C180  C     C_R   0.793339 0.500000 0.000000 0.079838
C181  C     C_R   0.000000 0.580688 0.500000 0.914295
C182  C     C_R   0.500000 0.793339 1.000000 0.079836
C183  C     C_R   0.706661 0.000000 0.500000 0.079835
C184  C     C_R   0.000000 0.706661 0.500000 0.079835
C185  C     C_R   0.293339 0.000000 0.500000 0.079835
C186  C     C_R   0.000000 0.293339 0.500000 0.079837
C187  C     C_1   0.337961 0.500000 0.000000 0.046132
C188  C     C_1   0.500000 0.337961 0.000000 0.046132
C189  C     C_1   0.662039 0.500000 0.000000 0.046131
C190  C     C_1   0.500000 0.662039 1.000000 0.046132
C191  C     C_1   0.837961 0.000000 0.500000 0.046132
C192  C     C_R   0.419312 0.000000 0.500000 0.914296
C193  C     C_1   0.000000 0.837961 0.500000 0.046132
C194  C     C_1   0.162039 0.000000 0.500000 0.046132
C195  C     C_1   0.000000 0.162039 0.500000 0.046132
C196  C     C_1   0.162242 0.500000 0.000000 -0.013016
C197  C     C_1   0.500000 0.162242 0.000000 -0.013016
C198  C     C_1   0.837758 0.500000 0.000000 -0.013016
C199  C     C_1   0.500000 0.837758 1.000000 -0.013016
C200  C     C_1   0.662242 0.000000 0.500000 -0.013016
C201  C     C_1   0.000000 0.662242 0.500000 -0.013016
C202  C     C_1   0.337758 0.000000 0.500000 -0.013016
C203  C     C_R   0.000000 0.419312 0.500000 0.914296
C204  C     C_1   0.000000 0.337758 0.500000 -0.013016
C205  C     C_1   0.124934 0.500000 0.000000 -0.169838
C206  C     C_1   0.500000 0.124934 0.000000 -0.169838
C207  C     C_1   0.875066 0.500000 0.000000 -0.169839
C208  C     C_1   0.500000 0.875066 1.000000 -0.169838
C209  C     C_1   0.624934 0.000000 0.500000 -0.169838
C210  C     C_1   0.000000 0.624934 0.500000 -0.169838
C211  C     C_1   0.375066 0.000000 0.500000 -0.169838
C212  C     C_1   0.000000 0.375066 0.500000 -0.169838
C213  C     C_1   0.375268 0.500000 0.000000 -0.106310
C214  C     C_R   0.000000 0.500000 0.145825 0.312447
C215  C     C_1   0.500000 0.375268 0.000000 -0.106310
C216  C     C_1   0.624732 0.500000 0.000000 -0.106311
C217  C     C_1   0.500000 0.624732 0.000000 -0.106311
C218  C     C_1   0.875268 0.000000 0.500000 -0.106310
C219  C     C_1   0.000000 0.875268 0.500000 -0.106310
C220  C     C_1   0.124732 0.000000 0.500000 -0.106310
C221  C     C_1   0.000000 0.124732 0.500000 -0.106310
C222  C     C_R   0.500000 0.419489 0.000000 0.903232
C223  C     C_R   0.580511 0.500000 0.000000 0.903231
C224  C     C_R   0.500000 0.580511 0.000000 0.903231
H1    H     H_    0.985767 0.434381 0.142351 0.144130
H2    H     H_    0.065619 0.485767 0.642351 0.144130
H3    H     H_    0.514234 0.065619 0.642351 0.144129
H4    H     H_    0.934381 0.514233 0.642351 0.144130
H5    H     H_    0.485767 0.065619 0.357649 0.144130
H6    H     H_    0.065619 0.514233 0.357649 0.144130
H7    H     H_    0.514233 0.934381 0.357649 0.144130
H8    H     H_    0.934381 0.485767 0.357649 0.144130
H9    H     H_    0.986107 0.434027 0.090447 0.167207
H10   H     H_    0.565973 0.986107 0.090447 0.167207
H11   H     H_    0.013893 0.565973 0.090447 0.167207
H12   H     H_    0.565619 0.985766 0.142351 0.144130
H13   H     H_    0.434027 0.013893 0.090447 0.167207
H14   H     H_    0.986107 0.565973 0.909553 0.167207
H15   H     H_    0.565973 0.013893 0.909553 0.167207
H16   H     H_    0.013893 0.434027 0.909553 0.167207
H17   H     H_    0.434027 0.986107 0.909553 0.167208
H18   H     H_    0.486106 0.934027 0.590447 0.167207
H19   H     H_    0.065973 0.486107 0.590447 0.167207
H20   H     H_    0.513893 0.065973 0.590447 0.167207
H21   H     H_    0.934027 0.513893 0.590447 0.167208
H22   H     H_    0.486107 0.065973 0.409553 0.167207
H23   H     H_    0.014233 0.565619 0.142351 0.144129
H24   H     H_    0.065973 0.513893 0.409553 0.167207
H25   H     H_    0.513893 0.934027 0.409553 0.167208
H26   H     H_    0.934027 0.486107 0.409553 0.167207
H27   H     H_    0.211329 0.432934 0.000015 0.174157
H28   H     H_    0.567066 0.211329 0.999976 0.174156
H29   H     H_    0.788671 0.567067 0.999977 0.174156
H30   H     H_    0.432934 0.788671 0.999977 0.174156
H31   H     H_    0.211329 0.567066 0.999985 0.174157
H32   H     H_    0.567066 0.788671 0.000023 0.174156
H33   H     H_    0.788671 0.432933 0.000023 0.174156
H34   H     H_    0.434381 0.014233 0.142351 0.144130
H35   H     H_    0.432934 0.211329 0.000024 0.174156
H36   H     H_    0.711329 0.932934 0.499994 0.174156
H37   H     H_    0.067066 0.711329 0.499985 0.174156
H38   H     H_    0.288670 0.067066 0.499994 0.174156
H39   H     H_    0.932934 0.288670 0.499937 0.174155
H40   H     H_    0.711329 0.067066 0.500005 0.174156
H41   H     H_    0.067066 0.288670 0.500063 0.174155
H42   H     H_    0.288670 0.932934 0.500006 0.174157
H43   H     H_    0.932934 0.711329 0.500015 0.174156
H44   H     H_    0.880979 0.578831 0.264798 0.221374
H45   H     H_    0.985767 0.565619 0.857649 0.144130
H46   H     H_    0.893746 0.551141 0.295674 0.255628
H47   H     H_    0.916716 0.602424 0.289594 0.269764
H48   H     H_    0.421169 0.880979 0.264798 0.221374
H49   H     H_    0.448858 0.893746 0.295674 0.255628
H50   H     H_    0.397576 0.916716 0.289594 0.269765
H51   H     H_    0.119021 0.421169 0.264798 0.221374
H52   H     H_    0.106254 0.448859 0.295674 0.255628
H53   H     H_    0.083285 0.397576 0.289594 0.269764
H54   H     H_    0.578831 0.119021 0.264798 0.221374
H55   H     H_    0.551141 0.106254 0.295674 0.255628
H56   H     H_    0.565619 0.014233 0.857649 0.144129
H57   H     H_    0.602424 0.083284 0.289594 0.269764
H58   H     H_    0.880979 0.421169 0.735201 0.221374
H59   H     H_    0.893746 0.448859 0.704326 0.255628
H60   H     H_    0.916715 0.397576 0.710406 0.269764
H61   H     H_    0.421169 0.119021 0.735201 0.221374
H62   H     H_    0.448859 0.106254 0.704326 0.255628
H63   H     H_    0.397576 0.083285 0.710406 0.269765
H64   H     H_    0.119021 0.578831 0.735201 0.221374
H65   H     H_    0.106254 0.551141 0.704326 0.255628
H66   H     H_    0.083285 0.602424 0.710406 0.269764
H67   H     H_    0.014233 0.434381 0.857649 0.144130
H68   H     H_    0.578831 0.880979 0.735201 0.221374
H69   H     H_    0.551141 0.893746 0.704326 0.255629
H70   H     H_    0.602424 0.916715 0.710406 0.269764
H71   H     H_    0.380979 0.078831 0.764799 0.221374
H72   H     H_    0.393746 0.051141 0.795674 0.255629
H73   H     H_    0.416715 0.102424 0.789594 0.269764
H74   H     H_    0.921169 0.380979 0.764799 0.221374
H75   H     H_    0.948859 0.393746 0.795674 0.255628
H76   H     H_    0.897576 0.416715 0.789594 0.269764
H77   H     H_    0.619021 0.921169 0.764798 0.221373
H78   H     H_    0.434381 0.985767 0.857649 0.144130
H79   H     H_    0.606254 0.948859 0.795674 0.255628
H80   H     H_    0.583285 0.897576 0.789594 0.269764
H81   H     H_    0.078831 0.619021 0.764799 0.221374
H82   H     H_    0.051141 0.606254 0.795674 0.255628
H83   H     H_    0.102424 0.583285 0.789594 0.269764
H84   H     H_    0.380979 0.921170 0.235201 0.221374
H85   H     H_    0.393746 0.948859 0.204326 0.255628
H86   H     H_    0.416715 0.897576 0.210406 0.269764
H87   H     H_    0.921169 0.619021 0.235201 0.221374
H88   H     H_    0.948859 0.606254 0.204326 0.255628
H89   H     H_    0.485766 0.934381 0.642351 0.144130
H90   H     H_    0.897576 0.583285 0.210406 0.269764
H91   H     H_    0.619021 0.078830 0.235201 0.221374
H92   H     H_    0.606254 0.051141 0.204326 0.255629
H93   H     H_    0.583285 0.102423 0.210406 0.269764
H94   H     H_    0.078831 0.380979 0.235201 0.221374
H95   H     H_    0.051141 0.393746 0.204326 0.255628
H96   H     H_    0.102424 0.416715 0.210406 0.269764
I1    I     I_    0.302588 0.403442 0.000022 -0.285797
I2    I     I_    0.096559 0.802588 0.499978 -0.285797
I3    I     I_    0.197412 0.096559 0.499991 -0.285797
I4    I     I_    0.903441 0.197412 0.499910 -0.285798
I5    I     I_    0.802588 0.096559 0.500008 -0.285796
I6    I     I_    0.096559 0.197412 0.500090 -0.285798
I7    I     I_    0.197412 0.903441 0.500009 -0.285796
I8    I     I_    0.903441 0.802588 0.500022 -0.285796
I9    I     I_    0.596559 0.302588 0.999965 -0.285797
I10   I     I_    0.697412 0.596560 0.999967 -0.285796
I11   I     I_    0.403441 0.697412 0.999966 -0.285797
I12   I     I_    0.302588 0.596558 0.999978 -0.285797
I13   I     I_    0.596559 0.697412 0.000033 -0.285796
I14   I     I_    0.697412 0.403440 0.000033 -0.285796
I15   I     I_    0.403441 0.302588 0.000035 -0.285797
I16   I     I_    0.802588 0.903441 0.499992 -0.285796
N1    N     N_R   0.000000 0.500000 0.323808 -0.353032
N2    N     N_R   0.500000 1.000000 0.323808 -0.353032
N3    N     N_R   1.000000 0.500000 0.676192 -0.353032
N4    N     N_R   0.500000 0.000000 0.676192 -0.353032
N5    N     N_R   0.500000 0.000000 0.823808 -0.353033
N6    N     N_R   0.000000 0.500000 0.823808 -0.353032
N7    N     N_R   0.500000 1.000000 0.176192 -0.353032
N8    N     N_R   0.000000 0.500000 0.176192 -0.353032
O1    O     O_R   0.060960 0.534400 0.000040 -0.611793
O2    O     O_R   0.965600 0.560960 0.500040 -0.611792
O3    O     O_R   0.439040 0.965600 0.500040 -0.611792
O4    O     O_R   0.034400 0.439040 0.500040 -0.611793
O5    O     O_R   0.560960 0.965600 0.499960 -0.611792
O6    O     O_R   0.965600 0.439040 0.499960 -0.611792
O7    O     O_R   0.439040 0.034400 0.499960 -0.611793
O8    O     O_R   0.034400 0.560960 0.499960 -0.611793
O9    O     O_R   0.999950 0.534400 0.041950 -0.622145
O10   O     O_R   0.465600 0.999950 0.041950 -0.622144
O11   O     O_R   0.000050 0.465600 0.041950 -0.622144
O12   O     O_R   0.465600 0.060960 0.000040 -0.611792
O13   O     O_R   0.534400 0.000050 0.041950 -0.622145
O14   O     O_R   0.999950 0.465600 0.958050 -0.622144
O15   O     O_R   0.465600 0.000050 0.958050 -0.622144
O16   O     O_R   0.000050 0.534400 0.958050 -0.622145
O17   O     O_R   0.534400 0.999950 0.958050 -0.622145
O18   O     O_R   0.499950 0.034400 0.541950 -0.622145
O19   O     O_R   0.965600 0.499950 0.541950 -0.622144
O20   O     O_R   0.500050 0.965600 0.541950 -0.622144
O21   O     O_R   0.034400 0.500050 0.541950 -0.622145
O22   O     O_R   0.499950 0.965600 0.458050 -0.622144
O23   O     O_R   0.939040 0.465600 0.000040 -0.611792
O24   O     O_R   0.965600 0.500050 0.458050 -0.622144
O25   O     O_R   0.500050 0.034400 0.458050 -0.622145
O26   O     O_R   0.034400 0.499950 0.458050 -0.622145
O27   O     O_R   0.499970 0.439020 0.023730 -0.608272
O28   O     O_R   0.560980 0.499970 0.023730 -0.608275
O29   O     O_R   0.500030 0.560980 0.023730 -0.608278
O30   O     O_R   0.439020 0.500030 0.023730 -0.608275
O31   O     O_R   0.499970 0.560980 0.976270 -0.608271
O32   O     O_R   0.560980 0.500030 0.976270 -0.608274
O33   O     O_R   0.500030 0.439020 0.976270 -0.608276
O34   O     O_R   0.534400 0.939040 0.000040 -0.611793
O35   O     O_R   0.439020 0.499970 0.976270 -0.608274
O36   O     O_R   0.999970 0.939020 0.523730 -0.608275
O37   O     O_R   0.060980 0.999970 0.523730 -0.608271
O38   O     O_R   0.000030 0.060980 0.523730 -0.608275
O39   O     O_R   0.939020 0.000030 0.523730 -0.608278
O40   O     O_R   0.999970 0.060980 0.476270 -0.608274
O41   O     O_R   0.060980 0.000030 0.476270 -0.608277
O42   O     O_R   0.000030 0.939020 0.476270 -0.608274
O43   O     O_R   0.939020 0.999970 0.476270 -0.608270
O44   O     O_2   0.043401 0.441682 0.324818 -0.559890
O45   O     O_R   0.060960 0.465600 0.999960 -0.611792
O46   O     O_2   0.558318 0.043401 0.324818 -0.559890
O47   O     O_2   0.956599 0.558318 0.324818 -0.559891
O48   O     O_2   0.441682 0.956599 0.324818 -0.559890
O49   O     O_2   0.043401 0.558318 0.675182 -0.559890
O50   O     O_2   0.558318 0.956599 0.675182 -0.559890
O51   O     O_2   0.956599 0.441682 0.675182 -0.559891
O52   O     O_2   0.441682 0.043401 0.675182 -0.559890
O53   O     O_2   0.543401 0.941682 0.824818 -0.559889
O54   O     O_2   0.058318 0.543401 0.824818 -0.559890
O55   O     O_2   0.456599 0.058318 0.824818 -0.559891
O56   O     O_R   0.465600 0.939040 0.999960 -0.611792
O57   O     O_2   0.941682 0.456599 0.824818 -0.559890
O58   O     O_2   0.543401 0.058318 0.175182 -0.559890
O59   O     O_2   0.058318 0.456599 0.175182 -0.559890
O60   O     O_2   0.456598 0.941682 0.175182 -0.559891
O61   O     O_2   0.941682 0.543401 0.175182 -0.559890
O62   O     O_R   0.939040 0.534400 0.999960 -0.611793
O63   O     O_R   0.534400 0.060960 0.999960 -0.611793
O64   O     O_R   0.560960 0.034400 0.500040 -0.611793
Zn1   Zn    Zn3+2 0.000000 0.545950 0.000000 0.988071
Zn2   Zn    Zn3+2 0.500000 0.500000 0.968370 1.029133
Zn3   Zn    Zn3+2 0.000000 1.000000 0.531630 1.029132
Zn4   Zn    Zn3+2 0.000000 0.000000 0.468370 1.029133
Zn5   Zn    Zn3+2 0.454050 0.000000 0.000000 0.988072
Zn6   Zn    Zn3+2 0.000000 0.454050 0.000000 0.988072
Zn7   Zn    Zn3+2 0.545950 0.000000 0.000000 0.988071
Zn8   Zn    Zn3+2 0.500000 0.045950 0.500000 0.988071
Zn9   Zn    Zn3+2 0.954050 0.500000 0.500000 0.988072
Zn10  Zn    Zn3+2 0.500000 0.954050 0.500000 0.988072
Zn11  Zn    Zn3+2 0.045950 0.500000 0.500000 0.988071
Zn12  Zn    Zn3+2 0.500000 0.500000 0.031630 1.029132

loop_
_geom_bond_atom_site_label_1
_geom_bond_atom_site_label_2
_ccdc_geom_bond_type
C222  O27   A    
C187  C213  T    
C108  C120  A    
C106  H19   S    
C78   C214  A    
O64   Zn8   S    
C41   C67   A    
C28   O55   S    
C125  H49   S    
C20   O48   S    
C49   C60   A    
C157  C193  S    
C50   C59   A    
C113  I11   S    
C141  C154  A    
C94   C111  A    
C16   O24   A    
O27   Zn12  S    
C177  H37   S    
C172  H42   S    
C36   C53   A    
C150  C172  A    
C45   C56   A    
C78   C96   A    
C171  H43   S    
C85   C103  A    
C93   C110  A    
O38   Zn3   S    
C167  C180  A    
C6    O40   A    
C39   C65   A    
C197  C206  T    
C103  C117  A    
C113  C155  A    
C152  C187  S    
C36   C62   A    
C68   C93   A    
C37   C63   A    
C188  C215  T    
C38   C64   A    
O29   Zn12  S    
C140  H96   S    
C74   C137  S    
C68   C95   A    
O2    Zn9   S    
C48   C74   A    
C95   H8    S    
C130  H64   S    
O39   Zn3   S    
C99   C116  A    
C195  C221  T    
C57   N2    S    
C46   C91   A    
C7    O39   A    
O20   Zn10  S    
C34   C61   A    
C132  H72   S    
C185  C202  S    
C189  C216  T    
C50   C76   A    
C42   C55   A    
O1    Zn1   S    
C40   C55   A    
C204  C212  T    
C90   C153  A    
C137  H84   S    
C23   N3    A    
C35   C89   A    
C123  H46   S    
C176  H38   S    
C154  C189  S    
O31   Zn2   S    
C83   C100  A    
C29   C44   A    
C29   O57   S    
C145  I3    S    
C190  C217  T    
C224  O29   A    
C27   O54   S    
C124  C161  A    
C126  H52   S    
C9    C116  S    
O28   Zn12  S    
C182  C199  S    
C75   C138  S    
C25   N4    A    
C3    C213  S    
C177  C184  A    
C7    O43   A    
C200  C209  T    
O8    Zn11  S    
C223  O28   A    
C129  H61   S    
C18   C38   A    
C19   N1    A    
C175  C186  A    
C138  H87   S    
C15   O22   A    
C109  C121  A    
O26   Zn11  S    
C66   C70   A    
C38   C53   A    
O5    Zn10  S    
C124  I12   S    
C5    O41   A    
C81   H23   S    
C42   C69   A    
O25   Zn8   S    
C92   C109  A    
C147  I5    S    
C180  C198  S    
C136  H82   S    
O13   Zn7   S    
O11   Zn6   S    
C13   C85   A    
C141  I14   S    
C100  C117  A    
C151  I8    S    
C139  H93   S    
C8    O9    A    
C167  H29   S    
C57   C92   A    
C80   C97   A    
C82   H34   S    
C84   C102  A    
C80   H12   S    
C79   I1    S    
C77   C140  S    
C128  H58   S    
C202  C211  T    
C90   I9    S    
C86   C104  A    
C131  H69   S    
C102  H15   S    
C14   O19   A    
C174  H36   S    
C39   C54   A    
C146  C160  A    
C104  H17   S    
C151  C171  A    
C16   C122  S    
C137  H86   S    
C52   C60   A    
C148  C207  S    
C175  H39   S    
C35   C87   A    
C123  H44   S    
C88   H2    S    
C103  H16   S    
C86   H78   S    
C133  H74   S    
C49   C75   A    
C100  H14   S    
C32   O60   S    
C170  O5    A    
C22   O50   S    
C224  O31   A    
C69   C131  S    
C10   O16   A    
C127  H54   S    
C101  I10   S    
C64   C76   A    
O33   Zn2   S    
C146  I4    S    
O7    Zn8   S    
C129  H63   S    
C164  C182  A    
C9    O13   A    
C37   C52   A    
C11   O15   A    
C178  C196  S    
C181  C210  S    
C20   C36   A    
C69   C72   A    
C12   C119  S    
C87   C105  A    
O10   Zn5   S    
C172  C185  A    
C135  I13   S    
C64   C127  S    
C70   C132  S    
C79   C165  A    
C181  O8    A    
C6    O38   A    
C139  H91   S    
C68   N1    S    
C23   O51   S    
C33   N8    A    
C57   C94   A    
C134  H79   S    
C128  H60   S    
C48   C59   A    
C76   C139  S    
C27   C47   A    
C193  C219  T    
C184  C201  S    
C90   C168  A    
C198  C207  T    
C8    O11   A    
C62   C74   A    
C31   C51   A    
C13   N6    S    
C11   O17   A    
O41   Zn4   S    
O42   Zn4   S    
C24   N5    S    
C163  H33   S    
C183  C200  S    
C61   C123  S    
O56   Zn5   S    
C10   C117  S    
C142  I15   S    
C98   C115  A    
C92   H5    S    
C97   H10   S    
C84   H56   S    
C130  H65   S    
C199  C208  T    
C133  H76   S    
C3    O35   A    
C30   O58   S    
C149  C160  A    
C156  C191  S    
C10   O14   A    
C25   O52   S    
C159  O56   A    
C40   C66   A    
C51   C60   A    
C127  H55   S    
C144  C157  A    
C11   C118  S    
C24   C86   A    
O37   Zn3   S    
C79   C152  A    
O35   Zn2   S    
C22   N4    A    
C93   H6    S    
C27   N6    A    
C55   C56   A    
C3    O30   A    
C223  O32   A    
C82   C99   A    
C173  H41   S    
C176  C185  A    
O30   Zn12  S    
C29   N6    A    
C158  C194  S    
C151  C157  A    
C25   C40   A    
C63   C77   A    
C91   H4    S    
C81   C98   A    
C95   C114  A    
C33   C49   A    
C222  O33   A    
C170  O64   A    
O45   Zn6   S    
C181  O2    A    
C138  H90   S    
C7    C218  S    
C44   C58   A    
C166  C182  A    
C35   N4    S    
O3    Zn10  S    
C67   C73   A    
C134  H77   S    
O16   Zn1   S    
C17   N1    A    
C66   C129  S    
C78   H1    S    
C30   C50   A    
C33   O61   S    
C12   O18   A    
C32   C48   A    
C164  H32   S    
C191  C218  T    
C107  C119  A    
C18   N2    A    
C104  C118  A    
C125  H50   S    
C53   C59   A    
C168  H28   S    
C126  H53   S    
C125  H48   S    
C65   C128  S    
C171  C184  A    
C159  C208  S    
C47   C73   A    
O21   Zn11  S    
C28   N5    A    
O15   Zn5   S    
C194  C220  T    
C108  H21   S    
C131  H70   S    
O63   Zn7   S    
C14   O21   A    
C51   C77   A    
C9    O10   A    
C155  C190  S    
C138  H88   S    
C72   C134  S    
C145  C176  A    
C21   O49   S    
C146  C175  A    
C89   C107  A    
C97   C116  A    
C147  C156  A    
C160  C195  S    
C21   C41   A    
C148  O62   A    
C162  H35   S    
C14   C120  S    
C107  H20   S    
C2    C82   A    
C67   C130  S    
C5    O37   A    
C26   O53   S    
C215  C222  S    
C105  H18   S    
C113  C166  A    
C110  H24   S    
C140  H95   S    
C129  H62   S    
C150  C158  A    
C91   C108  A    
C144  I2    S    
C21   N3    A    
C174  C183  A    
C142  C162  A    
C62   C125  S    
C153  C188  S    
C168  C179  A    
C13   C83   A    
C28   C43   A    
C34   C52   A    
C132  H71   S    
C31   O59   S    
C216  C223  S    
C112  C206  S    
C110  C122  A    
C145  C158  A    
C1    O45   A    
C63   C126  S    
C137  H85   S    
O40   Zn4   S    
C99   H13   S    
C144  C177  A    
O36   Zn3   S    
C12   O20   A    
C105  C119  A    
C4    O42   A    
C143  C174  A    
C161  C178  A    
C159  O34   A    
C47   C58   A    
C126  H51   S    
C111  C121  A    
C135  C164  A    
C149  I6    S    
O14   Zn6   S    
O22   Zn10  S    
C112  O63   A    
C2    N7    S    
C22   C42   A    
C61   C75   A    
O24   Zn9   S    
C131  H68   S    
C101  C154  A    
O43   Zn4   S    
O23   Zn6   S    
C23   C39   A    
C5    C220  S    
C114  H26   S    
C135  C155  A    
C44   C71   A    
C83   H45   S    
C196  C205  T    
C101  C167  A    
C169  C183  A    
C8    C115  S    
C136  H81   S    
C98   H11   S    
O19   Zn9   S    
C203  O6    A    
O62   Zn1   S    
C16   O26   A    
C1    O1    A    
O34   Zn7   S    
C73   C136  S    
C96   C115  A    
C31   N8    A    
O9    Zn1   S    
C1    C205  S    
C26   C45   A    
C6    C221  S    
C4    C219  S    
C217  C224  S    
C124  C152  A    
C45   C72   A    
C165  C178  A    
C134  H80   S    
C89   H3    S    
C26   N5    A    
O12   Zn5   S    
C94   H7    S    
C18   O46   S    
C46   C88   A    
C85   H67   S    
C214  N8    S    
C173  C186  A    
C132  H73   S    
C179  C197  S    
C30   N7    A    
C65   C71   A    
C169  H40   S    
C192  C211  S    
C20   N2    A    
C88   C106  A    
C43   C56   A    
C81   C214  A    
C96   H9    S    
C130  H66   S    
O32   Zn2   S    
C133  H75   S    
C186  C204  S    
C17   C37   A    
O6    Zn9   S    
C162  C179  A    
C46   N3    S    
C112  O12   A    
O4    Zn11  S    
C109  H22   S    
C141  C163  A    
C43   C70   A    
C203  C212  S    
C19   O47   S    
C201  C210  T    
C161  H31   S    
C4    O36   A    
C54   C58   A    
C15   C121  S    
C106  C120  A    
C165  H27   S    
C123  H47   S    
C19   C34   A    
C102  C118  A    
C71   C133  S    
C15   O25   A    
C111  H25   S    
C148  O23   A    
C140  H94   S    
C143  I16   S    
C127  H57   S    
C24   C84   A    
C17   O44   S    
C32   N7    A    
C136  H83   S    
C143  C156  A    
O17   Zn7   S    
C170  C209  S    
C203  O4    A    
O18   Zn8   S    
C166  H30   S    
C149  C173  A    
C142  C153  A    
C41   C54   A    
C2    C80   A    
C192  O3    A    
C139  H92   S    
C114  C122  A    
C150  I7    S    
C87   H89   S    
C163  C180  A    
C128  H59   S    
C147  C169  A    
C192  O7    A    
