data_mof_unit_17663.cif
_audit_creation_date              2012-12-10T17:03:45-0500
_audit_creation_method            fapswitch 2.2
_symmetry_space_group_name_H-M    P1
_symmetry_Int_Tables_number       1
_space_group_crystal_system       triclinic
_cell_length_a                    10.093175
_cell_length_b                    10.746313
_cell_length_c                    13.326584
_cell_angle_alpha                 90.201243
_cell_angle_beta                  71.918358
_cell_angle_gamma                 90.165983
_cell_volume                      1374.06549182

loop_
_atom_site_label
_atom_site_type_symbol
_atom_type_description
_atom_site_fract_x
_atom_site_fract_y
_atom_site_fract_z
_atom_type_partial_charge
C1    C     C_R   0.503807 0.736981 0.492124 0.783349
C2    C     C_R   0.383855 0.525428 0.818078 -0.255118
C3    C     C_2   0.613750 0.069561 0.472015 -0.282621
C4    C     C_R   0.424907 0.511096 0.702541 0.917236
C5    C     C_2   0.495375 0.131268 0.517776 0.354572
C6    C     C_2   0.618825 0.936164 0.483319 0.411124
C7    C     C_2   0.517346 0.867324 0.464358 0.302792
C8    C     C_2   0.098415 0.420926 0.445090 0.476072
C9    C     C_2   0.948169 0.424554 0.442941 -0.286038
C10   C     C_R   0.498272 0.263138 0.504200 0.787920
C11   C     C_R   0.576437 0.497592 0.297356 0.911122
C12   C     C_R   0.446798 0.481697 0.976622 -0.057136
C13   C     C_R   0.792678 0.437509 0.014510 0.511324
C14   C     C_R   0.621121 0.483648 0.183181 -0.276843
C15   C     C_R   0.242044 0.521828 0.877945 0.462490
C16   C     C_R   0.205407 0.480185 0.981515 -0.316262
C17   C     C_R   0.305807 0.449876 0.028223 0.462744
C18   C     C_3   0.910281 0.590337 0.169261 -0.266163
C19   C     C_3   0.894299 0.391730 0.733968 -0.183161
C20   C     C_3   0.936821 0.270778 0.977219 -0.340655
C21   C     C_3   0.124097 0.675161 0.827187 -0.177083
C22   C     C_3   0.283698 0.257124 0.099277 -0.258839
C23   C     C_R   0.486242 0.522781 0.871130 -0.241015
C24   C     C_3   0.612016 0.757809 0.778533 -0.246920
C25   C     C_R   0.550809 0.472840 0.026045 -0.054304
C26   C     C_R   0.692176 0.463722 0.964591 -0.235452
C27   C     C_R   0.729944 0.497430 0.857896 0.434372
C28   C     C_R   0.629180 0.554055 0.821873 0.479773
C29   C     C_R   0.518056 0.486082 0.134304 -0.205095
C30   C     C_R   0.760723 0.461480 0.123154 0.384053
H1    H     H_    0.085366 0.568291 0.540451 0.128951
H2    H     H_    0.305060 0.134436 0.613590 0.331518
H3    H     H_    0.783496 0.951639 0.528744 0.325515
H4    H     H_    0.369203 0.856419 0.398139 0.340695
H5    H     H_    0.134736 0.276630 0.353233 0.318232
H6    H     H_    0.830202 0.387987 0.679673 0.131450
H7    H     H_    0.874615 0.306484 0.783528 0.150139
H8    H     H_    0.005766 0.390807 0.686110 0.194909
H9    H     H_    0.852249 0.213877 0.962485 0.135552
H10   H     H_    0.938858 0.256689 0.059347 0.191269
H11   H     H_    0.037395 0.236545 0.923206 0.188333
H12   H     H_    0.918211 0.358924 0.391764 0.194029
H13   H     H_    0.039791 0.694842 0.792440 0.215065
H14   H     H_    0.221170 0.718683 0.774957 0.124396
H15   H     H_    0.094171 0.718739 0.906995 0.108597
H16   H     H_    0.395542 0.235001 0.059860 0.159138
H17   H     H_    0.219261 0.224716 0.049899 0.139642
H18   H     H_    0.249858 0.204289 0.174231 0.193494
H19   H     H_    0.619673 0.782184 0.857923 0.122799
H20   H     H_    0.501639 0.759638 0.779401 0.146817
H21   H     H_    0.668531 0.830999 0.723227 0.216321
H22   H     H_    0.877880 0.560642 0.548672 0.210858
H23   H     H_    0.413037 0.510757 0.180177 0.243320
H24   H     H_    0.099008 0.463320 0.025041 0.262156
H25   H     H_    0.709512 0.117027 0.428276 0.115249
H26   H     H_    0.826530 0.650417 0.220156 0.163630
H27   H     H_    0.946328 0.630016 0.088202 0.139512
H28   H     H_    0.999220 0.593384 0.201523 0.200679
N1    N     N_2   0.148270 0.498670 0.498870 -0.200895
N2    N     N_2   0.852610 0.498640 0.498840 -0.194298
O1    O     O_R   0.386950 0.680940 0.500020 -0.640440
O2    O     O_3   0.377906 0.071485 0.582222 -0.750903
O3    O     O_3   0.722387 0.884008 0.517567 -0.784411
O4    O     O_3   0.429542 0.921112 0.414509 -0.757520
O5    O     O_3   0.187711 0.331458 0.386976 -0.688380
O6    O     O_3   0.867649 0.500943 0.795967 -0.537007
O7    O     O_3   0.923678 0.397952 0.956052 -0.535829
O8    O     O_3   0.138155 0.545104 0.833317 -0.510508
O9    O     O_3   0.264128 0.385214 0.122408 -0.595688
O10   O     O_3   0.674039 0.641808 0.742234 -0.562633
O11   O     O_R   0.613110 0.680900 0.499980 -0.541480
O12   O     O_R   0.330780 0.500000 0.653640 -0.578761
O13   O     O_R   0.556930 0.499960 0.653610 -0.572458
O14   O     O_R   0.386890 0.319100 0.500020 -0.557298
O15   O     O_R   0.613050 0.319060 0.499980 -0.645799
O16   O     O_R   0.443070 0.500040 0.346390 -0.583807
O17   O     O_R   0.669220 0.500000 0.346360 -0.571060
O18   O     O_3   0.866348 0.465209 0.168789 -0.591342
Zn1   Zn    Zn3+2 0.349000 0.500030 0.500020 1.009515
Zn2   Zn    Zn3+2 0.651000 0.499970 0.499980 1.002495

loop_
_geom_bond_atom_site_label_1
_geom_bond_atom_site_label_2
_ccdc_geom_bond_type
C22   H18   S    
C17   O9    S    
C20   O7    S    
O16   Zn1   S    
C3    C6    S    
C20   H11   S    
C24   O10   S    
C12   C23   A    
C9    H12   S    
C1    O11   A    
O12   Zn1   S    
C19   H6    S    
C8    N1    D    
C20   H10   S    
C11   C14   S    
H5    O5    S    
C15   C16   A    
C19   O6    S    
H1    N1    S    
C11   O17   A    
C21   H13   S    
C3    H25   S    
C18   H28   S    
C8    C9    S    
C12   C17   A    
C19   H7    S    
O15   Zn2   S    
C22   O9    S    
C18   H26   S    
C24   H21   S    
C22   H17   S    
C8    O5    S    
C25   C29   A    
C14   C30   A    
O11   Zn2   S    
C21   H15   S    
C24   H20   S    
C13   C30   A    
N1    Zn1   S    
C20   H9    S    
C16   C17   A    
C25   C26   A    
C6    O3    S    
C2    C4    S    
C19   H8    S    
C21   H14   S    
C10   O15   A    
C18   H27   S    
H3    O3    S    
H4    O4    S    
C26   C27   A    
C23   C28   A    
C2    C15   A    
C4    O13   A    
C18   O18   S    
C22   H16   S    
O14   Zn1   S    
C21   O8    S    
C13   C26   A    
C14   C29   A    
C4    O12   A    
C13   O7    S    
O17   Zn2   S    
C24   H19   S    
N2    Zn2   S    
C1    C7    S    
C28   O10   S    
C3    C5    D    
C1    O1    A    
C6    C7    D    
C12   C25   A    
C11   O16   A    
C9    N2    D    
H2    O2    S    
C5    C10   S    
C27   O6    S    
C10   O14   A    
C29   H23   S    
O1    Zn1   S    
C15   O8    S    
O13   Zn2   S    
C5    O2    S    
C16   H24   S    
C7    O4    S    
C30   O18   S    
H22   N2    S    
C2    C23   A    
C27   C28   A    
