data_mof_unit_53869.cif
_audit_creation_date              2012-12-11T14:58:39-0500
_audit_creation_method            fapswitch 2.2
_symmetry_space_group_name_H-M    P1
_symmetry_Int_Tables_number       1
_space_group_crystal_system       triclinic
_cell_length_a                    11.035413
_cell_length_b                    11.10189
_cell_length_c                    18.610082
_cell_angle_alpha                 89.498938
_cell_angle_beta                  90.043359
_cell_angle_gamma                 59.154865
_cell_volume                      1957.39223885

loop_
_atom_site_label
_atom_site_type_symbol
_atom_type_description
_atom_site_fract_x
_atom_site_fract_y
_atom_site_fract_z
_atom_type_partial_charge
C1    C     C_R   0.352717 0.783155 0.401130 0.559656
C2    C     C_R   0.239808 0.452093 0.192897 -0.120422
C3    C     C_R   0.231986 0.457956 0.267394 -0.040033
C4    C     C_R   0.384423 0.357837 0.386240 0.547690
C5    C     C_R   0.855086 0.810295 0.359998 -0.116777
C6    C     C_R   0.839069 0.746814 0.299758 -0.073798
C7    C     C_R   0.957746 0.636775 0.266230 -0.074640
C8    C     C_R   0.094374 0.577711 0.297434 0.012409
C9    C     C_R   0.358683 0.357325 0.307584 0.005337
C10   C     C_R   0.855511 0.219304 0.297558 -0.145508
C11   C     C_R   0.885358 0.207821 0.223936 -0.108121
C12   C     C_R   0.612928 0.162670 0.156331 0.031272
C13   C     C_R   0.938985 0.287826 0.193404 0.026091
C14   C     C_R   0.962608 0.369505 0.238446 -0.124904
C15   C     C_R   0.871680 0.425997 0.295752 0.085676
C16   C     C_R   0.778596 0.377334 0.403415 0.576866
C17   C     C_R   0.852486 0.330766 0.335446 0.030529
C18   C     C_R   0.417092 0.900656 0.303221 -0.116727
C19   C     C_R   0.399215 0.934637 0.229341 -0.146272
C20   C     C_R   0.290249 0.933953 0.190971 0.039209
C21   C     C_R   0.188355 0.919405 0.230360 0.086588
C22   C     C_R   0.191887 0.917093 0.303968 -0.122288
C23   C     C_R   0.356971 0.345710 0.157637 0.010939
C24   C     C_R   0.317927 0.878089 0.338693 0.013616
C25   C     C_R   0.402770 0.185330 0.693163 -0.137455
C26   C     C_R   0.382240 0.164122 0.763874 -0.119907
C27   C     C_R   0.269653 0.269871 0.802372 0.012503
C28   C     C_R   0.341733 0.773160 0.603496 0.553082
C29   C     C_R   0.165587 0.389222 0.765905 -0.088750
C30   C     C_R   0.184207 0.412616 0.693161 0.005739
C31   C     C_R   0.312340 0.314177 0.659152 0.023836
C32   C     C_R   0.698747 0.503806 0.736766 -0.157175
C33   C     C_R   0.737675 0.480871 0.808667 -0.150587
C34   C     C_R   0.481879 0.265265 0.269134 -0.133241
C35   C     C_R   0.784577 0.349094 0.841083 0.029579
C36   C     C_R   0.763690 0.251329 0.802726 0.099673
C37   C     C_R   0.728834 0.274201 0.729370 -0.082138
C38   C     C_R   0.709705 0.395339 0.694695 -0.003263
C39   C     C_R   0.196943 0.840005 0.713990 0.105425
C40   C     C_R   0.367253 0.348061 0.594758 0.535157
C41   C     C_R   0.208722 0.818370 0.788200 0.127523
C42   C     C_R   0.310043 0.833642 0.825995 0.015253
C43   C     C_R   0.417161 0.838667 0.787923 -0.179459
C44   C     C_R   0.418498 0.836530 0.713529 -0.179405
C45   C     C_R   0.483617 0.262959 0.194940 -0.017614
C46   C     C_R   0.311336 0.832039 0.675832 0.019538
C47   C     C_R   0.971726 0.286893 0.117894 0.537860
C48   C     C_R   0.329653 0.297533 0.090125 0.542493
C49   C     C_R   0.271907 0.959143 0.112620 0.554438
C50   C     C_R   0.874738 0.313733 0.906603 0.544060
C51   C     C_R   0.267270 0.252434 0.880417 0.566229
C52   C     C_R   0.697288 0.413231 0.615822 0.567635
C53   C     C_R   0.278479 0.890585 0.898707 0.570986
C54   C     C_R   0.791578 0.967517 0.054950 -0.059131
C55   C     C_R   0.742979 0.110073 0.045217 -0.046245
C56   C     C_R   0.105238 0.665761 0.343770 -0.007890
C57   C     C_R   0.653408 0.207761 0.095186 -0.067766
C58   C     C_3   0.074426 0.543473 0.653185 -0.244135
C59   C     C_3   0.925993 0.612224 0.683380 -0.437224
C60   C     C_R   0.990516 0.773612 0.380626 -0.099999
C61   C     C_R   0.672241 0.019011 0.169220 -0.077781
C62   C     C_R   0.755407 0.921911 0.117058 -0.074907
Cr1   Cr    Cr6+3 0.601770 0.606860 0.505860 1.020994
Cr2   Cr    Cr6+3 0.291380 0.601660 0.495070 1.005728
Cr3   Cr    Cr6+3 0.606880 0.291510 0.499120 1.026792
Cr4   Cr    Cr6+3 0.062440 0.063090 0.008210 1.042719
Cr5   Cr    Cr6+3 0.062880 0.375170 0.998920 1.029780
Cr6   Cr    Cr6+3 0.374700 0.061720 0.992470 1.029554
H1    H     H_    0.580411 0.195091 0.296559 0.135262
H2    H     H_    0.794237 0.811399 0.125484 0.131742
H3    H     H_    0.107589 0.915327 0.332100 0.139893
H4    H     H_    0.497428 0.104389 0.667413 0.146517
H5    H     H_    0.461515 0.068160 0.789805 0.153057
H6    H     H_    0.074309 0.465594 0.795355 0.155987
H7    H     H_    0.671774 0.603091 0.712565 0.132663
H8    H     H_    0.741305 0.563766 0.837032 0.147643
H9    H     H_    0.719041 0.196470 0.699438 0.177060
H10   H     H_    0.004963 0.836392 0.419921 0.136334
H11   H     H_    0.499314 0.846005 0.815718 0.138949
H12   H     H_    0.764070 0.896715 0.385324 0.110738
H13   H     H_    0.505222 0.835115 0.685517 0.128905
H14   H     H_    0.858294 0.892585 0.014963 0.147291
H15   H     H_    0.769672 0.146557 0.997860 0.170707
H16   H     H_    0.608424 0.318647 0.084037 0.132337
H17   H     H_    0.203750 0.657977 0.336689 0.196834
H18   H     H_    0.646181 0.984572 0.217706 0.084495
H19   H     H_    0.148734 0.525554 0.161385 0.159389
H20   H     H_    0.900720 0.529231 0.691524 0.174364
H21   H     H_    0.917452 0.665943 0.734695 0.188147
H22   H     H_    0.849514 0.691166 0.644486 0.163540
H23   H     H_    0.735727 0.787106 0.277115 0.125846
H24   H     H_    0.109673 0.620325 0.652124 0.218495
H25   H     H_    0.066102 0.514605 0.597093 0.168201
H26   H     H_    0.939873 0.607992 0.213926 0.127633
H27   H     H_    0.821699 0.152579 0.321965 0.134436
H28   H     H_    0.866196 0.139329 0.191944 0.180146
H29   H     H_    0.042501 0.392387 0.224883 0.101567
H30   H     H_    0.511939 0.881293 0.330672 0.133223
H31   H     H_    0.475939 0.947833 0.200708 0.133537
I1    I     I_    0.666852 0.577426 0.255531 -0.400180
I2    I     I_    0.054936 0.849107 0.190705 -0.461462
I3    I     I_    0.766834 0.076146 0.849595 -0.353282
I4    I     I_    0.995043 0.917360 0.664328 -0.383104
I5    I     I_    0.100349 0.727950 0.839103 -0.322731
O1    O     O_R   0.748800 0.497470 0.428000 -0.482773
O2    O     O_R   0.417600 0.174890 0.067840 -0.505857
O3    O     O_R   0.375320 0.946260 0.070860 -0.490505
O4    O     O_R   0.476420 0.724060 0.429470 -0.477971
O5    O     O_R   0.160600 0.919630 0.926660 -0.453970
O6    O     O_R   0.933060 0.190520 0.936020 -0.487399
O7    O     O_R   0.908880 0.403460 0.925020 -0.525180
O8    O     O_R   0.179600 0.361450 0.918490 -0.475654
O9    O     O_R   0.391510 0.170860 0.907530 -0.493574
O10   O     O_R   0.351130 0.942530 0.922260 -0.526579
O11   O     O_3   0.166667 0.166667 0.999870 -0.323203
O12   O     O_R   0.300070 0.471040 0.567100 -0.514190
O13   O     O_R   0.264580 0.744340 0.416750 -0.566585
O14   O     O_R   0.309380 0.472470 0.418200 -0.509416
O15   O     O_R   0.501710 0.260430 0.414300 -0.527094
O16   O     O_R   0.728090 0.305600 0.428960 -0.507164
O17   O     O_R   0.738760 0.495930 0.588610 -0.524837
O18   O     O_R   0.467110 0.722640 0.578360 -0.531895
O19   O     O_R   0.254530 0.742800 0.577360 -0.493131
O20   O     O_R   0.491670 0.258900 0.574910 -0.524709
O21   O     O_R   0.718780 0.304180 0.577850 -0.484685
O22   O     O_3   0.500010 0.500010 0.500020 -0.268421
O23   O     O_R   0.186690 0.923650 0.086970 -0.463513
O24   O     O_R   0.957250 0.194250 0.084630 -0.522541
O25   O     O_R   0.934970 0.407490 0.085330 -0.492554
O26   O     O_R   0.203780 0.365190 0.067090 -0.519666

loop_
_geom_bond_atom_site_label_1
_geom_bond_atom_site_label_2
_ccdc_geom_bond_type
C11   H28   S    
C25   C31   A    
C4    C9    S    
C51   O8    A    
C23   C45   A    
C27   C29   A    
C41   C42   A    
C35   C36   A    
C15   I1    S    
C4    O14   A    
C8    C56   A    
C32   H7    S    
C28   O19   A    
C47   O24   A    
C39   C41   A    
C40   O12   A    
Cr4   O23   S    
C28   C46   S    
C26   C27   A    
C20   C49   S    
C47   O25   A    
Cr2   O12   S    
C36   C37   A    
C37   C38   A    
C16   O16   A    
C42   C53   S    
C30   C31   A    
C28   O18   A    
C38   C52   S    
C10   C17   A    
C43   H11   S    
C6    H23   S    
C50   O6    A    
C26   H5    S    
Cr2   O14   S    
C31   C40   S    
C62   H2    S    
C36   I3    S    
C18   C19   A    
C59   H21   S    
Cr3   O20   S    
Cr5   O11   S    
C59   H20   S    
C48   O2    A    
C19   C20   A    
C27   C51   S    
C16   C17   S    
C4    O15   A    
Cr6   O3    S    
C32   C38   A    
Cr1   O1    S    
Cr6   O9    S    
C21   I2    S    
C13   C14   A    
C48   O26   A    
Cr5   O25   S    
Cr6   O2    S    
C49   O23   A    
Cr1   O17   S    
C44   C46   A    
C40   O20   A    
Cr4   O11   S    
C7    C8    A    
C49   O3    A    
C3    C8    S    
C10   C11   A    
C13   C47   S    
C19   H31   S    
C29   H6    S    
C54   C62   A    
C25   C26   A    
C37   H9    S    
Cr2   O13   S    
C56   C60   A    
C59   H22   S    
Cr3   O21   S    
C43   C44   A    
C29   C30   A    
C3    C9    A    
C52   O17   A    
C33   H8    S    
C60   H10   S    
C35   C50   S    
Cr3   O15   S    
C57   H16   S    
C2    H19   S    
C25   H4    S    
C1    O13   A    
Cr4   O6    S    
C5    H12   S    
C34   H1    S    
C34   C45   A    
C16   O1    A    
C39   C46   A    
C12   C57   A    
Cr5   O7    S    
C44   H13   S    
Cr2   O22   S    
C55   C57   A    
C51   O9    A    
C9    C34   A    
C18   C24   A    
Cr5   O26   S    
C42   C43   A    
C55   H15   S    
Cr6   O11   S    
C22   H3    S    
C54   H14   S    
Cr1   O18   S    
C53   O10   A    
C14   H29   S    
C53   O5    A    
C15   C17   A    
C7    H26   S    
C54   C55   A    
C23   C48   S    
C5    C60   A    
C58   H25   S    
C12   C45   S    
C52   O21   A    
C39   I4    S    
C6    C7    A    
Cr2   O19   S    
C41   I5    S    
C32   C33   A    
C2    C3    A    
C58   C59   S    
Cr3   O22   S    
C12   C61   A    
C11   C13   A    
C56   H17   S    
C5    C6    A    
C10   H27   S    
C30   C58   S    
C50   O7    A    
C33   C35   A    
Cr3   O16   S    
Cr4   O24   S    
C22   C24   A    
Cr4   O5    S    
C61   C62   A    
Cr1   O22   S    
C61   H18   S    
C1    O4    A    
Cr5   O8    S    
C20   C21   A    
C1    C24   S    
C2    C23   A    
C14   C15   A    
C18   H30   S    
Cr1   O4    S    
C21   C22   A    
C58   H24   S    
Cr6   O10   S    
