data_mof_unit_68568.cif
_audit_creation_date              2012-10-26T20:16:41-0400
_audit_creation_method            fapswitch 2.2
_symmetry_space_group_name_H-M    P1
_symmetry_Int_Tables_number       1
_space_group_crystal_system       triclinic
_cell_length_a                    10.921742
_cell_length_b                    10.95951
_cell_length_c                    9.822422
_cell_angle_alpha                 98.352153
_cell_angle_beta                  98.392368
_cell_angle_gamma                 93.861351
_cell_volume                      1146.06976455

loop_
_atom_site_label
_atom_site_type_symbol
_atom_type_description
_atom_site_fract_x
_atom_site_fract_y
_atom_site_fract_z
_atom_type_partial_charge
C1    C     C_R   0.504061 0.262305 0.499434 0.536719
C2    C     C_R   0.680643 0.965545 0.850386 -0.104565
C3    C     C_R   0.477293 0.079881 0.230231 0.056220
C4    C     C_R   0.563467 0.925161 0.771270 0.055672
C5    C     C_R   0.577098 0.145904 0.189090 -0.034871
C6    C     C_R   0.474696 0.861697 0.832118 -0.037780
C7    C     C_R   0.561586 0.188395 0.060732 -0.080951
C8    C     C_R   0.505075 0.833026 0.966182 -0.107359
C9    C     C_R   0.447727 0.162952 0.971918 -0.122462
C10   C     C_R   0.622716 0.871427 0.042763 -0.115173
C11   C     C_R   0.482780 0.916314 0.376307 -0.167158
C12   C     C_R   0.500621 0.738095 0.500610 0.539782
C13   C     C_R   0.536435 0.085131 0.623011 -0.167746
C14   C     C_R   0.503306 0.872664 0.503851 -0.011920
C15   C     C_R   0.510735 0.128377 0.496275 -0.012708
C16   C     C_R   0.261905 0.498416 0.499535 0.533178
C17   C     C_R   0.737840 0.499412 0.500459 0.537916
C18   C     C_R   0.532262 0.959024 0.629906 -0.033614
C19   C     C_R   0.489758 0.042548 0.370231 -0.034229
C20   C     C_2   0.510483 0.510955 0.078580 -0.038765
C21   C     C_2   0.487570 0.491138 0.921457 -0.040658
C22   C     C_R   0.161453 0.495748 0.032556 -0.155305
C23   C     C_R   0.871770 0.496799 0.503209 -0.017580
C24   C     C_R   0.836637 0.478907 0.963711 -0.152170
C25   C     C_R   0.130101 0.526160 0.164704 -0.068105
C26   C     C_R   0.867713 0.453305 0.830846 -0.073165
C27   C     C_R   0.076407 0.435237 0.230077 0.019003
C28   C     C_R   0.920830 0.547481 0.769853 0.019193
C29   C     C_R   0.052820 0.311293 0.160009 0.049370
C30   C     C_R   0.939085 0.670280 0.842434 0.056642
C31   C     C_R   0.079063 0.281313 0.022914 0.301626
C32   C     C_R   0.918314 0.694813 0.982258 0.303131
C33   C     C_R   0.137264 0.374731 0.962149 -0.130917
C34   C     C_R   0.127348 0.495561 0.496715 -0.011131
C35   C     C_R   0.862140 0.597840 0.039627 -0.131353
C36   C     C_R   0.915294 0.473859 0.376130 -0.172185
C37   C     C_R   0.083451 0.515673 0.624039 -0.159156
C38   C     C_3   0.006281 0.209712 0.234712 -0.234130
C39   C     C_3   0.112559 0.174493 0.338654 -0.276259
C40   C     C_3   0.068154 0.144894 0.470916 -0.481733
C41   C     C_3   0.966937 0.776683 0.765763 -0.212248
C42   C     C_3   0.105715 0.821112 0.788947 -0.283203
C43   C     C_3   0.141775 0.870730 0.660837 -0.469219
C44   C     C_3   0.031889 0.145643 0.811485 -0.159296
C45   C     C_R   0.957148 0.516751 0.629545 -0.031338
C46   C     C_3   0.954281 0.826565 0.198993 -0.156746
C47   C     C_R   0.041442 0.471332 0.370396 -0.024485
C48   C     C_R   0.350717 0.092476 0.009424 -0.111136
C49   C     C_R   0.709307 0.939906 0.985869 -0.090248
C50   C     C_R   0.365244 0.050189 0.137572 -0.091856
Cu1   Cu    Cu3+1 0.521120 0.521140 0.639640 0.924282
Cu2   Cu    Cu3+1 0.478880 0.478860 0.360360 0.925493
H1    H     H_    0.165667 0.354821 0.860929 0.091970
H2    H     H_    0.582394 0.581315 0.133671 0.141413
H3    H     H_    0.622714 0.616692 0.904120 0.224735
H4    H     H_    0.379357 0.381153 0.096033 0.226061
H5    H     H_    0.205710 0.566285 0.984857 0.109684
H6    H     H_    0.793397 0.405960 0.008646 0.107572
H7    H     H_    0.151691 0.620137 0.218395 0.119204
H8    H     H_    0.845426 0.361086 0.772724 0.109810
H9    H     H_    0.850274 0.453976 0.279625 0.123753
H10   H     H_    0.148049 0.531687 0.720869 0.124419
H11   H     H_    0.433754 0.198109 0.874261 0.097488
H12   H     H_    0.836012 0.612950 0.142118 0.093020
H13   H     H_    0.645429 0.851006 0.147448 0.096003
H14   H     H_    0.264633 0.070225 0.938612 0.146904
H15   H     H_    0.797683 0.975752 0.047633 0.155261
H16   H     H_    0.289441 0.994579 0.164505 0.104801
H17   H     H_    0.748957 0.018669 0.807897 0.098536
H18   H     H_    0.037046 0.229102 0.528464 0.158707
H19   H     H_    0.990119 0.070905 0.446205 0.132967
H20   H     H_    0.146700 0.113198 0.537770 0.135519
H21   H     H_    0.152661 0.092494 0.288910 0.159136
H22   H     H_    0.189255 0.249668 0.368944 0.190038
H23   H     H_    0.665298 0.167138 0.257984 0.088221
H24   H     H_    0.927272 0.239300 0.286743 0.125025
H25   H     H_    0.966876 0.125366 0.160605 0.179043
H26   H     H_    0.159681 0.792826 0.582538 0.158860
H27   H     H_    0.066558 0.920492 0.611389 0.135006
H28   H     H_    0.226397 0.936483 0.690713 0.131885
H29   H     H_    0.125478 0.895111 0.881140 0.198257
H30   H     H_    0.164396 0.745432 0.811793 0.150616
H31   H     H_    0.931049 0.749806 0.652741 0.131741
H32   H     H_    0.913271 0.854920 0.799659 0.162683
H33   H     H_    0.121652 0.145927 0.771514 0.115162
H34   H     H_    0.383678 0.830585 0.774150 0.115194
H35   H     H_    0.975776 0.217205 0.772213 0.105056
H36   H     H_    0.977770 0.055879 0.769644 0.138509
H37   H     H_    0.010707 0.758299 0.245556 0.112764
H38   H     H_    0.858927 0.820187 0.225395 0.105078
H39   H     H_    0.998820 0.919283 0.246937 0.138968
H40   H     H_    0.637367 0.241527 0.030522 0.095479
H41   H     H_    0.437057 0.781759 0.010935 0.098891
H42   H     H_    0.463721 0.851666 0.279604 0.126716
H43   H     H_    0.561120 0.150538 0.718393 0.129062
H44   H     H_    0.413833 0.422807 0.866343 0.140356
N1    N     N_2   0.447120 0.447110 0.150550 -0.348800
N2    N     N_2   0.552880 0.552890 0.849450 -0.351696
O1    O     O_R   0.517830 0.337490 0.617920 -0.510762
O2    O     O_3   0.951127 0.815116 0.053503 -0.589283
O3    O     O_R   0.482170 0.662510 0.382080 -0.509647
O4    O     O_R   0.482150 0.301790 0.382070 -0.486604
O5    O     O_R   0.517850 0.698210 0.617930 -0.489199
O6    O     O_R   0.337480 0.517860 0.617920 -0.511941
O7    O     O_R   0.662520 0.482140 0.382080 -0.512514
O8    O     O_R   0.301810 0.482160 0.382070 -0.492553
O9    O     O_R   0.698190 0.517840 0.617930 -0.487138
O10   O     O_3   0.053136 0.158517 0.957992 -0.594737

loop_
_geom_bond_atom_site_label_1
_geom_bond_atom_site_label_2
_ccdc_geom_bond_type
C23   C45   A    
C40   H19   S    
C27   C29   A    
C34   C37   A    
C41   C42   S    
C14   C18   A    
C42   H30   S    
C1    O1    A    
C22   H5    S    
C37   H10   S    
C46   H37   S    
C38   H24   S    
C43   H26   S    
C15   C19   A    
Cu2   O4    S    
C17   C23   S    
C40   H18   S    
C13   C18   A    
C13   H43   S    
C24   C26   A    
C17   O9    A    
C38   C39   S    
C11   C14   A    
C43   H27   S    
C41   H31   S    
Cu2   N1    S    
C36   C47   A    
C31   O10   S    
C39   H22   S    
C16   C34   S    
C16   O6    A    
C20   N1    D    
C22   C25   A    
C29   C38   S    
C31   C33   A    
C30   C41   S    
C3    C19   S    
C35   H12   S    
C1    C15   S    
C44   H35   S    
C40   H20   S    
C16   O8    A    
C4    C18   S    
Cu1   N2    S    
C48   C50   A    
Cu2   O8    S    
C33   H1    S    
C42   H29   S    
H4    N1    S    
Cu1   O9    S    
C3    C50   A    
C44   O10   S    
Cu1   O1    S    
C28   C45   S    
Cu2   O3    S    
C24   C35   A    
Cu1   Cu2   S    
C32   C35   A    
C12   O5    A    
C20   H2    S    
C39   C40   S    
C5    C7    A    
C6    C8    A    
C46   H39   S    
C43   H28   S    
C41   H32   S    
C32   O2    S    
C5    H23   S    
C2    C4    A    
C2    C49   A    
C17   O7    A    
C11   C19   A    
C11   H42   S    
C4    C6    A    
C21   H44   S    
C12   C14   S    
Cu2   O7    S    
C13   C15   A    
C42   C43   S    
C37   C45   A    
C44   H33   S    
C2    H17   S    
C26   H8    S    
C10   H13   S    
C27   C47   S    
C7    C9    A    
C22   C33   A    
C46   O2    S    
C49   H15   S    
C9    H11   S    
C8    C10   A    
C8    H41   S    
C3    C5    A    
C46   H38   S    
C38   H25   S    
C25   C27   A    
C26   C28   A    
C6    H34   S    
C28   C30   A    
Cu1   O6    S    
C12   O3    A    
C29   C31   A    
C30   C32   A    
C21   N2    D    
C50   H16   S    
C7    H40   S    
H3    N2    S    
C39   H21   S    
C20   C21   S    
C9    C48   A    
C24   H6    S    
C23   C36   A    
C34   C47   A    
C25   H7    S    
C48   H14   S    
C44   H36   S    
C10   C49   A    
Cu1   O5    S    
C1    O4    A    
C36   H9    S    
