data_mof_unit_32253.cif
_audit_creation_date              2013-03-05T15:55:53-0500
_audit_creation_method            fapswitch 2.2
_symmetry_space_group_name_H-M    P1
_symmetry_Int_Tables_number       1
_space_group_crystal_system       triclinic
_cell_length_a                    12.412622
_cell_length_b                    13.093897
_cell_length_c                    15.820471
_cell_angle_alpha                 76.148121
_cell_angle_beta                  100.789028
_cell_angle_gamma                 116.725642
_cell_volume                      2220.41814872

loop_
_atom_site_label
_atom_site_type_symbol
_atom_site_description
_atom_site_fract_x
_atom_site_fract_y
_atom_site_fract_z
_atom_type_partial_charge
O1    O     O_R   0.972510 0.318130 0.524770 -0.500559
O2    O     O_R   0.806530 0.359650 0.491510 -0.546208
C1    C     C_R   0.855087 0.285693 0.507419 0.838185
O3    O     O_R   0.082970 0.479240 0.637550 -0.563931
O4    O     O_R   0.916990 0.520750 0.604290 -0.516397
C2    C     C_R   0.001485 0.502475 0.659535 0.842324
Cu1   Cu    Cu3+1 0.098270 0.475420 0.519690 0.976962
Cu2   Cu    Cu3+1 0.901730 0.524580 0.480310 1.008488
O5    O     O_R   0.193470 0.640350 0.508490 -0.600168
O6    O     O_R   0.027490 0.681870 0.475230 -0.535831
O7    O     O_R   0.083010 0.479250 0.395710 -0.582216
O8    O     O_R   0.917030 0.520760 0.362450 -0.564378
C3    C     C_R   0.144671 0.714166 0.487304 0.811217
C4    C     C_R   0.001033 0.501173 0.340099 0.793370
C5    C     C_3   0.999193 0.407359 0.045886 -0.313898
C6    C     C_3   0.903070 0.424504 0.973244 0.129394
H1    H     H_    0.993654 0.323558 0.086452 0.152265
C7    C     C_1   0.004416 0.507371 0.748700 -0.202929
C8    C     C_1   0.003629 0.504185 0.250208 -0.190982
C9    C     C_3   0.100250 0.496132 0.987502 0.512343
C10   C     C_3   0.004951 0.512101 0.915329 -0.047676
C11   C     C_3   0.108982 0.598584 0.024258 0.091567
C12   C     C_3   0.006378 0.510419 0.081986 -0.042237
C13   C     C_3   0.011757 0.614626 0.952000 0.080923
C14   C     C_3   0.908929 0.526412 0.010160 0.180502
C15   C     C_1   0.005394 0.510292 0.823860 -0.021955
C16   C     C_1   0.005616 0.507175 0.174332 -0.056184
C17   C     C_R   0.278711 0.031617 0.385131 0.490957
H2    H     H_    0.099218 0.892579 0.383866 0.202177
H3    H     H_    0.466606 0.231705 0.332078 0.185103
C18   C     C_R   0.227141 0.837879 0.470556 -0.120077
C19   C     C_R   0.811142 0.074633 0.557944 0.491807
C20   C     C_R   0.726920 0.959777 0.578016 -0.232609
C21   C     C_R   0.604878 0.927956 0.552029 -0.274547
C22   C     C_R   0.562929 0.009971 0.501360 0.115366
C23   C     C_R   0.649557 0.124945 0.474361 0.034460
C24   C     C_R   0.437966 0.980293 0.474340 0.031752
C25   C     C_R   0.402234 0.061384 0.413792 0.059503
C26   C     C_R   0.490619 0.169753 0.380859 -0.205388
C27   C     C_R   0.611915 0.200131 0.409349 -0.199443
C28   C     C_R   0.347422 0.871350 0.505032 -0.260007
C29   C     C_R   0.192181 0.918480 0.411948 -0.277477
C30   C     C_R   0.772217 0.160457 0.511019 -0.233394
H4    H     H_    0.368018 0.808828 0.554735 0.159809
H5    H     H_    0.546753 0.837096 0.569897 0.151734
H6    H     H_    0.756550 0.894614 0.615546 0.160355
H7    H     H_    0.675838 0.281924 0.376786 0.161709
C31   C     C_R   0.317788 0.293348 0.613291 0.316443
H8    H     H_    0.487727 0.228211 0.607167 0.196178
N1    N     N_R   0.246280 0.438200 0.549540 -0.257310
C32   C     C_R   0.763810 0.649389 0.382019 0.673076
C33   C     C_R   0.663188 0.673074 0.347674 -0.406988
C34   C     C_R   0.549987 0.605500 0.380130 0.130213
C35   C     C_R   0.541913 0.523189 0.459085 -0.031608
C36   C     C_R   0.644555 0.495273 0.489862 0.038538
C37   C     C_R   0.435527 0.462542 0.507398 -0.066353
C38   C     C_R   0.417819 0.355275 0.562796 -0.108046
C39   C     C_R   0.505371 0.315189 0.572705 -0.282416
C40   C     C_R   0.624171 0.394385 0.557237 0.535368
C41   C     C_R   0.346922 0.503564 0.505092 -0.095089
C42   C     C_R   0.233416 0.338554 0.606470 0.578618
N2    N     N_R   0.754330 0.561180 0.450980 -0.233164
H9    H     H_    0.357806 0.588156 0.470969 0.166919
H10   H     H_    0.672066 0.741923 0.291849 0.149589
C43   C     C_3   0.792610 0.324201 0.938851 -0.380977
C44   C     C_3   0.709902 0.243988 0.010141 -0.836549
H11   H     H_    0.761181 0.210321 0.065868 0.251557
H12   H     H_    0.668690 0.290228 0.033798 0.253744
H13   H     H_    0.635701 0.169134 0.983124 0.234193
H14   H     H_    0.740976 0.359369 0.884655 0.187928
H15   H     H_    0.824814 0.272705 0.912180 0.199288
O9    O     O_3   0.930730 0.102645 0.588951 -0.521303
C45   C     C_3   0.985188 0.078933 0.529919 -0.241101
H16   H     H_    0.983515 0.133360 0.464206 0.127857
H17   H     H_    0.941351 0.985168 0.524889 0.135051
H18   H     H_    0.081328 0.100841 0.554342 0.216950
O10   O     O_3   0.131400 0.277738 0.651579 -0.499860
C46   C     C_3   0.158812 0.299903 0.737984 -0.178979
H19   H     H_    0.076572 0.295066 0.759941 0.178967
H20   H     H_    0.233083 0.387325 0.745031 0.118308
H21   H     H_    0.180476 0.231098 0.782581 0.153082
O11   O     O_3   0.298081 0.186480 0.666108 -0.564331
C47   C     C_3   0.368202 0.202139 0.747559 -0.334638
H22   H     H_    0.400764 0.290340 0.763802 0.127439
H23   H     H_    0.446827 0.182646 0.749925 0.163759
H24   H     H_    0.312352 0.138052 0.799945 0.186862
O12   O     O_3   0.874657 0.715396 0.347436 -0.559237
C48   C     C_3   0.863117 0.723079 0.255760 -0.342161
H25   H     H_    0.839522 0.796040 0.221946 0.154687
H26   H     H_    0.796372 0.640266 0.234071 0.154145
H27   H     H_    0.952201 0.742505 0.235476 0.188805
C49   C     C_3   0.441347 0.612308 0.319028 -0.358475
C50   C     C_3   0.351665 0.494719 0.294438 -0.812859
H28   H     H_    0.398016 0.460294 0.262784 0.244083
H29   H     H_    0.310333 0.430100 0.351999 0.261763
H30   H     H_    0.277098 0.505491 0.247927 0.225721
H31   H     H_    0.395621 0.653166 0.343548 0.184542
H32   H     H_    0.471886 0.671268 0.256218 0.188981
O13   O     O_3   0.717515 0.371409 0.606958 -0.522174
C51   C     C_3   0.695676 0.323011 0.695726 -0.360203
H33   H     H_    0.641116 0.227587 0.703850 0.158222
H34   H     H_    0.653492 0.365763 0.723140 0.147451
H35   H     H_    0.782835 0.335283 0.734831 0.179572
C52   C     C_3   0.803763 0.541747 0.034729 -0.366899
C53   C     C_3   0.714444 0.553536 0.956723 -0.860779
H36   H     H_    0.759833 0.630142 0.906846 0.257281
H37   H     H_    0.671583 0.474480 0.926700 0.251361
H38   H     H_    0.641793 0.565178 0.979214 0.240099
H39   H     H_    0.754670 0.466143 0.084313 0.198618
H40   H     H_    0.840953 0.619784 0.065856 0.189271
C54   C     C_3   0.018591 0.726323 0.889242 -0.353571
C55   C     C_3   0.025983 0.819152 0.935642 -0.842868
H41   H     H_    0.944640 0.787864 0.970785 0.252149
H42   H     H_    0.108017 0.845350 0.982320 0.251635
H43   H     H_    0.031110 0.897161 0.886427 0.248697
H44   H     H_    0.099057 0.762000 0.852031 0.206250
H45   H     H_    0.937880 0.704814 0.840868 0.200101
C56   C     C_3   0.224984 0.690938 0.062057 -0.379839
C57   C     C_3   0.316433 0.763108 0.994610 -0.813133
H46   H     H_    0.339734 0.706484 0.966464 0.284014
H47   H     H_    0.280326 0.814809 0.941394 0.249190
H48   H     H_    0.400593 0.824193 0.026676 0.228435
H49   H     H_    0.201665 0.748814 0.088642 0.198899
H50   H     H_    0.267605 0.647425 0.117368 0.195283
O14   O     O_3   0.199200 0.484036 0.966630 -0.578318
C58   C     C_3   0.247524 0.429433 0.041255 -0.334657
H51   H     H_    0.185508 0.335850 0.057423 0.171273
H52   H     H_    0.267415 0.472612 0.098402 0.160360
H53   H     H_    0.334252 0.435052 0.026735 0.188357
O15   O     O_3   0.245006 0.108774 0.322841 -0.588589
C59   C     C_3   0.182162 0.149043 0.362300 -0.365874
H54   H     H_    0.236580 0.187633 0.420528 0.169494
H55   H     H_    0.092846 0.078333 0.380168 0.161622
H56   H     H_    0.164787 0.218360 0.314368 0.194281

loop_
_geom_bond_atom_site_label_1
_geom_bond_atom_site_label_2
_geom_bond_distance
_ccdc_geom_bond_type
C27   H7    1.080050 S    
C44   H12   1.107751 S    
O12   C48   1.414030 S    
C50   H28   1.110938 S    
C18   C29   1.398060 A    
C36   C40   1.439226 A    
H2    C29   1.082656 S    
C40   O13   1.382293 S    
C45   H16   1.113359 S    
C54   C55   1.525254 S    
C7    C15   1.196440 T    
C10   C15   1.454004 S    
C59   H56   1.109316 S    
C55   H42   1.107008 S    
C31   C42   1.394087 A    
C49   H32   1.112480 S    
Cu1   Cu2   2.721286 S    
C19   O9    1.379290 S    
C34   C35   1.427238 A    
Cu1   O7    1.925595 S    
C53   H37   1.107100 S    
C1    C30   1.486751 S    
C58   H51   1.111190 S    
C41   H9    1.069090 S    
C32   N2    1.364033 A    
C22   C24   1.424386 A    
O4    C2    1.305195 A    
O7    C4    1.303249 A    
C46   H20   1.116289 S    
C44   H13   1.110358 S    
C5    C6    1.548792 S    
C36   N2    1.407747 A    
C37   C38   1.412158 A    
C5    H1    1.109991 S    
C21   C22   1.414720 A    
O5    C3    1.307244 A    
C56   C57   1.525100 S    
C52   C53   1.525276 S    
C47   H22   1.116494 S    
C42   O10   1.380634 S    
C54   H44   1.109587 S    
C12   C16   1.453055 S    
C8    C16   1.196169 T    
C5    C12   1.548192 S    
C44   H11   1.110367 S    
C50   H29   1.106311 S    
C20   H6    1.083395 S    
C45   H17   1.113315 S    
C13   C54   1.535135 S    
O3    Cu1   1.923819 S    
C55   H41   1.107003 S    
C49   H31   1.101708 S    
C57   H47   1.107557 S    
C5    C9    1.544670 S    
C2    C7    1.420315 S    
C53   H38   1.110319 S    
C35   C37   1.450048 A    
C32   C33   1.401792 A    
C23   C27   1.412214 A    
C13   C14   1.553919 S    
O3    C2    1.302193 A    
C33   H10   1.081985 S    
C32   O12   1.387535 S    
C26   C27   1.386125 A    
C46   H19   1.109419 S    
C58   H53   1.109214 S    
C39   C40   1.395679 A    
O10   C46   1.412661 S    
C51   H35   1.104389 S    
H8    C39   1.079489 S    
C37   C41   1.416480 A    
O1    C1    1.315056 A    
C22   C23   1.418844 A    
C24   C25   1.420986 A    
O13   C51   1.417449 S    
C48   H27   1.109588 S    
C17   C25   1.412510 A    
Cu2   O8    1.923819 S    
C47   H24   1.109258 S    
C34   C49   1.529599 S    
C51   H34   1.113793 S    
C20   C21   1.385129 A    
C14   C52   1.535745 S    
C21   H5    1.076631 S    
C56   H50   1.108738 S    
C48   H25   1.110361 S    
C47   H23   1.106714 S    
C48   H26   1.115186 S    
C43   C44   1.524980 S    
C50   H30   1.109392 S    
O14   C58   1.407556 S    
C28   H4    1.076385 S    
C11   C13   1.550436 S    
C59   H54   1.114956 S    
C33   C34   1.398302 A    
C57   H48   1.110293 S    
C6    C14   1.548194 S    
C11   C56   1.533296 S    
C35   C36   1.447526 A    
C58   H52   1.110684 S    
C18   C28   1.392724 A    
O1    Cu1   1.939323 S    
C4    C8    1.419221 S    
C3    C18   1.465156 S    
C11   C12   1.548235 S    
O2    Cu2   1.921302 S    
Cu1   N1    2.050881 S    
C9    C11   1.539034 S    
O9    C45   1.410493 S    
C59   H55   1.111308 S    
O6    C3    1.308580 A    
O4    Cu2   1.925595 S    
C57   H46   1.109426 S    
C6    C10   1.542817 S    
C53   H36   1.106958 S    
C54   H45   1.109528 S    
N1    C41   1.366235 A    
C19   C20   1.391751 A    
O2    C1    1.309904 A    
O8    C4    1.303847 A    
C9    O14   1.412277 S    
C43   H15   1.110999 S    
C52   H40   1.109625 S    
C46   H21   1.106470 S    
C38   C39   1.375132 A    
C25   C26   1.395839 A    
C17   C29   1.402400 A    
C49   C50   1.531098 S    
C45   H18   1.108250 S    
C19   C30   1.414933 A    
C31   O11   1.387415 S    
H3    C26   1.083528 S    
O15   C59   1.409280 S    
C17   O15   1.384173 S    
C56   H49   1.109254 S    
C12   C14   1.548391 S    
C24   C28   1.401581 A    
Cu1   O5    1.921302 S    
C31   C38   1.411739 A    
C9    C10   1.532711 S    
Cu2   O6    1.939323 S    
O11   C47   1.416396 S    
C10   C13   1.548697 S    
N1    C42   1.357514 A    
C52   H39   1.109608 S    
C23   C30   1.425632 A    
C51   H33   1.109478 S    
C6    C43   1.531038 S    
C55   H43   1.110351 S    
C43   H14   1.108436 S    
Cu2   N2    2.038826 S    
