data_mof_unit_29524.cif
_audit_creation_date              2012-12-10T18:25:46-0500
_audit_creation_method            fapswitch 2.2
_symmetry_space_group_name_H-M    P1
_symmetry_Int_Tables_number       1
_space_group_crystal_system       triclinic
_cell_length_a                    23.370666
_cell_length_b                    15.842084
_cell_length_c                    14.648844
_cell_angle_alpha                 90.312324
_cell_angle_beta                  90.557358
_cell_angle_gamma                 90.024849
_cell_volume                      5423.25096298

loop_
_atom_site_label
_atom_site_type_symbol
_atom_type_description
_atom_site_fract_x
_atom_site_fract_y
_atom_site_fract_z
_atom_type_partial_charge
C1    C     C_R   0.500016 0.339512 0.499736 0.785346
C2    C     C_R   0.694413 0.587448 0.450549 -0.115822
C3    C     C_R   0.243181 0.426540 0.414247 0.442059
C4    C     C_R   0.754742 0.594407 0.440805 0.437072
C5    C     C_R   0.207801 0.470129 0.476199 0.086903
C6    C     C_R   0.791023 0.537316 0.487315 0.085352
C7    C     C_3   0.548495 0.971701 0.541761 0.517914
C8    C     C_3   0.454593 0.027831 0.456837 0.520068
C9    C     C_3   0.548789 0.026300 0.454645 -0.038447
C10   C     C_3   0.454307 0.973288 0.543984 -0.033372
C11   C     C_1   0.500937 0.249967 0.499163 -0.184390
C12   C     C_R   0.499514 0.660429 0.500217 0.785328
C13   C     C_1   0.500000 0.749867 0.500513 -0.184528
C14   C     C_3   0.502667 0.027996 0.586794 -0.030847
C15   C     C_3   0.500434 0.971518 0.411877 -0.029603
C16   C     C_R   0.390576 0.495314 0.499393 0.862004
C17   C     C_R   0.609297 0.503615 0.500456 0.871629
C18   C     C_3   0.502542 0.082822 0.499330 -0.068258
C19   C     C_3   0.500563 0.916853 0.499355 -0.066055
C20   C     C_1   0.501811 0.174497 0.498946 0.004771
C21   C     C_1   0.500412 0.825272 0.500199 0.004472
C22   C     C_3   0.477327 0.571229 0.969208 0.422109
C23   C     C_R   0.231882 0.511304 0.553062 0.383340
C24   C     C_3   0.519585 0.424757 0.029506 0.411074
C25   C     C_3   0.444650 0.507041 0.028428 0.403319
C26   C     C_3   0.552178 0.488954 0.970294 0.409830
C27   C     C_3   0.531310 0.563076 0.030523 -0.119154
C28   C     C_3   0.465666 0.432988 0.967611 -0.124049
C29   C     C_3   0.498591 0.498672 0.091438 -0.219048
C30   C     C_3   0.498664 0.497940 0.907702 -0.227936
C31   C     C_1   0.499356 0.499412 0.194216 0.236158
C32   C     C_1   0.499540 0.499299 0.805528 0.281507
C33   C     C_R   0.887366 0.599481 0.483375 0.676158
C34   C     C_R   0.768009 0.478988 0.549425 0.390022
C35   C     C_R   0.111437 0.410480 0.456180 0.672350
C36   C     C_R   0.872802 0.457569 0.434885 0.642930
C37   C     C_R   0.125340 0.558998 0.447770 0.645697
C38   C     C_R   0.932330 0.443565 0.431661 -0.153757
C39   C     C_R   0.065761 0.573048 0.448292 -0.156216
C40   C     C_R   0.969135 0.513442 0.443646 -0.148445
C41   C     C_R   0.029058 0.502441 0.441920 -0.147875
C42   C     C_R   0.946008 0.593884 0.461625 -0.187295
C43   C     C_R   0.052296 0.420418 0.438060 -0.184332
C44   C     C_R   0.955782 0.362098 0.418109 0.410648
C45   C     C_R   0.291880 0.521786 0.559923 0.350797
C46   C     C_R   0.042135 0.655097 0.455882 0.409951
C47   C     C_R   0.015541 0.350812 0.420418 0.437761
C48   C     C_R   0.982431 0.665413 0.461419 0.438655
C49   C     C_3   0.908338 0.265308 0.327641 -0.191332
C50   C     C_3   0.087171 0.768280 0.390771 -0.188207
C51   C     C_3   0.347965 0.526284 0.996633 -0.291428
C52   C     C_3   0.648867 0.470228 0.003321 -0.274998
C53   C     C_3   0.437859 0.703111 0.999919 -0.315195
C54   C     C_3   0.559212 0.293007 0.999096 -0.306860
C55   C     C_3   0.431184 0.361755 0.921739 -0.358935
C56   C     C_R   0.708207 0.466785 0.553077 0.354516
C57   C     C_3   0.401863 0.303662 0.990226 -0.335587
C58   C     C_3   0.373102 0.229229 0.941803 -0.869891
C59   C     C_3   0.568043 0.636840 0.064755 -0.382370
C60   C     C_3   0.593519 0.686752 0.985108 -0.290260
C61   C     C_3   0.628873 0.761673 0.019092 -0.893005
C62   C     C_3   0.055634 0.263633 0.315612 -0.277443
C63   C     C_3   0.939510 0.769801 0.380621 -0.283412
C64   C     C_3   0.197292 0.620079 0.644722 -0.158327
C65   C     C_3   0.802837 0.351832 0.606359 -0.148812
C66   C     C_3   0.331699 0.648741 0.601771 -0.321703
C67   C     C_R   0.327762 0.481479 0.495928 -0.289673
C68   C     C_3   0.666108 0.336223 0.563986 -0.333878
C69   C     C_3   0.341587 0.367891 0.373293 -0.309795
C70   C     C_3   0.352182 0.398785 0.275909 -0.258396
C71   C     C_3   0.397062 0.344047 0.229333 -0.827632
C72   C     C_3   0.654792 0.657442 0.416788 -0.285122
C73   C     C_3   0.647886 0.659853 0.312747 -0.292106
C74   C     C_3   0.612386 0.736604 0.284908 -0.923438
C75   C     C_3   0.217972 0.304695 0.335249 -0.250359
C76   C     C_3   0.776374 0.734011 0.409477 -0.242649
C77   C     C_3   0.601439 0.063594 0.407854 -0.366615
C78   C     C_R   0.671613 0.518845 0.500756 -0.281548
C79   C     C_3   0.639247 0.995296 0.364628 -0.347539
C80   C     C_3   0.698220 0.030030 0.341599 -0.865106
C81   C     C_3   0.402002 0.934731 0.590598 -0.381081
C82   C     C_3   0.363741 0.001731 0.634920 -0.338016
C83   C     C_3   0.305663 0.964810 0.659720 -0.852963
C84   C     C_3   0.637543 0.991594 0.611361 -0.341846
C85   C     C_3   0.365617 0.007954 0.387073 -0.353195
C86   C     C_3   0.498328 0.931014 0.316502 -0.383616
C87   C     C_3   0.493326 0.996673 0.240410 -0.305732
C88   C     C_3   0.493322 0.954336 0.146565 -0.891486
C89   C     C_R   0.303470 0.427704 0.427491 -0.112394
C90   C     C_3   0.505097 0.067439 0.682690 -0.379495
C91   C     C_3   0.510488 0.000679 0.757684 -0.306830
C92   C     C_3   0.512771 0.041625 0.852170 -0.890439
Cu1   Cu    Cu3+1 0.500010 0.500000 0.590220 1.010755
Cu2   Cu    Cu3+1 0.499990 0.500000 0.409780 0.949166
H1    H     H_    0.916678 0.313956 0.274512 0.113948
H2    H     H_    0.632221 0.446382 0.069273 0.175839
H3    H     H_    0.517280 0.991997 0.905005 0.250205
H4    H     H_    0.473465 0.956955 0.754690 0.220113
H5    H     H_    0.550061 0.963135 0.748039 0.254611
H6    H     H_    0.542091 0.111257 0.687102 0.188987
H7    H     H_    0.466057 0.105996 0.693122 0.194691
H8    H     H_    0.669991 0.532048 0.015099 0.166293
H9    H     H_    0.682219 0.425314 0.980348 0.189966
H10   H     H_    0.471463 0.751782 0.010131 0.169460
H11   H     H_    0.428189 0.673456 0.066745 0.181982
H12   H     H_    0.398487 0.735983 0.976672 0.183298
H13   H     H_    0.572319 0.323299 0.934231 0.187489
H14   H     H_    0.524374 0.247221 0.984667 0.169008
H15   H     H_    0.596506 0.256595 0.024746 0.182767
H16   H     H_    0.339936 0.252064 0.893045 0.263296
H17   H     H_    0.862284 0.248664 0.322887 0.193526
H18   H     H_    0.405254 0.191396 0.904198 0.247999
H19   H     H_    0.352319 0.188095 0.992903 0.246034
H20   H     H_    0.433526 0.279009 0.040278 0.245782
H21   H     H_    0.368656 0.339071 0.027914 0.235964
H22   H     H_    0.398503 0.390058 0.875663 0.199552
H23   H     H_    0.460693 0.324243 0.878531 0.194479
H24   H     H_    0.601527 0.806284 0.057856 0.248736
H25   H     H_    0.664681 0.739699 0.063350 0.260795
H26   H     H_    0.647056 0.795581 0.959904 0.256649
H27   H     H_    0.621313 0.645327 0.943371 0.251977
H28   H     H_    0.932629 0.206940 0.312140 0.162650
H29   H     H_    0.558965 0.710666 0.939724 0.251147
H30   H     H_    0.540994 0.678860 0.107136 0.195681
H31   H     H_    0.602912 0.611793 0.108867 0.192816
H32   H     H_    0.018812 0.259464 0.267641 0.128283
H33   H     H_    0.080943 0.204821 0.308266 0.185280
H34   H     H_    0.082929 0.317521 0.294525 0.146845
H35   H     H_    0.974461 0.774492 0.330179 0.122464
H36   H     H_    0.919103 0.832788 0.386218 0.187952
H37   H     H_    0.906997 0.724711 0.353585 0.161212
H38   H     H_    0.209872 0.660449 0.586429 0.173278
H39   H     H_    0.081188 0.729622 0.327433 0.115412
H40   H     H_    0.226148 0.631318 0.704134 0.182098
H41   H     H_    0.153828 0.640430 0.665155 0.179309
H42   H     H_    0.787456 0.326628 0.539486 0.168107
H43   H     H_    0.775822 0.327691 0.662346 0.182628
H44   H     H_    0.846594 0.326544 0.617472 0.180905
H45   H     H_    0.306342 0.672417 0.542303 0.128572
H46   H     H_    0.377715 0.649359 0.584311 0.185568
H47   H     H_    0.325898 0.694436 0.658581 0.177951
H48   H     H_    0.687870 0.325487 0.497468 0.132766
H49   H     H_    0.619344 0.340658 0.552170 0.178226
H50   H     H_    0.132126 0.790814 0.391537 0.189320
H51   H     H_    0.673709 0.279465 0.606422 0.170209
H52   H     H_    0.379329 0.280444 0.213859 0.239564
H53   H     H_    0.435879 0.337390 0.272947 0.279140
H54   H     H_    0.410176 0.374601 0.165257 0.263467
H55   H     H_    0.311983 0.396734 0.234984 0.239697
H56   H     H_    0.367340 0.465205 0.277088 0.252771
H57   H     H_    0.382983 0.357910 0.409070 0.194746
H58   H     H_    0.324187 0.303102 0.372513 0.176462
H59   H     H_    0.632201 0.795567 0.311778 0.249841
H60   H     H_    0.568137 0.731094 0.311207 0.271196
H61   H     H_    0.059547 0.825121 0.388200 0.167513
H62   H     H_    0.610402 0.741134 0.209780 0.252944
H63   H     H_    0.690089 0.663518 0.279054 0.248203
H64   H     H_    0.626055 0.601487 0.288406 0.226022
H65   H     H_    0.611769 0.652455 0.446738 0.185910
H66   H     H_    0.669539 0.719046 0.443986 0.178327
H67   H     H_    0.227952 0.275695 0.402804 0.174118
H68   H     H_    0.247632 0.280164 0.282761 0.148449
H69   H     H_    0.175128 0.282545 0.314133 0.187887
H70   H     H_    0.766339 0.741337 0.483423 0.174145
H71   H     H_    0.745247 0.770078 0.367475 0.151398
H72   H     H_    0.332737 0.463385 0.973846 0.168181
H73   H     H_    0.818201 0.764462 0.398367 0.193522
H74   H     H_    0.694146 0.083877 0.293711 0.260580
H75   H     H_    0.720809 0.051397 0.404676 0.251282
H76   H     H_    0.724094 0.979766 0.308742 0.242046
H77   H     H_    0.644510 0.940906 0.411487 0.239245
H78   H     H_    0.619033 0.971972 0.300528 0.219402
H79   H     H_    0.587271 0.108715 0.354523 0.193697
H80   H     H_    0.626295 0.100346 0.459376 0.188798
H81   H     H_    0.282647 0.942823 0.597278 0.251103
H82   H     H_    0.311225 0.910949 0.707243 0.253192
H83   H     H_    0.362548 0.562842 0.936687 0.199986
H84   H     H_    0.279385 0.013981 0.693638 0.252303
H85   H     H_    0.384352 0.025775 0.698385 0.218936
H86   H     H_    0.357091 0.055849 0.588139 0.244035
H87   H     H_    0.377287 0.898148 0.538754 0.190184
H88   H     H_    0.416623 0.889266 0.643294 0.193905
H89   H     H_    0.621729 0.057392 0.618850 0.138057
H90   H     H_    0.672519 0.990286 0.560801 0.185106
H91   H     H_    0.656183 0.972814 0.678134 0.190718
H92   H     H_    0.330989 0.008522 0.438245 0.186533
H93   H     H_    0.381594 0.942366 0.378504 0.144424
H94   H     H_    0.310630 0.560153 0.025242 0.185441
H95   H     H_    0.346466 0.027306 0.320856 0.184234
H96   H     H_    0.533847 0.919040 0.136391 0.252180
H97   H     H_    0.456619 0.910085 0.139739 0.252078
H98   H     H_    0.489488 0.003106 0.092683 0.249487
H99   H     H_    0.453059 0.033080 0.247876 0.249966
H100  H     H_    0.529687 0.041533 0.244323 0.220672
H101  H     H_    0.537407 0.892395 0.307151 0.198663
H102  H     H_    0.461396 0.887077 0.312223 0.188342
H103  H     H_    0.549942 0.085138 0.857861 0.253251
H104  H     H_    0.472784 0.077356 0.865020 0.250231
N1    N     N_R   0.851526 0.532583 0.466866 -0.413796
N2    N     N_R   0.147002 0.479256 0.458249 -0.412403
N3    N     N_1   0.499980 0.500000 0.274190 -0.165540
N4    N     N_1   0.500020 0.500000 0.725810 -0.151215
O1    O     O_R   0.500010 0.379080 0.576170 -0.576917
O2    O     O_2   0.132576 0.333504 0.475578 -0.506027
O3    O     O_2   0.836160 0.396868 0.406801 -0.558229
O4    O     O_2   0.161655 0.624242 0.437219 -0.554291
O5    O     O_3   0.920751 0.291488 0.418084 -0.532012
O6    O     O_3   0.077240 0.724081 0.472624 -0.529456
O7    O     O_3   0.389754 0.518286 0.066208 -0.594923
O8    O     O_3   0.607244 0.477500 0.933242 -0.572510
O9    O     O_3   0.454610 0.645872 0.930874 -0.580654
O10   O     O_3   0.542324 0.350217 0.068016 -0.580515
O11   O     O_3   0.037325 0.270589 0.407050 -0.507926
O12   O     O_R   0.499990 0.620920 0.423830 -0.581724
O13   O     O_3   0.960433 0.746247 0.467713 -0.508988
O14   O     O_3   0.195323 0.533031 0.623793 -0.560772
O15   O     O_3   0.805565 0.440822 0.610820 -0.557131
O16   O     O_3   0.315040 0.567639 0.632167 -0.544476
O17   O     O_3   0.685970 0.408015 0.612907 -0.535259
O18   O     O_3   0.218676 0.394010 0.334733 -0.575102
O19   O     O_3   0.778786 0.649324 0.378213 -0.580896
O20   O     O_3   0.595148 0.932179 0.586281 -0.579267
O21   O     O_3   0.408034 0.067341 0.412052 -0.581632
O22   O     O_R   0.500000 0.379080 0.423800 -0.577419
O23   O     O_R   0.500000 0.620920 0.576200 -0.564704
O24   O     O_R   0.417890 0.499980 0.576200 -0.537448
O25   O     O_R   0.582110 0.500020 0.423800 -0.584284
O26   O     O_R   0.417870 0.499970 0.423830 -0.585926
O27   O     O_R   0.582130 0.500030 0.576170 -0.532399
O28   O     O_2   0.867165 0.669426 0.524519 -0.501378

loop_
_geom_bond_atom_site_label_1
_geom_bond_atom_site_label_2
_ccdc_geom_bond_type
C85   H93   S    
C88   H97   S    
C71   H53   S    
C87   C88   S    
C52   H9    S    
C34   C56   A    
Cu1   Cu2   S    
C23   C45   A    
C83   H81   S    
C61   H25   S    
C73   C74   S    
C14   C18   S    
C82   H86   S    
C2    C4    A    
C5    C23   A    
C70   H56   S    
C36   N1    A    
C81   H87   S    
C81   C82   S    
C57   H21   S    
C34   O15   S    
C39   C41   A    
C66   H47   S    
C25   C28   S    
C15   C19   S    
C16   O24   A    
C26   C27   S    
C77   H80   S    
C72   H65   S    
C54   H13   S    
C76   H73   S    
C1    O22   A    
C58   H18   S    
C33   C42   A    
C80   H75   S    
C19   C21   S    
C24   C26   S    
Cu2   N3    S    
C55   H23   S    
C62   H33   S    
C92   H104  S    
C35   O2    S    
C37   N2    A    
C27   C29   S    
C55   H22   S    
C33   N1    A    
C53   H10   S    
C85   H95   S    
C4    O19   S    
C73   H63   S    
C67   C89   A    
C56   C78   A    
C74   H60   S    
C68   H49   S    
C75   H69   S    
C37   O4    S    
C63   H36   S    
C79   H77   S    
C24   C29   S    
C14   C90   S    
C51   H94   S    
C86   H102  S    
C53   H12   S    
C7    C14   S    
C66   H45   S    
C64   H38   S    
C3    O18   S    
C22   C25   S    
C1    C11   S    
C82   H85   S    
C45   C67   A    
C58   H19   S    
C68   H48   S    
C70   C71   S    
C80   H76   S    
C30   C32   S    
C35   C43   A    
C50   H61   S    
C44   C47   A    
Cu2   O26   S    
C49   H17   S    
C65   H43   S    
C40   C42   A    
C71   H54   S    
C64   H41   S    
C59   C60   S    
C38   C40   A    
C83   H82   S    
C61   H26   S    
Cu2   O22   S    
C45   O16   S    
C41   C43   A    
C84   H91   S    
C60   H27   S    
C70   H55   S    
C81   H88   S    
C2    C72   S    
Cu1   O24   S    
C90   H6    S    
C35   N2    A    
C28   C55   S    
C50   H50   S    
C92   H3    S    
C5    N2    S    
C64   H40   S    
C23   O14   S    
C77   C79   S    
C25   C29   S    
C37   C39   A    
C46   C48   A    
C11   C20   T    
Cu2   O12   S    
C31   N3    T    
C13   C21   T    
C69   H57   S    
C49   O5    S    
C84   H90   S    
C68   O17   S    
C75   H68   S    
C87   H99   S    
C4    C6    A    
C10   C14   S    
C91   C92   S    
C62   H32   S    
C7    O20   S    
C17   O27   A    
C86   C87   S    
C42   C48   A    
C85   H92   S    
C73   H64   S    
C44   O5    S    
C8    C18   S    
C6    C34   A    
C54   H15   S    
C60   C61   S    
C79   H78   S    
C60   H29   S    
C88   H96   S    
C90   H7    S    
C38   C44   A    
C2    C78   A    
Cu1   O23   S    
C86   H101  S    
C51   O7    S    
C52   O8    S    
C10   C19   S    
C53   O9    S    
C52   H8    S    
C22   O9    S    
C74   H62   S    
C76   H71   S    
C26   O8    S    
C16   C67   S    
C9    C77   S    
C49   H1    S    
C25   O7    S    
Cu1   N4    S    
C85   O21   S    
C8    O21   S    
Cu2   O25   S    
C39   C46   A    
C65   H44   S    
C8    C10   S    
C40   C41   A    
C26   C30   S    
C8    C15   S    
C63   H37   S    
C22   C27   S    
C55   C57   S    
C76   O19   S    
C62   O11   S    
C76   H70   S    
C59   H31   S    
C90   C91   S    
C33   O28   S    
C1    O1    A    
C46   O6    S    
Cu1   O27   S    
C59   H30   S    
C7    C9    S    
C16   O26   A    
C77   H79   S    
C22   C30   S    
C83   H84   S    
C61   H24   S    
C58   H16   S    
C69   H58   S    
C64   O14   S    
C84   H89   S    
C12   O12   A    
C24   C28   S    
C87   H100  S    
C72   C73   S    
C3    C5    A    
C50   H39   S    
C15   C86   S    
C57   H20   S    
C62   H34   S    
C88   H98   S    
C69   C89   S    
C54   O10   S    
C10   C81   S    
C7    C19   S    
C72   H66   S    
C54   H14   S    
C3    C89   A    
C91   H5    S    
C28   C30   S    
C9    C15   S    
C66   O16   S    
C84   O20   S    
C65   O15   S    
C17   O25   A    
C12   O23   A    
C6    N1    S    
C75   O18   S    
C49   H28   S    
C47   O11   S    
C36   C38   A    
C17   C78   S    
C75   H67   S    
C52   H2    S    
C18   C20   S    
C36   O3    S    
C63   H35   S    
C91   H4    S    
C32   N4    T    
C69   C70   S    
Cu1   O1    S    
C48   O13   S    
C65   H42   S    
C79   C80   S    
C53   H11   S    
C9    C18   S    
C71   H52   S    
C66   H46   S    
C12   C13   S    
C74   H59   S    
C29   C31   S    
C82   C83   S    
C24   O10   S    
C51   H72   S    
C27   C59   S    
C63   O13   S    
C57   C58   S    
C51   H83   S    
C43   C47   A    
C80   H74   S    
C56   O17   S    
C68   H51   S    
C92   H103  S    
C50   O6    S    
