data_mof_unit_7473.cif
_audit_creation_date              2012-12-10T18:03:33-0500
_audit_creation_method            fapswitch 2.2
_symmetry_space_group_name_H-M    P1
_symmetry_Int_Tables_number       1
_space_group_crystal_system       triclinic
_cell_length_a                    10.790393
_cell_length_b                    9.517003
_cell_length_c                    19.436834
_cell_angle_alpha                 90.029354
_cell_angle_beta                  90.154146
_cell_angle_gamma                 90.02044
_cell_volume                      1996.00368058

loop_
_atom_site_label
_atom_site_type_symbol
_atom_type_description
_atom_site_fract_x
_atom_site_fract_y
_atom_site_fract_z
_atom_type_partial_charge
C1    C     C_R   0.871125 0.500016 0.500003 -0.409590
C2    C     C_R   0.128875 0.499981 0.499975 -0.409602
C3    C     C_R   0.597236 0.564369 0.964437 -0.107562
C4    C     C_R   0.402761 0.435630 0.035563 -0.107562
C5    C     C_R   0.596973 0.564395 0.036089 -0.106992
C6    C     C_R   0.403024 0.435605 0.963912 -0.106992
C7    C     C_R   0.499735 0.500026 0.071925 0.178689
C8    C     C_R   0.500263 0.499973 0.928075 0.178682
C9    C     C_R   0.262560 0.499984 0.499973 0.812403
C10   C     C_R   0.737441 0.500016 0.500014 0.812388
C11   C     C_R   0.499866 0.499978 0.367584 0.810511
C12   C     C_R   0.500134 0.500022 0.632415 0.810529
C13   C     C_R   0.064617 0.438238 0.555654 0.389078
C14   C     C_R   0.935381 0.561757 0.444322 0.389087
C15   C     C_R   0.935892 0.438203 0.555659 0.381728
C16   C     C_R   0.064109 0.561783 0.444317 0.381762
C17   C     C_R   0.500952 0.372709 0.744313 -0.268694
C18   C     C_R   0.499034 0.627291 0.255687 -0.268712
C19   C     C_R   0.499958 0.372663 0.255613 -0.278365
C20   C     C_R   0.500052 0.627336 0.744387 -0.278394
C21   C     C_R   0.501117 0.371573 0.816484 0.371145
C22   C     C_R   0.498869 0.628427 0.183515 0.371161
C23   C     C_R   0.500046 0.371561 0.183438 0.367911
C24   C     C_R   0.499963 0.628438 0.816563 0.367915
C25   C     C_R   0.500489 0.499995 0.852462 0.011291
C26   C     C_R   0.499509 0.500004 0.147538 0.011287
C27   C     C_R   0.424587 0.074338 0.456317 -0.003101
C28   C     C_R   0.575413 0.925662 0.543682 -0.003120
C29   C     C_R   0.575419 0.074510 0.543682 -0.004147
C30   C     C_R   0.424581 0.925489 0.456318 -0.004158
C31   C     C_R   0.500379 0.500031 0.708065 -0.108928
C32   C     C_R   0.499620 0.499968 0.291935 -0.108892
Cu1   Cu    Cu3+1 0.500000 0.640660 0.500000 0.962161
Cu2   Cu    Cu3+1 0.500000 0.359340 0.500000 0.962235
H1    H     H_    0.364175 0.130387 0.421331 0.128997
H2    H     H_    0.635825 0.869612 0.578669 0.129001
H3    H     H_    0.635852 0.130702 0.578659 0.138967
H4    H     H_    0.364148 0.869298 0.421341 0.138953
H5    H     H_    0.501700 0.273933 0.716590 0.161289
H6    H     H_    0.498276 0.726067 0.283409 0.161280
H7    H     H_    0.500664 0.273875 0.283279 0.159915
H8    H     H_    0.499356 0.726123 0.716722 0.159920
H9    H     H_    0.673266 0.613613 0.937282 0.161121
H10   H     H_    0.326732 0.386387 0.062718 0.161118
H11   H     H_    0.672811 0.613647 0.063656 0.162431
H12   H     H_    0.327186 0.386354 0.936345 0.162434
N1    N     N_R   0.500000 0.852070 0.500000 -0.164631
N2    N     N_R   0.500000 0.147930 0.500000 -0.164631
O1    O     O_R   0.319640 0.618740 0.500000 -0.567553
O2    O     O_R   0.680360 0.381260 0.500000 -0.567489
O3    O     O_R   0.680360 0.618740 0.500000 -0.568020
O4    O     O_R   0.319640 0.381260 0.500000 -0.567903
O5    O     O_R   0.500020 0.618830 0.400190 -0.591321
O6    O     O_R   0.499980 0.381170 0.599810 -0.591270
O7    O     O_R   0.499980 0.618830 0.599810 -0.585816
O8    O     O_R   0.500020 0.381170 0.400190 -0.585817
O9    O     O_3   0.123340 0.380136 0.612353 -0.650662
H13   H     H_    0.210654 0.411228 0.614653 0.319234
O10   O     O_3   0.876671 0.619893 0.387626 -0.650713
H14   H     H_    0.789290 0.589048 0.385381 0.319308
O11   O     O_3   0.877715 0.379944 0.612336 -0.659608
H15   H     H_    0.790319 0.410591 0.614558 0.312547
O12   O     O_3   0.122289 0.620041 0.387639 -0.659606
H16   H     H_    0.209706 0.589474 0.385441 0.312556
O13   O     O_3   0.503996 0.246898 0.852900 -0.707513
H17   H     H_    0.504292 0.167059 0.820088 0.330830
O14   O     O_3   0.495977 0.753101 0.147100 -0.707510
H18   H     H_    0.495669 0.832942 0.179911 0.330830
O15   O     O_3   0.502863 0.246899 0.146957 -0.708306
H19   H     H_    0.503085 0.167045 0.179721 0.330401
O16   O     O_3   0.497155 0.753100 0.853043 -0.708313
H20   H     H_    0.496935 0.832956 0.820280 0.330402

loop_
_geom_bond_atom_site_label_1
_geom_bond_atom_site_label_2
_ccdc_geom_bond_type
C27   N2    A    
Cu1   O7    S    
C20   H8    S    
C28   N1    A    
Cu2   O8    S    
C1    C15   A    
C16   O12   S    
Cu1   O3    S    
C2    C16   A    
C23   O15   S    
Cu2   N2    S    
C19   C23   A    
C3    C8    A    
C11   O5    A    
C27   H1    S    
Cu1   Cu2   S    
C15   O11   S    
C14   O10   S    
O16   H20   S    
C11   O8    A    
C5    H11   S    
C27   C30   A    
C8    C25   S    
C9    O4    A    
C3    H9    S    
O9    H13   S    
O15   H19   S    
C7    C26   S    
C4    H10   S    
C4    C7    A    
Cu1   N1    S    
C19   C32   A    
C6    C8    A    
C28   C29   A    
C11   C32   S    
Cu2   O6    S    
C13   C15   A    
C12   C31   S    
Cu1   O5    S    
O11   H15   S    
C17   C31   A    
C14   C16   A    
C22   O14   S    
Cu2   O2    S    
C12   O7    A    
C18   C32   A    
C10   O3    A    
C29   N2    A    
Cu1   O1    S    
O14   H18   S    
C10   O2    A    
C17   H5    S    
C19   H7    S    
C30   N1    A    
O10   H14   S    
C13   O9    S    
C9    O1    A    
C24   C25   A    
C28   H2    S    
C4    C6    A    
O13   H17   S    
C22   C26   A    
C23   C26   A    
C29   H3    S    
C5    C7    A    
C2    C13   A    
C18   H6    S    
C21   C25   A    
C1    C14   A    
C6    H12   S    
C30   H4    S    
C21   O13   S    
C18   C22   A    
C2    C9    S    
Cu2   O4    S    
C20   C24   A    
C12   O6    A    
C1    C10   S    
O12   H16   S    
C24   O16   S    
C3    C5    A    
C20   C31   A    
C17   C21   A    
