data_mof_unit_32319.cif
_audit_creation_date              2012-12-11T20:55:20-0500
_audit_creation_method            fapswitch 2.2
_symmetry_space_group_name_H-M    P1
_symmetry_Int_Tables_number       1
_space_group_crystal_system       triclinic
_cell_length_a                    8.261471
_cell_length_b                    19.204736
_cell_length_c                    22.826363
_cell_angle_alpha                 100.615346
_cell_angle_beta                  89.965857
_cell_angle_gamma                 92.332429
_cell_volume                      3556.59928056

loop_
_atom_site_label
_atom_site_type_symbol
_atom_type_description
_atom_site_fract_x
_atom_site_fract_y
_atom_site_fract_z
_atom_type_partial_charge
Ba1   Ba    Ba6+2 0.157290 0.533910 0.474710 1.646159
Ba2   Ba    Ba6+2 0.652900 0.466090 0.525240 1.656260
C1    C     C_3   0.358170 0.699538 0.257019 -0.298893
C2    C     C_3   0.390274 0.680279 0.317573 0.337272
C3    C     C_3   0.484614 0.683848 0.618247 0.308184
C4    C     C_3   0.497996 0.764140 0.636094 -0.384178
C5    C     C_3   0.867895 0.285498 0.648904 0.352954
C6    C     C_3   0.863328 0.214145 0.668820 -0.360156
C7    C     C_3   0.377929 0.316217 0.682944 0.282293
C8    C     C_3   0.432973 0.308970 0.744933 -0.327574
C9    C     C_R   0.955991 0.197403 0.466198 -0.116993
C10   C     C_R   0.990615 0.271621 0.477100 0.029799
C11   C     C_R   0.130155 0.188472 0.548812 -0.141769
C12   C     C_3   0.923534 0.721173 0.345986 0.348101
C13   C     C_R   0.203547 0.254095 0.543240 0.037434
C14   C     C_R   0.685392 0.808973 0.448273 -0.167170
C15   C     C_R   0.614519 0.742670 0.452672 0.004901
C16   C     C_R   0.855770 0.800632 0.532050 -0.149909
C17   C     C_R   0.822536 0.726492 0.520827 0.063536
C18   C     C_R   0.014086 0.153823 0.505923 0.032463
C19   C     C_R   0.122796 0.298048 0.512566 -0.240259
C20   C     C_R   0.799039 0.843775 0.492012 0.003774
C21   C     C_R   0.694300 0.699057 0.483763 -0.248086
C22   C     C_R   0.229415 0.041146 0.535568 -0.079429
C23   C     C_3   0.959832 0.792369 0.327437 -0.357345
C24   C     C_R   0.324023 0.996006 0.560574 -0.081836
C25   C     C_R   0.277178 0.925313 0.553587 -0.066947
C26   C     C_R   0.132817 0.901843 0.524387 -0.082298
C27   C     C_R   0.015144 0.949124 0.513320 0.017851
C28   C     C_R   0.066280 0.022701 0.517696 0.049871
C29   C     C_R   0.853932 0.923302 0.496030 -0.006771
C30   C     C_R   0.746376 0.974547 0.481857 0.038326
C31   C     C_R   0.797406 0.047900 0.484651 -0.004260
C32   C     C_R   0.958855 0.074199 0.502602 0.001442
C33   C     C_R   0.583181 0.955096 0.465705 -0.121629
C34   C     C_3   0.818094 0.376240 0.343444 0.291328
C35   C     C_R   0.488339 0.997535 0.438337 -0.065717
C36   C     C_R   0.536345 0.067424 0.441054 0.181365
C37   C     C_R   0.679165 0.093582 0.470589 -0.089213
C38   C     C_R   0.642719 0.525041 0.335867 -0.304795
C39   C     C_R   0.380636 0.563859 0.947946 -0.025412
C40   C     C_R   0.330356 0.561108 0.888479 0.588292
C41   C     C_R   0.227005 0.441196 0.882604 0.575279
C42   C     C_R   0.278340 0.441854 0.941746 -0.021674
C43   C     C_R   0.355607 0.503627 0.974500 -0.051669
C44   C     C_R   0.456084 0.625443 0.981392 -0.076685
C45   C     C_3   0.795194 0.355591 0.276240 -0.360224
C46   C     C_R   0.506069 0.627207 0.040046 -0.075342
C47   C     C_R   0.483014 0.567312 0.067031 -0.017219
C48   C     C_R   0.407958 0.505246 0.034099 -0.052870
C49   C     C_R   0.255758 0.381944 0.968722 -0.075445
C50   C     C_R   0.309759 0.383183 0.026941 -0.073872
C51   C     C_R   0.386048 0.444693 0.060359 -0.024981
C52   C     C_R   0.441202 0.446874 0.119324 0.591872
C53   C     C_R   0.532465 0.568547 0.126363 0.571548
C54   C     C_2   0.060271 0.482277 0.773624 -0.065307
C55   C     C_3   0.017636 0.486772 0.709692 -0.049608
C56   C     C_3   0.000727 0.634383 0.659901 0.301909
C57   C     C_1   0.301989 0.514176 0.694701 0.008169
C58   C     C_2   0.342357 0.513819 0.750760 -0.100632
C59   C     C_2   0.214858 0.497310 0.793811 0.207281
C60   C     C_R   0.708752 0.542812 0.236186 -0.090369
C61   C     C_R   0.749562 0.549952 0.296514 -0.026113
C62   C     C_R   0.499168 0.488621 0.315012 0.032552
C63   C     C_R   0.453306 0.484115 0.255006 -0.109082
C64   C     C_R   0.556957 0.512126 0.214757 0.195329
C65   C     C_2   0.167431 0.481569 0.671405 -0.286388
C66   C     C_3   0.038345 0.664986 0.725106 -0.362662
C67   C     C_3   0.271194 0.313844 0.374880 0.307968
C68   C     C_3   0.190437 0.252414 0.331690 -0.315595
H1    H     H_    0.320884 0.630294 0.320321 0.092642
H2    H     H_    0.700224 0.312461 0.265681 0.152347
H3    H     H_    0.757980 0.401547 0.257314 0.068723
H4    H     H_    0.910538 0.337143 0.255011 0.117727
H5    H     H_    0.114613 0.617172 0.637281 0.021499
H6    H     H_    0.912816 0.588642 0.656802 0.034289
H7    H     H_    0.118059 0.713568 0.728405 0.145150
H8    H     H_    0.101621 0.626527 0.746540 0.081910
H9    H     H_    0.924244 0.678685 0.749502 0.120599
H10   H     H_    0.177014 0.348882 0.396069 0.015004
H11   H     H_    0.336099 0.293444 0.410328 0.059403
H12   H     H_    0.239286 0.724023 0.256051 0.146891
H13   H     H_    0.122044 0.272941 0.297122 0.124256
H14   H     H_    0.106091 0.221359 0.355728 0.098890
H15   H     H_    0.283422 0.217013 0.309037 0.157002
H16   H     H_    0.521822 0.671513 0.321028 -0.061220
H17   H     H_    0.355985 0.650913 0.222310 0.112761
H18   H     H_    0.605696 0.664442 0.604159 0.015808
H19   H     H_    0.398553 0.670455 0.580129 0.072779
H20   H     H_    0.587443 0.779742 0.672946 0.133298
H21   H     H_    0.538277 0.787801 0.597401 0.056773
H22   H     H_    0.378203 0.784878 0.650869 0.123376
H23   H     H_    0.454267 0.737561 0.246794 0.121875
H24   H     H_    0.920129 0.790053 0.280620 0.127845
H25   H     H_    0.760027 0.287403 0.620414 0.109399
H26   H     H_    0.978878 0.290614 0.622909 -0.045293
H27   H     H_    0.755339 0.209171 0.696986 0.141014
H28   H     H_    0.856151 0.170698 0.629286 0.071676
H29   H     H_    0.974553 0.209067 0.694761 0.120379
H30   H     H_    0.245075 0.304346 0.678811 -0.011524
H31   H     H_    0.405305 0.371798 0.677734 0.063068
H32   H     H_    0.376592 0.349640 0.778551 0.121954
H33   H     H_    0.566606 0.317051 0.749055 0.151550
H34   H     H_    0.967476 0.724689 0.392540 0.062753
H35   H     H_    0.397241 0.255455 0.753627 0.119654
H36   H     H_    0.881982 0.175357 0.427726 0.083937
H37   H     H_    0.169022 0.164817 0.585558 0.059896
H38   H     H_    0.643451 0.833680 0.412567 0.077798
H39   H     H_    0.930439 0.822978 0.570312 0.067397
H40   H     H_    0.166997 0.352199 0.514280 0.062033
H41   H     H_    0.650032 0.644919 0.482111 0.067099
H42   H     H_    0.293244 0.087990 0.527435 0.104980
H43   H     H_    0.443722 0.013708 0.577876 0.081509
H44   H     H_    0.359458 0.887744 0.565683 0.082774
H45   H     H_    0.790427 0.710394 0.343501 -0.049079
H46   H     H_    0.116691 0.846236 0.509690 0.131556
H47   H     H_    0.521974 0.908478 0.475666 0.089464
H48   H     H_    0.369533 0.978239 0.421068 0.109082
H49   H     H_    0.692300 0.149627 0.482700 0.136594
H50   H     H_    0.290667 0.335761 0.045839 0.125139
H51   H     H_    0.197245 0.333574 0.944698 0.123873
H52   H     H_    0.563353 0.675797 0.064197 0.124612
H53   H     H_    0.795670 0.560648 0.206080 0.118731
H54   H     H_    0.476854 0.672633 0.962299 0.125409
H55   H     H_    0.895044 0.834779 0.356614 0.074229
H56   H     H_    0.467101 0.524872 0.765561 0.109954
H57   H     H_    0.964363 0.472956 0.804137 0.101592
H58   H     H_    0.338041 0.458380 0.239826 0.130533
H59   H     H_    0.677250 0.529219 0.382135 0.079285
H60   H     H_    0.165264 0.451367 0.626189 0.062913
H61   H     H_    0.091562 0.806168 0.331322 0.149843
H62   H     H_    0.701626 0.393378 0.363832 0.032344
H63   H     H_    0.910417 0.420492 0.353058 0.062981
N1    N     N_R   0.256628 0.499901 0.856131 -0.428669
N2    N     N_R   0.509618 0.509014 0.152593 -0.423894
O1    O     O_2   0.108070 0.674980 0.540650 -0.467878
O2    O     O_3   0.383740 0.347859 0.342872 -0.625713
O3    O     O_3   0.003259 0.668346 0.307294 -0.594915
O4    O     O_2   0.702240 0.324970 0.459330 -0.433450
O5    O     O_3   0.948380 0.413820 0.464520 -0.497607
O6    O     O_3   0.443920 0.371740 0.566130 -0.467421
O7    O     O_3   0.868801 0.317071 0.364981 -0.634532
O8    O     O_3   0.358830 0.538360 0.571050 -0.481840
O9    O     O_3   0.852160 0.408490 0.597560 -0.491385
O10   O     O_2   0.686227 0.444810 0.697669 -0.491583
O11   O     O_3   0.870056 0.339850 0.699101 -0.597040
O12   O     O_3   0.861930 0.586170 0.535430 -0.485713
O13   O     O_3   0.451480 0.461630 0.428900 -0.479164
O14   O     O_2   0.599240 0.538720 0.642170 -0.457698
O15   O     O_3   0.429444 0.654530 0.667029 -0.632143
O16   O     O_2   0.536471 0.244216 0.527614 -0.474666
O17   O     O_3   0.461666 0.268636 0.640744 -0.608358
O18   O     O_2   0.350896 0.613513 0.865583 -0.592699
O19   O     O_2   0.157392 0.388118 0.854504 -0.597888
O20   O     O_2   0.430489 0.393005 0.140650 -0.596758
O21   O     O_2   0.594797 0.623158 0.154826 -0.616470
O22   O     O_3   0.366390 0.628250 0.433820 -0.478532
O23   O     O_2   0.289798 0.756307 0.478112 -0.500849
O24   O     O_3   0.932079 0.687180 0.634753 -0.636129
O25   O     O_3   0.340218 0.735090 0.362631 -0.598934
O26   O     O_2   0.211060 0.461230 0.357810 -0.473738
O27   O     O_3   0.958150 0.591500 0.402390 -0.485264
O28   O     O_2   0.080685 0.536723 0.296336 -0.495096
P1    P     P_3+3 0.933470 0.664380 0.557030 0.980089
P2    P     P_3+3 0.383600 0.440030 0.365120 0.994661
P3    P     P_3+3 0.947994 0.586007 0.325151 0.947004
P4    P     P_3+3 0.876840 0.335610 0.442930 0.986722
P5    P     P_3+3 0.856084 0.421345 0.675747 0.965505
P6    P     P_3+3 0.403950 0.717016 0.430984 0.936727
P7    P     P_3+3 0.418833 0.562050 0.645801 0.956886
P8    P     P_3+3 0.409618 0.282857 0.569896 0.950828
I1    I     I_    0.383973 0.133956 0.405760 -0.550272

loop_
_geom_bond_atom_site_label_1
_geom_bond_atom_site_label_2
_ccdc_geom_bond_type
C54   C59   D    
C38   H59   S    
C7    O17   S    
Ba2   O8    S    
Ba2   O9    S    
C39   C40   A    
C22   H42   S    
C16   H39   S    
C11   H37   S    
C34   H63   S    
C10   P4    S    
O2    P2    S    
C19   H40   S    
C56   H6    S    
C5    C6    S    
C55   P5    S    
O15   P7    S    
C51   C52   A    
C42   C43   A    
C5    H26   S    
C24   C25   A    
C31   C37   A    
C38   C61   A    
O9    P5    S    
C67   H10   S    
Ba2   O4    S    
C8    H33   S    
C33   C35   A    
C6    H29   S    
C22   C24   A    
Ba1   Ba2   S    
C56   O24   S    
C34   H62   S    
C46   H52   S    
C3    C4    S    
C37   H49   S    
C2    H16   S    
Ba2   O13   S    
C4    H21   S    
O6    P8    S    
O16   P8    D    
C54   C55   S    
C34   C45   S    
C16   C17   A    
C54   H57   S    
Ba1   O12   S    
C23   H55   S    
C6    H28   S    
C26   H46   S    
O22   P6    S    
O7    P4    S    
O27   P3    S    
C3    H18   S    
C61   P3    S    
C35   H48   S    
C12   O3    S    
Ba1   P1    S    
C14   C15   A    
C41   O19   D    
C59   N1    S    
O25   P6    S    
Ba1   O1    S    
C68   H14   S    
C7    C8    S    
C5    O11   S    
C18   C32   S    
Ba2   O14   S    
Ba1   O26   S    
C57   C58   D    
C67   O2    S    
O13   P2    S    
C44   H54   S    
C67   C68   S    
C1    H12   S    
C60   H53   S    
C62   P2    S    
C56   H5    S    
C53   N2    Am   
C66   H8    S    
C53   O21   D    
C44   C46   A    
C9    C18   A    
C48   C51   A    
C20   C29   S    
C60   C64   A    
C1    H17   S    
C49   C50   A    
C63   H58   S    
C8    H32   S    
C40   O18   D    
C36   C37   A    
C45   H3    S    
C52   O20   D    
O17   P8    S    
C28   C32   A    
Ba2   O12   S    
C47   C53   A    
C10   C19   A    
C3    O15   S    
O14   P7    D    
C58   C59   S    
C35   C36   A    
C41   N1    Am   
C17   C21   A    
C6    H27   S    
C30   C33   A    
C60   C61   A    
Ba1   O8    S    
C57   C65   D    
C12   H34   S    
C29   C30   A    
Ba1   P2    S    
C39   C44   A    
O28   P3    D    
C9    H36   S    
C31   C32   A    
C13   P8    S    
C1    H23   S    
C15   C21   A    
O4    P4    D    
C68   H13   S    
Ba1   O5    S    
C50   H50   S    
C42   C49   A    
C56   C66   S    
C46   C47   A    
Ba1   O27   S    
C47   C48   A    
C7    H30   S    
C11   C13   A    
C41   C42   A    
O26   P2    D    
C49   H51   S    
C33   H47   S    
C65   H60   S    
C1    C2    S    
C57   P7    S    
C5    H25   S    
C50   C51   A    
O1    P1    D    
C66   H7    S    
O11   P5    S    
C26   C27   A    
C14   C20   A    
C11   C18   A    
C16   C20   A    
O8    P7    S    
Ba1   O13   S    
C9    C10   A    
O23   P6    D    
C36   I1    S    
C21   H41   S    
C38   C62   A    
O3    P3    S    
C40   N1    Am   
Ba2   O5    S    
C62   C63   A    
C34   O7    S    
Ba1   O22   S    
C24   H43   S    
C23   H24   S    
C27   C29   A    
C4    H20   S    
C30   C31   A    
C55   C65   S    
C2    O25   S    
C43   C48   A    
O5    P4    S    
C4    H22   S    
C52   N2    Am   
C58   H56   S    
O12   P1    S    
C15   P6    S    
C17   P1    S    
C12   C23   S    
C45   H4    S    
C22   C28   A    
C45   H2    S    
C67   H11   S    
C14   H38   S    
C27   C28   A    
C64   N2    S    
C25   H44   S    
C13   C19   A    
C66   H9    S    
C7    H31   S    
C63   C64   A    
C25   C26   A    
Ba2   O6    S    
C39   C43   A    
O24   P1    S    
C8    H35   S    
C68   H15   S    
Ba2   P4    S    
C2    H1    S    
C3    H19   S    
C12   H45   S    
O10   P5    D    
C23   H61   S    
