data_mof_unit_7025.cif
_audit_creation_date              2012-12-10T17:43:32-0500
_audit_creation_method            fapswitch 2.2
_symmetry_space_group_name_H-M    P1
_symmetry_Int_Tables_number       1
_space_group_crystal_system       triclinic
_cell_length_a                    14.913841
_cell_length_b                    10.702516
_cell_length_c                    9.926838
_cell_angle_alpha                 91.222412
_cell_angle_beta                  90.277051
_cell_angle_gamma                 93.886699
_cell_volume                      1580.44307335

loop_
_atom_site_label
_atom_site_type_symbol
_atom_type_description
_atom_site_fract_x
_atom_site_fract_y
_atom_site_fract_z
_atom_type_partial_charge
C1    C     C_R   0.500139 0.260524 0.498924 0.900403
C2    C     C_R   0.181239 0.396150 0.449872 -0.255314
C3    C     C_R   0.231664 0.500228 0.502149 -0.132862
C4    C     C_R   0.327128 0.499111 0.499910 0.945500
C5    C     C_R   0.191971 0.598481 0.568802 0.345193
C6    C     C_R   0.644238 0.151079 0.638669 -0.205321
C7    C     C_R   0.704358 0.098059 0.724828 0.458185
C8    C     C_R   0.694745 0.970527 0.749263 -0.099669
C9    C     C_R   0.628503 0.894887 0.681490 -0.157680
C10   C     C_R   0.569359 0.946201 0.589014 0.099459
C11   C     C_R   0.573499 0.076520 0.574837 -0.011596
C12   C     C_R   0.911401 0.594965 0.576102 0.005402
C13   C     C_R   0.505914 0.128624 0.498038 -0.147404
C14   C     C_R   0.438380 0.053412 0.431663 0.376046
C15   C     C_R   0.441925 0.926122 0.431437 -0.159090
C16   C     C_R   0.504541 0.739811 0.502193 0.954446
C17   C     C_R   0.506535 0.872668 0.508289 -0.140371
C18   C     C_R   0.376083 0.340292 0.134649 -0.158291
C19   C     C_R   0.313551 0.262433 0.062482 -0.151634
C20   C     C_R   0.314499 0.260348 0.922857 0.395459
C21   C     C_R   0.377233 0.337563 0.855041 -0.177896
C22   C     C_R   0.439440 0.420252 0.925308 0.112407
C23   C     C_R   0.942543 0.280792 0.413892 0.331626
C24   C     C_R   0.439101 0.421009 0.069488 0.050645
C25   C     C_R   0.560176 0.575828 0.075177 0.553548
C26   C     C_R   0.558157 0.576482 0.930008 -0.217849
C27   C     C_R   0.672939 0.499604 0.500190 0.919990
C28   C     C_R   0.819966 0.603678 0.550743 0.348253
C29   C     C_R   0.768693 0.498589 0.502232 -0.163367
C30   C     C_R   0.807681 0.390088 0.461318 -0.196604
C31   C     C_R   0.900694 0.385619 0.465587 -0.007018
C32   C     C_R   0.952814 0.488898 0.523638 -0.067947
C33   C     C_3   0.698488 0.694599 0.084949 0.024883
C34   C     C_R   0.036279 0.279512 0.417509 0.442612
C35   C     C_3   0.768601 0.745915 0.186937 -0.588849
C36   C     C_3   0.108411 0.105541 0.476025 0.098192
C37   C     C_3   0.033953 0.020572 0.537625 -0.628398
C38   C     C_R   0.088267 0.387394 0.463424 -0.052572
C39   C     C_R   0.046527 0.489142 0.523435 -0.017261
C40   C     C_R   0.098603 0.593023 0.580058 0.025345
C41   C     C_R   0.056242 0.687813 0.648723 -0.223952
C42   C     C_R   0.963498 0.688907 0.648978 0.410727
Cl1   Cl    Cl    0.773997 0.750394 0.540796 -0.633070
Cl2   Cl    Cl    0.791484 0.192117 0.802746 -0.547423
Cl3   Cl    Cl    0.237236 0.159732 0.831920 -0.566542
Cl4   Cl    Cl    0.879606 0.150586 0.339895 -0.527967
Cl5   Cl    Cl    0.259920 0.730710 0.630053 -0.594783
Cl6   Cl    Cl    0.917541 0.800225 0.757865 -0.557071
Cl7   Cl    Cl    0.342885 0.112828 0.359686 -0.708063
H1    H     H_    0.653900 0.250433 0.622230 0.166903
H2    H     H_    0.215302 0.321358 0.401006 0.209371
H3    H     H_    0.094601 0.761427 0.704260 0.235263
H4    H     H_    0.684659 0.771405 0.015652 0.154320
H5    H     H_    0.727428 0.615831 0.028419 0.164992
H6    H     H_    0.786857 0.670112 0.254390 0.253717
H7    H     H_    0.829919 0.782524 0.133768 0.233343
H8    H     H_    0.741866 0.823177 0.247828 0.287261
H9    H     H_    0.142455 0.165668 0.556533 0.182704
H10   H     H_    0.159625 0.044674 0.435349 0.239152
H11   H     H_    0.001599 0.956938 0.459102 0.284350
H12   H     H_    0.740177 0.928974 0.818016 0.208125
H13   H     H_    0.063422 0.963615 0.616313 0.242401
H14   H     H_    0.982676 0.076958 0.585825 0.277043
H15   H     H_    0.626404 0.796247 0.701195 0.190466
H16   H     H_    0.390942 0.867945 0.376693 0.202909
H17   H     H_    0.374423 0.334948 0.241316 0.247737
H18   H     H_    0.264724 0.202563 0.115382 0.237628
H19   H     H_    0.375375 0.330023 0.747907 0.220460
H20   H     H_    0.764651 0.311376 0.423543 0.196616
H21   H     H_    0.603306 0.638789 0.874191 0.134956
N1    N     N_R   0.499150 0.498800 0.142780 -0.145759
N2    N     N_R   0.499120 0.498720 0.857170 -0.117507
O1    O     O_R   0.500000 0.316780 0.614690 -0.647076
O2    O     O_3   0.076117 0.174719 0.367789 -0.570661
O3    O     O_R   0.499990 0.316750 0.385360 -0.617110
O4    O     O_R   0.367850 0.499980 0.614680 -0.599837
O5    O     O_R   0.367840 0.499960 0.385350 -0.643622
O6    O     O_R   0.500010 0.683250 0.614640 -0.607791
O7    O     O_R   0.500000 0.683220 0.385310 -0.572320
O8    O     O_R   0.632160 0.500040 0.614650 -0.617742
O9    O     O_R   0.632150 0.500020 0.385320 -0.570018
O10   O     O_3   0.619046 0.654482 0.153282 -0.575744
Zn1   Zn    Zn3+2 0.500010 0.500020 0.653130 0.988724
Zn2   Zn    Zn3+2 0.499990 0.499980 0.346870 1.024286

loop_
_geom_bond_atom_site_label_1
_geom_bond_atom_site_label_2
_ccdc_geom_bond_type
C27   C29   S    
C9    H15   S    
C26   N2    A    
C41   C42   A    
C19   C20   A    
C36   H10   S    
C30   H20   S    
C37   H13   S    
C7    C8    A    
C5    Cl5   S    
C12   C28   A    
C18   C24   A    
C28   C29   A    
C36   H9    S    
O7    Zn2   S    
O3    Zn2   S    
C14   Cl7   S    
C10   C17   A    
C15   H16   S    
C18   C19   A    
C32   C39   A    
C12   C42   A    
O6    Zn1   S    
C8    C9    A    
C19   H18   S    
C25   N1    A    
C33   O10   S    
C41   H3    S    
C20   Cl3   S    
C8    H12   S    
C23   Cl4   S    
C21   C22   A    
C12   C32   A    
O8    Zn1   S    
O4    Zn1   S    
C22   N2    A    
C37   H14   S    
C33   H4    S    
C35   H6    S    
C1    O3    A    
C27   O9    A    
C27   O8    A    
C2    H2    S    
C6    C11   A    
C16   C17   S    
O5    Zn2   S    
C25   C26   A    
C23   C31   A    
C29   C30   A    
C2    C38   A    
C31   C32   A    
C30   C31   A    
C23   C34   A    
C42   Cl6   S    
C7    Cl2   S    
C6    H1    S    
C36   O2    S    
C34   O2    S    
C40   C41   A    
C21   H19   S    
C25   O10   S    
C26   H21   S    
C22   C24   A    
C1    C13   S    
C37   H11   S    
C3    C4    S    
C39   C40   A    
O9    Zn2   S    
N1    Zn2   S    
C9    C10   A    
C33   H5    S    
C15   C17   A    
C36   C37   S    
C35   H7    S    
C34   C38   A    
C3    C5    A    
C6    C7    A    
C18   H17   S    
C28   Cl1   S    
C35   H8    S    
C16   O7    A    
C1    O1    A    
C2    C3    A    
C4    O5    A    
C11   C13   A    
C38   C39   A    
C33   C35   S    
C16   O6    A    
C4    O4    A    
N2    Zn1   S    
C10   C11   A    
C20   C21   A    
C5    C40   A    
C14   C15   A    
C13   C14   A    
O1    Zn1   S    
C24   N1    A    
