data_mof_unit_34410.cif
_audit_creation_date              2012-12-10T17:35:03-0500
_audit_creation_method            fapswitch 2.2
_symmetry_space_group_name_H-M    P1
_symmetry_Int_Tables_number       1
_space_group_crystal_system       triclinic
_cell_length_a                    12.047937
_cell_length_b                    12.732654
_cell_length_c                    15.732058
_cell_angle_alpha                 90.89815
_cell_angle_beta                  87.055233
_cell_angle_gamma                 96.269329
_cell_volume                      2395.60887958

loop_
_atom_site_label
_atom_site_type_symbol
_atom_type_description
_atom_site_fract_x
_atom_site_fract_y
_atom_site_fract_z
_atom_type_partial_charge
C1    C     C_R   0.524241 0.700642 0.497948 0.889297
C2    C     C_R   0.540923 0.813510 0.500131 -0.157882
C3    C     C_R   0.599124 0.970772 0.580575 0.451019
C4    C     C_R   0.500591 0.499867 0.661348 0.904733
C5    C     C_R   0.603052 0.863850 0.564118 -0.188705
C6    C     C_R   0.472715 0.868106 0.451527 0.096128
C7    C     C_R   0.453383 0.970282 0.476153 -0.062840
C8    C     C_R   0.524422 0.024899 0.535443 -0.058180
C9    C     C_R   0.520719 0.132433 0.545909 -0.192309
C10   C     C_R   0.374666 0.130705 0.443206 0.342262
C11   C     C_R   0.366131 0.019888 0.442224 0.386807
C12   C     C_3   0.367316 0.496603 0.054922 0.347529
C13   C     C_R   0.950528 0.421870 0.403808 0.068353
C14   C     C_R   0.833783 0.422176 0.419393 -0.052923
C15   C     C_R   0.864751 0.537229 0.537931 0.517111
C16   C     C_R   0.475055 0.299114 0.498262 0.977935
C17   C     C_R   0.977317 0.515584 0.537811 -0.220360
C18   C     C_R   0.023563 0.470964 0.463703 -0.018949
C19   C     C_R   0.141405 0.476430 0.453161 0.061522
C20   C     C_R   0.162687 0.548449 0.591895 -0.015846
C21   C     C_R   0.046956 0.542014 0.606612 0.369006
C22   C     C_R   0.499525 0.501932 0.338694 0.918849
C23   C     C_3   0.492876 0.513399 0.083543 -0.136818
C24   C     C_3   0.373953 0.500514 0.953484 -0.227497
C25   C     C_3   0.568370 0.620662 0.948473 0.434174
C26   C     C_3   0.548658 0.623963 0.049009 0.088092
C27   C     C_1   0.497622 0.506531 0.250304 -0.033629
C28   C     C_3   0.501247 0.507801 0.916583 -0.254051
C29   C     C_3   0.563819 0.422686 0.046855 -0.270459
C30   C     C_3   0.548485 0.399879 0.949385 0.545230
C31   C     C_1   0.494682 0.511007 0.175349 0.210552
C32   C     C_1   0.501770 0.504236 0.825155 0.164992
C33   C     C_1   0.501725 0.501646 0.749908 0.020409
C34   C     C_R   0.454150 0.185723 0.495661 -0.272409
H1    H     H_    0.331442 0.427395 0.928646 0.237131
H2    H     H_    0.312062 0.386657 0.148509 0.195344
H3    H     H_    0.235033 0.378483 0.062806 0.255630
H4    H     H_    0.200900 0.165299 0.261367 0.386983
H5    H     H_    0.789178 0.979373 0.755638 0.412987
H6    H     H_    0.061411 0.967715 0.429280 0.397714
H7    H     H_    0.500926 0.802409 0.335218 0.227241
H8    H     H_    0.376632 0.756842 0.383572 0.259586
H9    H     H_    0.222684 0.555236 0.934205 0.258315
H10   H     H_    0.313675 0.575758 0.852553 0.226279
H11   H     H_    0.928750 0.330784 0.296131 0.211507
H12   H     H_    0.651934 0.456226 0.052826 0.261797
H13   H     H_    0.034217 0.427991 0.289522 0.198148
H14   H     H_    0.041989 0.462444 0.827839 0.405854
H15   H     H_    0.001313 0.756563 0.561112 0.372931
H16   H     H_    0.842849 0.763750 0.866527 0.416570
H17   H     H_    0.601617 0.767089 0.780385 0.415066
H18   H     H_    0.791042 0.643773 0.187191 0.397605
H19   H     H_    0.288584 0.193839 0.929470 0.418732
H20   H     H_    0.759836 0.220394 0.870722 0.408485
H21   H     H_    0.611187 0.277761 0.078946 0.276556
H22   H     H_    0.472401 0.285747 0.096702 0.285468
H23   H     H_    0.575398 0.177773 0.588661 0.241370
H24   H     H_    0.651534 0.818820 0.602922 0.250153
H25   H     H_    0.180637 0.445257 0.396251 0.177281
H26   H     H_    0.216761 0.569778 0.643561 0.185697
H27   H     H_    0.776317 0.381386 0.376161 0.162066
H28   H     H_    0.485553 0.678675 0.061664 0.209610
H29   H     H_    0.235863 0.529899 0.234276 0.348532
N1    N     N_R   0.207800 0.519340 0.515510 -0.140551
N2    N     N_R   0.792190 0.480660 0.484490 -0.157371
N3    N     N_3   0.317260 0.391399 0.082108 -0.393553
N4    N     N_3   0.432704 0.824213 0.372490 -0.342514
N5    N     N_3   0.307342 0.577959 0.919049 -0.293619
N6    N     N_3   0.994083 0.369562 0.329776 -0.400960
N7    N     N_3   0.551439 0.327366 0.099724 -0.400726
O1    O     O_R   0.421690 0.658830 0.504140 -0.615431
O2    O     O_2   0.155354 0.550980 0.088972 -0.287210
O3    O     O_3   0.285507 0.591911 0.212669 -0.535490
O4    O     O_2   0.200885 0.240783 0.422984 -0.252327
O5    O     O_2   0.370225 0.289533 0.333052 -0.376639
O6    O     O_3   0.246085 0.120757 0.293683 -0.446005
O7    O     O_2   0.765774 0.115938 0.622826 -0.262010
O8    O     O_2   0.609294 0.079168 0.727839 -0.216650
O9    O     O_3   0.752510 0.941198 0.707489 -0.497887
O10   O     O_2   0.236457 0.910432 0.328834 -0.186864
O11   O     O_2   0.220927 0.847318 0.475701 -0.320815
O12   O     O_R   0.609320 0.646410 0.494190 -0.541916
O13   O     O_3   0.128895 0.015216 0.443161 -0.452552
O14   O     O_2   0.000508 0.644007 0.753678 -0.196377
O15   O     O_2   0.876331 0.484593 0.718599 -0.179434
O16   O     O_3   0.074017 0.462119 0.768573 -0.560364
O17   O     O_2   0.745298 0.660079 0.640186 -0.230399
O18   O     O_2   0.807842 0.726490 0.497687 -0.313454
O19   O     O_3   0.951431 0.736216 0.611569 -0.464014
O20   O     O_2   0.792900 0.603820 0.976169 -0.175247
O21   O     O_2   0.734885 0.582188 0.829009 -0.196055
O22   O     O_3   0.766297 0.765927 0.892206 -0.444333
O23   O     O_R   0.406150 0.506210 0.627840 -0.641695
O24   O     O_2   0.400152 0.759147 0.932566 -0.182224
O25   O     O_2   0.587155 0.838059 0.933558 -0.143872
O26   O     O_3   0.525032 0.735806 0.797499 -0.545916
O27   O     O_2   0.722830 0.781161 0.067809 -0.132653
O28   O     O_2   0.602104 0.733286 0.192564 -0.314101
O29   O     O_3   0.745283 0.604874 0.143920 -0.522018
O30   O     O_2   0.458209 0.262976 0.829122 -0.246170
O31   O     O_2   0.503213 0.180385 0.959175 -0.171946
O32   O     O_3   0.321426 0.258317 0.958937 -0.593771
O33   O     O_2   0.684077 0.379445 0.803773 -0.211434
O34   O     O_R   0.593770 0.493790 0.617880 -0.550462
O35   O     O_2   0.785862 0.420995 0.932866 -0.222614
O36   O     O_3   0.699221 0.235993 0.912437 -0.444456
O37   O     O_R   0.390680 0.353590 0.505810 -0.552594
O38   O     O_R   0.578310 0.341170 0.495860 -0.625796
O39   O     O_R   0.406230 0.506210 0.382120 -0.604828
O40   O     O_R   0.593850 0.493790 0.372160 -0.626847
O41   O     O_2   0.297420 0.700287 0.075511 -0.148582
S1    S     S_3+6 0.274796 0.588876 0.106410 0.046388
S2    S     S_3+6 0.456426 0.274697 0.924459 0.067730
S3    S     S_3+6 0.682638 0.363954 0.898297 0.134580
S4    S     S_3+6 0.296514 0.199087 0.372906 0.073902
S5    S     S_3+6 0.682891 0.030897 0.661376 0.075834
S6    S     S_3+6 0.236603 0.944030 0.420868 0.108291
S7    S     S_3+6 0.994776 0.535594 0.713960 0.119501
S8    S     S_3+6 0.838374 0.666137 0.572752 0.100403
S9    S     S_3+6 0.717830 0.639137 0.911790 0.154610
S10   S     S_3+6 0.516932 0.740456 0.904635 0.130263
S11   S     S_3+6 0.657666 0.690053 0.113816 0.108801
Zn1   Zn    Zn3+2 0.374720 0.508290 0.506640 1.036603
Zn2   Zn    Zn3+2 0.625280 0.491710 0.493360 1.074062

loop_
_geom_bond_atom_site_label_1
_geom_bond_atom_site_label_2
_ccdc_geom_bond_type
O2    S1    D    
O31   S2    D    
O41   S1    D    
O37   Zn1   S    
C7    C8    A    
H7    N4    S    
H4    O6    S    
C25   C28   S    
C7    C11   A    
C12   C23   S    
C1    O1    A    
C13   N6    S    
O26   S10   S    
O36   S3    S    
C23   C29   S    
O1    Zn1   S    
C18   C19   A    
C3    S5    S    
H2    N3    S    
C23   C26   S    
H5    O9    S    
C15   N2    A    
O11   S6    D    
O6    S4    S    
C13   C18   A    
C1    C2    S    
N2    Zn2   S    
H13   N6    S    
C16   O37   A    
O40   Zn2   S    
O10   S6    D    
O19   S8    S    
C8    C9    A    
C22   O40   A    
C20   H26   S    
O7    S5    D    
C19   N1    A    
H17   O26   S    
C16   C34   S    
O25   S10   D    
C26   H28   S    
O9    S5    S    
H6    O13   S    
C2    C6    A    
O38   Zn2   S    
O12   Zn2   S    
C24   H1    S    
H20   O36   S    
C27   C31   T    
C24   C28   S    
O35   S3    D    
C28   C32   S    
O33   S3    D    
O16   S7    S    
C3    C8    A    
C24   N5    S    
O39   Zn1   S    
H29   O3    S    
C19   H25   S    
C1    O12   A    
C14   H27   S    
H11   N6    S    
C17   C21   A    
O20   S9    D    
C20   N1    A    
O17   S8    D    
C21   S7    S    
H19   O32   S    
C22   O39   A    
H3    N3    S    
C17   C18   A    
C10   C34   A    
O18   S8    D    
O29   S11   S    
C5    H24   S    
H16   O22   S    
C6    N4    S    
H22   N7    S    
C22   C27   S    
H8    N4    S    
H14   O16   S    
H10   N5    S    
C2    C5    A    
O5    S4    D    
O27   S11   D    
C11   S6    S    
C25   S9    S    
C12   S1    S    
O3    S1    S    
C29   N7    S    
C30   S3    S    
O28   S11   D    
C12   C24   S    
C4    C33   S    
O8    S5    D    
O30   S2    D    
O23   Zn1   S    
H15   O19   S    
C3    C5    A    
C15   C17   A    
C6    C7    A    
O34   Zn2   S    
N1    Zn1   S    
H9    N5    S    
H18   O29   S    
C29   H12   S    
C32   C33   T    
O13   S6    S    
C28   C30   S    
C25   C26   S    
O32   S2    S    
C9    C34   A    
C12   N3    S    
O4    S4    D    
C4    O34   A    
C14   N2    A    
C15   S8    S    
C9    H23   S    
O22   S9    S    
O15   S7    D    
H21   N7    S    
C10   C11   A    
C16   O38   A    
C29   C30   S    
C4    O23   A    
O24   S10   D    
C20   C21   A    
O14   S7    D    
O21   S9    D    
C26   S11   S    
C13   C14   A    
C25   S10   S    
C10   S4    S    
C23   C31   S    
C30   S2    S    
