data_mof_unit_31089.cif
_audit_creation_date              2012-10-26T21:29:50-0400
_audit_creation_method            fapswitch 2.2
_symmetry_space_group_name_H-M    P1
_symmetry_Int_Tables_number       1
_space_group_crystal_system       triclinic
_cell_length_a                    27.172461
_cell_length_b                    27.102252
_cell_length_c                    27.201381
_cell_angle_alpha                 89.973919
_cell_angle_beta                  89.932191
_cell_angle_gamma                 89.927354
_cell_volume                      20032.0137093

loop_
_atom_site_label
_atom_site_type_symbol
_atom_type_description
_atom_site_fract_x
_atom_site_fract_y
_atom_site_fract_z
_atom_type_partial_charge
C1    C     C_R   0.929850 0.701558 0.298430 0.563970
C2    C     C_R   0.070911 0.702588 0.297561 0.572669
C3    C     C_R   0.821922 0.113604 0.821635 0.011048
C4    C     C_R   0.179816 0.885068 0.820007 0.012833
C5    C     C_R   0.820387 0.114716 0.179792 0.013500
C6    C     C_R   0.819786 0.884603 0.819589 0.012927
C7    C     C_R   0.179947 0.115055 0.180113 0.013402
C8    C     C_R   0.114561 0.178739 0.178898 0.003248
C9    C     C_R   0.884803 0.820562 0.820452 0.003187
C10   C     C_R   0.115070 0.179292 0.820630 0.003238
C11   C     C_R   0.884961 0.820738 0.179347 0.003403
C12   C     C_R   0.115103 0.820745 0.820560 0.002695
C13   C     C_R   0.298901 0.299017 0.930591 0.565855
C14   C     C_R   0.885037 0.179112 0.179307 0.002721
C15   C     C_R   0.115092 0.820707 0.179424 0.003251
C16   C     C_R   0.887341 0.177202 0.822942 0.001133
C17   C     C_R   0.820034 0.180220 0.883527 -0.007323
C18   C     C_R   0.179056 0.821110 0.115341 -0.006951
C19   C     C_R   0.820770 0.820866 0.884428 -0.007065
C20   C     C_R   0.178815 0.178585 0.115074 -0.006781
C21   C     C_R   0.179115 0.821082 0.884596 -0.007021
C22   C     C_R   0.821042 0.178757 0.115246 -0.007436
C23   C     C_R   0.179030 0.178874 0.884694 -0.007560
C24   C     C_R   0.701672 0.701578 0.070217 0.564027
C25   C     C_R   0.821015 0.821170 0.115265 -0.007503
C26   C     C_R   0.321567 0.383688 0.178379 0.003570
C27   C     C_R   0.679713 0.614823 0.820151 0.013971
C28   C     C_R   0.180664 0.384007 0.680524 0.004191
C29   C     C_R   0.823984 0.611538 0.324450 0.002455
C30   C     C_R   0.679793 0.385089 0.820020 0.013923
C31   C     C_R   0.317306 0.618139 0.182007 0.003215
C32   C     C_R   0.822542 0.387255 0.322775 0.003785
C33   C     C_R   0.179957 0.614871 0.679772 0.012871
C34   C     C_R   0.320778 0.615008 0.820636 0.003329
C35   C     C_R   0.071035 0.297541 0.297549 0.566486
C36   C     C_R   0.679564 0.385289 0.179747 0.013784
C37   C     C_R   0.176294 0.612143 0.323206 0.002349
C38   C     C_R   0.823255 0.389711 0.674209 0.014241
C39   C     C_R   0.679323 0.614109 0.179414 0.014008
C40   C     C_R   0.324503 0.387777 0.823886 -0.006675
C41   C     C_R   0.820012 0.614942 0.679852 0.013957
C42   C     C_R   0.179417 0.384926 0.320662 0.002416
C43   C     C_R   0.610893 0.176022 0.676250 0.011608
C44   C     C_R   0.384621 0.820888 0.321092 -0.006860
C45   C     C_R   0.615066 0.679291 0.820634 0.003762
C46   C     C_R   0.928940 0.702442 0.702507 0.566628
C47   C     C_R   0.381609 0.315332 0.181628 0.014304
C48   C     C_R   0.613866 0.821361 0.321583 0.002545
C49   C     C_R   0.384932 0.179369 0.679204 0.003546
C50   C     C_R   0.614981 0.320817 0.179315 0.003456
C51   C     C_R   0.385257 0.679582 0.820240 0.013238
C52   C     C_R   0.384337 0.819056 0.680022 0.012900
C53   C     C_R   0.611107 0.175485 0.324287 -0.000965
C54   C     C_R   0.386139 0.320857 0.821171 0.013237
C55   C     C_R   0.612098 0.675765 0.176445 0.002144
C56   C     C_R   0.388374 0.175524 0.325032 -0.006896
C57   C     C_R   0.702447 0.297604 0.071007 0.566716
C58   C     C_R   0.614740 0.820247 0.679581 0.012969
C59   C     C_R   0.381232 0.682625 0.182553 0.001256
C60   C     C_R   0.615142 0.320712 0.820517 0.003531
C61   C     C_R   0.820872 0.678914 0.386012 0.013332
C62   C     C_R   0.183221 0.316913 0.619355 0.001583
C63   C     C_R   0.320204 0.820409 0.385241 0.012128
C64   C     C_R   0.674708 0.174932 0.610685 0.001427
C65   C     C_R   0.179719 0.320427 0.385238 0.013066
C66   C     C_R   0.820575 0.679247 0.615117 0.003168
C67   C     C_R   0.676370 0.176773 0.387721 0.002593
C68   C     C_R   0.297567 0.702458 0.928969 0.566991
C69   C     C_R   0.325884 0.824887 0.610550 -0.000243
C70   C     C_R   0.179487 0.679312 0.615144 0.003284
C71   C     C_R   0.818831 0.319405 0.383778 0.011433
C72   C     C_R   0.679146 0.820707 0.614967 0.003220
C73   C     C_R   0.321368 0.178404 0.386609 0.013113
C74   C     C_R   0.816324 0.318943 0.618463 0.003229
C75   C     C_R   0.175745 0.675713 0.388415 0.001565
C76   C     C_R   0.320647 0.179081 0.614974 0.003265
C77   C     C_R   0.682168 0.816927 0.381790 0.010083
C78   C     C_R   0.323979 0.887090 0.676428 -0.001324
C79   C     C_R   0.297434 0.071037 0.702741 0.572807
C80   C     C_R   0.677566 0.113166 0.322577 0.001937
C81   C     C_R   0.678799 0.884766 0.678988 -0.006459
C82   C     C_R   0.324928 0.110550 0.325510 0.001474
C83   C     C_R   0.680164 0.883028 0.319387 -0.007472
C84   C     C_R   0.320687 0.115117 0.679571 0.003714
C85   C     C_R   0.320557 0.884965 0.320748 0.003866
C86   C     C_R   0.672762 0.109125 0.673423 -0.010885
C87   C     C_R   0.115393 0.678947 0.679128 -0.007181
C88   C     C_R   0.884620 0.321178 0.321013 -0.008391
C89   C     C_R   0.114161 0.678662 0.321575 0.003026
C90   C     C_R   0.702943 0.928357 0.296988 0.563455
C91   C     C_R   0.884494 0.322464 0.678011 0.004074
C92   C     C_R   0.115321 0.320962 0.321106 -0.007262
C93   C     C_R   0.884595 0.678914 0.679142 -0.007339
C94   C     C_R   0.118523 0.317728 0.683022 0.003491
C95   C     C_R   0.887412 0.676442 0.324003 -0.006873
C96   C     C_R   0.321156 0.679029 0.884686 -0.007471
C97   C     C_R   0.678956 0.321213 0.115237 -0.007479
C98   C     C_R   0.325041 0.324383 0.888886 0.001330
C99   C     C_R   0.676824 0.676004 0.112840 -0.007022
C100  C     C_R   0.679145 0.321050 0.884560 -0.007909
C101  C     C_R   0.297447 0.928987 0.297356 0.572637
C102  C     C_R   0.319670 0.680388 0.115863 0.002969
C103  C     C_R   0.679036 0.678883 0.884687 -0.007823
C104  C     C_R   0.325767 0.323228 0.111120 0.002993
C105  C     C_R   0.798663 0.863654 0.137100 -0.043444
C106  C     C_R   0.201459 0.136473 0.862787 -0.043154
C107  C     C_R   0.137147 0.863104 0.201853 -0.045796
C108  C     C_R   0.869356 0.130671 0.804988 -0.047249
C109  C     C_R   0.201622 0.863322 0.862560 -0.044008
C110  C     C_R   0.798663 0.136376 0.137149 -0.043569
C111  C     C_R   0.862314 0.862484 0.797636 -0.045951
C112  C     C_R   0.072293 0.296366 0.703811 0.572819
C113  C     C_R   0.700519 0.068965 0.700588 0.560444
C114  C     C_R   0.137292 0.137067 0.201964 -0.045739
C115  C     C_R   0.796075 0.140136 0.859349 -0.042897
C116  C     C_R   0.201425 0.863545 0.137183 -0.043142
C117  C     C_R   0.137250 0.136976 0.798164 -0.046860
C118  C     C_R   0.862837 0.863112 0.201772 -0.046883
C119  C     C_R   0.201807 0.136956 0.137594 -0.043183
C120  C     C_R   0.797941 0.862654 0.862073 -0.043662
C121  C     C_R   0.862913 0.136756 0.201801 -0.045412
C122  C     C_R   0.137275 0.863046 0.798018 -0.045393
C123  C     C_R   0.136375 0.201070 0.863247 -0.040448
C124  C     C_R   0.702418 0.929001 0.702457 0.561941
C125  C     C_R   0.863631 0.798938 0.136751 -0.040511
C126  C     C_R   0.136500 0.798871 0.136880 -0.040970
C127  C     C_R   0.863391 0.201647 0.862892 -0.039136
C128  C     C_R   0.863700 0.798891 0.863272 -0.040767
C129  C     C_R   0.135065 0.199690 0.135393 -0.041417
C130  C     C_R   0.863776 0.200840 0.136593 -0.040526
C131  C     C_R   0.136404 0.798977 0.863230 -0.040690
C132  C     C_R   0.310489 0.370120 0.128932 -0.043633
C133  C     C_R   0.701451 0.636471 0.862789 -0.043265
C134  C     C_R   0.138235 0.362248 0.702947 -0.043528
C135  C     C_R   0.299202 0.069176 0.299060 0.569055
C136  C     C_R   0.870071 0.629781 0.306511 -0.041339
C137  C     C_R   0.701612 0.363330 0.862562 -0.043558
C138  C     C_R   0.297036 0.638167 0.137820 -0.043234
C139  C     C_R   0.867071 0.367577 0.302782 -0.042288
C140  C     C_R   0.137321 0.636570 0.701569 -0.043624
C141  C     C_R   0.298945 0.636474 0.863157 -0.041475
C142  C     C_R   0.701289 0.363688 0.137043 -0.043270
C143  C     C_R   0.135986 0.636190 0.299349 -0.042798
C144  C     C_R   0.870551 0.372026 0.689017 -0.045736
C145  C     C_R   0.701107 0.635846 0.136733 -0.042355
C146  C     C_R   0.702230 0.070566 0.297897 0.573502
C147  C     C_R   0.307684 0.370928 0.870922 -0.042452
C148  C     C_R   0.862555 0.636709 0.701678 -0.043291
C149  C     C_R   0.136984 0.363407 0.298778 -0.040790
C150  C     C_R   0.628719 0.129602 0.694655 -0.041617
C151  C     C_R   0.363008 0.863424 0.298851 -0.041206
C152  C     C_R   0.636400 0.701099 0.863224 -0.040391
C153  C     C_R   0.364506 0.297028 0.135583 -0.036193
C154  C     C_R   0.633774 0.865569 0.301214 -0.041470
C155  C     C_R   0.362968 0.137096 0.701688 -0.042768
C156  C     C_R   0.636336 0.299034 0.136716 -0.040635
C157  C     C_R   0.298526 0.930014 0.701472 0.563851
C158  C     C_R   0.363589 0.701403 0.862869 -0.043262
C159  C     C_R   0.359974 0.859447 0.703398 -0.043817
C160  C     C_R   0.632514 0.132345 0.302796 -0.043507
C161  C     C_R   0.365130 0.299635 0.864574 -0.043470
C162  C     C_R   0.630240 0.693449 0.130247 -0.042644
C163  C     C_R   0.371806 0.128112 0.308553 -0.039923
C164  C     C_R   0.636422 0.862890 0.701376 -0.043124
C165  C     C_R   0.361756 0.702790 0.137954 -0.042488
C166  C     C_R   0.636512 0.298876 0.863118 -0.040778
C167  C     C_R   0.863356 0.700865 0.364208 -0.042714
C168  C     C_R   0.430195 0.201199 0.298764 0.555453
C169  C     C_R   0.144752 0.291788 0.645251 -0.041299
C170  C     C_R   0.298222 0.863045 0.363295 -0.046088
C171  C     C_R   0.691516 0.127712 0.627715 -0.041059
C172  C     C_R   0.137010 0.298667 0.363667 -0.042980
C173  C     C_R   0.863245 0.701007 0.636411 -0.040672
C174  C     C_R   0.700055 0.135797 0.364312 -0.042689
C175  C     C_R   0.309636 0.872275 0.628121 -0.043789
C176  C     C_R   0.136889 0.701185 0.636537 -0.041056
C177  C     C_R   0.858958 0.295504 0.359446 -0.043358
C178  C     C_R   0.700930 0.863315 0.636341 -0.040947
C179  C     C_R   0.571032 0.797259 0.702722 0.583742
C180  C     C_R   0.300161 0.135043 0.365462 -0.044162
C181  C     C_R   0.853960 0.294740 0.645854 -0.045267
C182  C     C_R   0.135301 0.699976 0.364652 -0.041894
C183  C     C_R   0.298643 0.136742 0.636942 -0.043998
C184  C     C_R   0.706642 0.856027 0.356390 -0.041557
C185  C     C_R   0.796936 0.364503 0.636308 -0.035531
C186  C     C_R   0.193845 0.629617 0.369863 -0.045374
C187  C     C_R   0.637038 0.363217 0.201744 -0.046295
C188  C     C_R   0.363251 0.637004 0.798287 -0.045394
C189  C     C_R   0.201712 0.362942 0.363153 -0.047425
C190  C     C_R   0.297357 0.202451 0.570997 0.571081
C191  C     C_R   0.798055 0.636982 0.637299 -0.045070
C192  C     C_R   0.364210 0.363281 0.799151 -0.042948
C193  C     C_R   0.636302 0.635762 0.200947 -0.044520
C194  C     C_R   0.799571 0.635655 0.364779 -0.044090
C195  C     C_R   0.203278 0.361584 0.638712 -0.043074
C196  C     C_R   0.637204 0.636936 0.798196 -0.045830
C197  C     C_R   0.353459 0.352677 0.206167 -0.045783
C198  C     C_R   0.201999 0.636933 0.637248 -0.045557
C199  C     C_R   0.798944 0.364128 0.364143 -0.044305
C200  C     C_R   0.355607 0.643838 0.207443 -0.043453
C201  C     C_R   0.703970 0.795876 0.427436 0.579336
C202  C     C_R   0.637244 0.363081 0.798034 -0.044892
C203  C     C_R   0.630961 0.195968 0.368804 -0.043706
C204  C     C_R   0.364996 0.799150 0.635424 -0.039987
C205  C     C_R   0.636720 0.798274 0.637006 -0.045649
C206  C     C_R   0.364012 0.200210 0.364973 -0.043071
C207  C     C_R   0.362823 0.798495 0.363550 -0.043133
C208  C     C_R   0.635060 0.199793 0.635692 -0.043752
C209  C     C_R   0.363403 0.201131 0.636509 -0.042789
C210  C     C_R   0.637386 0.797180 0.362445 -0.044105
C211  C     C_3   0.750058 0.882952 0.113982 -0.319898
C212  C     C_R   0.569796 0.201556 0.701672 0.579811
C213  C     C_3   0.250166 0.117285 0.885788 -0.320069
C214  C     C_3   0.114587 0.882072 0.250841 -0.322911
C215  C     C_3   0.900180 0.102673 0.764177 -0.326302
C216  C     C_3   0.250524 0.882274 0.885340 -0.322876
C217  C     C_3   0.749969 0.117180 0.114117 -0.319567
C218  C     C_3   0.884202 0.881034 0.748124 -0.323622
C219  C     C_3   0.115327 0.118483 0.251453 -0.322244
C220  C     C_3   0.741779 0.127447 0.874884 -0.324292
C221  C     C_3   0.250077 0.882722 0.114088 -0.320491
C222  C     C_3   0.114861 0.118082 0.749132 -0.321744
C223  C     C_R   0.297311 0.702811 0.071094 0.575511
C224  C     C_R   0.428934 0.797518 0.297538 0.562653
C225  C     C_3   0.885292 0.882053 0.250768 -0.324564
C226  C     C_3   0.251228 0.118401 0.115344 -0.319154
C227  C     C_3   0.748475 0.881116 0.884215 -0.321647
C228  C     C_3   0.885375 0.117710 0.250837 -0.321012
C229  C     C_3   0.114882 0.882020 0.748927 -0.320067
C230  C     C_3   0.116724 0.249491 0.886554 -0.319691
C231  C     C_3   0.883232 0.750479 0.113483 -0.319446
C232  C     C_3   0.117037 0.750351 0.113718 -0.320607
C233  C     C_3   0.881180 0.251659 0.884397 -0.317810
C234  C     C_3   0.883710 0.750779 0.886958 -0.320827
C235  C     C_R   0.701490 0.201745 0.430000 0.568038
C236  C     C_3   0.113294 0.246423 0.110279 -0.322848
C237  C     C_3   0.883573 0.249056 0.113044 -0.320222
C238  C     C_3   0.116711 0.750668 0.886672 -0.321253
C239  C     C_3   0.281787 0.405784 0.097125 -0.359821
C240  C     C_3   0.750167 0.617293 0.885779 -0.320036
C241  C     C_3   0.117410 0.386294 0.750517 -0.321416
C242  C     C_3   0.900516 0.602153 0.265632 -0.330328
C243  C     C_3   0.750501 0.382289 0.885357 -0.317936
C244  C     C_3   0.248932 0.617805 0.114412 -0.321240
C245  C     C_3   0.895839 0.393395 0.258875 -0.318463
C246  C     C_R   0.299205 0.799268 0.569010 0.566753
C247  C     C_3   0.114385 0.617490 0.750366 -0.320315
C248  C     C_3   0.250431 0.617023 0.886289 -0.320503
C249  C     C_3   0.749861 0.382956 0.113853 -0.319206
C250  C     C_3   0.114790 0.618281 0.249376 -0.320291
C251  C     C_3   0.906147 0.403512 0.718352 -0.358537
C252  C     C_3   0.751282 0.618275 0.115282 -0.319160
C253  C     C_3   0.267917 0.402296 0.899147 -0.335265
C254  C     C_3   0.885253 0.617770 0.750660 -0.321776
C255  C     C_3   0.114080 0.382720 0.250111 -0.317885
C256  C     C_3   0.604174 0.101315 0.739200 -0.314456
C257  C     C_R   0.428206 0.796455 0.703423 0.581180
C258  C     C_3   0.386029 0.882750 0.250270 -0.319956
C259  C     C_3   0.616794 0.749559 0.886491 -0.320050
C260  C     C_3   0.384380 0.248866 0.112108 -0.321920
C261  C     C_3   0.609512 0.894006 0.257400 -0.305819
C262  C     C_3   0.385172 0.118079 0.750843 -0.320761
C263  C     C_3   0.616746 0.250629 0.113421 -0.318324
C264  C     C_3   0.382743 0.750139 0.885922 -0.322452
C265  C     C_3   0.370810 0.873642 0.758011 -0.331025
C266  C     C_3   0.609594 0.105967 0.257231 -0.309880
C267  C     C_3   0.382800 0.249526 0.886096 -0.322376
C268  C     C_R   0.569630 0.201224 0.298618 0.567081
C269  C     C_3   0.601906 0.733572 0.099893 -0.336230
C270  C     C_3   0.403752 0.099024 0.269602 -0.334568
C271  C     C_3   0.617309 0.885902 0.750099 -0.320252
C272  C     C_3   0.386164 0.750235 0.117267 -0.323317
C273  C     C_3   0.616962 0.250441 0.886416 -0.319076
C274  C     C_3   0.884681 0.751070 0.381425 -0.323629
C275  C     C_3   0.131472 0.236302 0.634399 -0.333565
C276  C     C_3   0.249385 0.885894 0.382499 -0.324110
C277  C     C_3   0.732087 0.096918 0.599786 -0.332878
C278  C     C_3   0.113744 0.250120 0.383026 -0.319866
C279  C     C_R   0.297254 0.797306 0.428956 0.580641
C280  C     C_3   0.886676 0.749301 0.616668 -0.319805
C281  C     C_3   0.750144 0.117983 0.385456 -0.320049
C282  C     C_3   0.273318 0.904358 0.597451 -0.342528
C283  C     C_3   0.113673 0.749749 0.617045 -0.318227
C284  C     C_3   0.875557 0.241691 0.372961 -0.324882
C285  C     C_3   0.749284 0.886614 0.616735 -0.319182
C286  C     C_3   0.250055 0.113643 0.382981 -0.321478
C287  C     C_3   0.860490 0.239480 0.643382 -0.355851
C288  C     C_3   0.117135 0.749736 0.386398 -0.323196
C289  C     C_3   0.249960 0.113967 0.617609 -0.323513
C290  C     C_R   0.701111 0.200905 0.569413 0.562203
C291  C     C_3   0.761431 0.870208 0.367117 -0.319221
C292  C     C_3   0.747664 0.382988 0.614016 -0.320930
C293  C     C_3   0.234740 0.599301 0.398045 -0.330815
C294  C     C_3   0.614453 0.382208 0.250713 -0.321236
C295  C     C_3   0.382354 0.614306 0.749411 -0.322432
C296  C     C_3   0.250534 0.385659 0.382230 -0.321976
C297  C     C_3   0.748944 0.618001 0.614913 -0.321172
C298  C     C_3   0.380788 0.383985 0.748506 -0.321225
C299  C     C_3   0.615219 0.618308 0.251270 -0.321367
C300  C     C_3   0.749719 0.614000 0.382624 -0.321973
C301  C     C_R   0.570313 0.798000 0.297898 0.575510
C302  C     C_3   0.250786 0.382188 0.614414 -0.322040
C303  C     C_3   0.614756 0.618002 0.749194 -0.321149
C304  C     C_3   0.355620 0.358962 0.261214 -0.356382
C305  C     C_3   0.251131 0.617939 0.614796 -0.322762
C306  C     C_3   0.750787 0.387851 0.384338 -0.320093
C307  C     C_3   0.367441 0.629857 0.262445 -0.330317
C308  C     C_3   0.614776 0.382130 0.749001 -0.321621
C309  C     C_3   0.602964 0.240478 0.394348 -0.321892
C310  C     C_3   0.382628 0.748876 0.614020 -0.320886
C311  C     C_3   0.617665 0.749296 0.614362 -0.322820
C312  C     C_R   0.428985 0.202646 0.702508 0.573368
C313  C     C_3   0.385237 0.250482 0.382051 -0.320687
C314  C     C_3   0.385907 0.749725 0.382654 -0.319817
C315  C     C_3   0.620372 0.252209 0.617191 -0.322106
C316  C     C_3   0.383095 0.249496 0.613259 -0.321840
C317  C     C_3   0.614332 0.748610 0.382139 -0.321723
C318  C     C_R   0.702607 0.797499 0.570984 0.576659
C319  C     C_R   0.702504 0.297551 0.928927 0.564522
C320  C     C_R   0.297393 0.202538 0.429177 0.582194
C321  C     C_R   0.795434 0.295823 0.573077 0.570120
C322  C     C_R   0.201336 0.701080 0.430398 0.569956
C323  C     C_R   0.797167 0.571085 0.702808 0.579047
C324  C     C_R   0.202571 0.428978 0.297330 0.570669
C325  C     C_R   0.797260 0.702676 0.429014 0.579484
C326  C     C_R   0.204106 0.295704 0.572819 0.572947
C327  C     C_R   0.798360 0.430048 0.298225 0.571790
C328  C     C_R   0.202789 0.571085 0.702768 0.583273
C329  C     C_R   0.202571 0.702639 0.571053 0.575505
C330  C     C_R   0.071058 0.702441 0.702506 0.567109
C331  C     C_R   0.796585 0.296675 0.428189 0.583902
C332  C     C_R   0.202896 0.428864 0.702749 0.577941
C333  C     C_R   0.798824 0.569575 0.298699 0.568527
C334  C     C_R   0.202729 0.297316 0.428967 0.584212
C335  C     C_R   0.797449 0.702615 0.571022 0.575297
C336  C     C_R   0.201639 0.570100 0.298231 0.567715
C337  C     C_R   0.798983 0.431207 0.700674 0.573795
C338  C     C_R   0.702791 0.571033 0.202838 0.585094
C339  C     C_R   0.298594 0.430016 0.798557 0.563327
C340  C     C_R   0.427425 0.703837 0.204043 0.570313
C341  C     C_R   0.928849 0.297557 0.297498 0.564192
C342  C     C_R   0.571045 0.297367 0.797418 0.576907
C343  C     C_R   0.297711 0.428533 0.202251 0.561949
C344  C     C_R   0.702742 0.571075 0.797219 0.582820
C345  C     C_R   0.570989 0.297397 0.202531 0.579475
C346  C     C_R   0.428976 0.702694 0.797246 0.580680
C347  C     C_R   0.297374 0.570996 0.797457 0.573202
C348  C     C_R   0.702702 0.428977 0.202742 0.584386
C349  C     C_R   0.571023 0.702628 0.797444 0.575404
C350  C     C_R   0.426894 0.295182 0.204250 0.578782
C351  C     C_R   0.702777 0.428929 0.797169 0.586224
C352  C     C_R   0.702470 0.702420 0.928956 0.564639
C353  C     C_R   0.296304 0.572119 0.203533 0.574624
C354  C     C_R   0.429005 0.297241 0.797282 0.582774
C355  C     C_R   0.569828 0.701401 0.201358 0.572368
C356  C     C_R   0.929908 0.201768 0.798267 0.569672
C357  C     C_R   0.071029 0.797359 0.202568 0.575495
C358  C     C_R   0.797552 0.202392 0.071012 0.567682
C359  C     C_R   0.202494 0.797562 0.928939 0.566993
C360  C     C_R   0.070829 0.202439 0.202371 0.575005
C361  C     C_R   0.928979 0.797344 0.797418 0.575992
C362  C     C_R   0.202468 0.202417 0.928959 0.567775
C363  C     C_R   0.299273 0.299012 0.069039 0.563144
C364  C     C_R   0.797545 0.797596 0.071030 0.568319
C365  C     C_R   0.928979 0.797376 0.202554 0.577089
C366  C     C_R   0.071023 0.202626 0.797444 0.569244
C367  C     C_R   0.797481 0.797492 0.928898 0.567361
C368  C     C_R   0.202414 0.202365 0.070972 0.569352
C369  C     C_R   0.071029 0.797381 0.797435 0.575224
C370  C     C_R   0.929015 0.202575 0.202524 0.574183
C371  C     C_R   0.202475 0.797574 0.071038 0.567189
C372  C     C_R   0.797044 0.202968 0.928407 0.566191
C373  C     C_R   0.797288 0.071001 0.202764 0.584535
C374  C     C_R   0.928826 0.298048 0.702108 0.563703
C375  C     C_R   0.202791 0.928911 0.797158 0.583423
C376  C     C_R   0.797046 0.928683 0.796979 0.581433
C377  C     C_R   0.202874 0.071209 0.202935 0.585681
C378  C     C_R   0.202736 0.928938 0.202777 0.583236
C379  C     C_R   0.797967 0.070480 0.797856 0.581497
C380  C     C_R   0.202754 0.071089 0.797208 0.582648
C381  C     C_R   0.797282 0.928948 0.202759 0.580777
C382  C     C_R   0.820352 0.885249 0.179791 0.013009
C383  C     C_R   0.179740 0.114845 0.820131 0.013184
C384  C     C_R   0.179668 0.885180 0.179852 0.013440
Cu1   Cu    Cu3+1 1.000000 0.784800 0.284800 0.841163
Cu2   Cu    Cu3+1 0.784800 0.715200 0.000000 0.841704
Cu3   Cu    Cu3+1 0.215200 0.000000 0.715200 0.847030
Cu4   Cu    Cu3+1 0.784800 0.000000 0.284800 0.846085
Cu5   Cu    Cu3+1 0.215200 0.715200 0.000000 0.839513
Cu6   Cu    Cu3+1 0.784800 0.284800 0.000000 0.842190
Cu7   Cu    Cu3+1 0.215200 0.000000 0.284800 0.840886
Cu8   Cu    Cu3+1 0.784800 0.000000 0.715200 0.850151
Cu9   Cu    Cu3+1 0.715200 0.000000 0.784800 0.846335
Cu10  Cu    Cu3+1 0.284800 0.000000 0.215200 0.850293
Cu11  Cu    Cu3+1 0.000000 0.715200 0.784800 0.843192
Cu12  Cu    Cu3+1 0.000000 0.215200 0.715200 0.854735
Cu13  Cu    Cu3+1 0.000000 0.284800 0.215200 0.845486
Cu14  Cu    Cu3+1 0.284800 0.000000 0.784800 0.844739
Cu15  Cu    Cu3+1 0.715200 0.000000 0.215200 0.842094
Cu16  Cu    Cu3+1 0.000000 0.284800 0.784800 0.852829
Cu17  Cu    Cu3+1 0.000000 0.715200 0.215200 0.845352
Cu18  Cu    Cu3+1 0.500000 0.284800 0.284800 0.852374
Cu19  Cu    Cu3+1 0.500000 0.715200 0.715200 0.842753
Cu20  Cu    Cu3+1 0.284800 0.284800 0.500000 0.841378
Cu21  Cu    Cu3+1 0.715200 0.715200 0.500000 0.841531
Cu22  Cu    Cu3+1 0.500000 0.284800 0.715200 0.843894
Cu23  Cu    Cu3+1 0.284800 0.784800 0.000000 0.841478
Cu24  Cu    Cu3+1 0.500000 0.715200 0.284800 0.847867
Cu25  Cu    Cu3+1 0.715200 0.284800 0.500000 0.845125
Cu26  Cu    Cu3+1 0.284800 0.715200 0.500000 0.846419
Cu27  Cu    Cu3+1 0.715200 0.500000 0.715200 0.843471
Cu28  Cu    Cu3+1 0.284800 0.500000 0.284800 0.852090
Cu29  Cu    Cu3+1 0.715200 0.500000 0.284800 0.842484
Cu30  Cu    Cu3+1 0.284800 0.500000 0.715200 0.841419
Cu31  Cu    Cu3+1 0.500000 0.784800 0.784800 0.848014
Cu32  Cu    Cu3+1 0.500000 0.215200 0.215200 0.849460
Cu33  Cu    Cu3+1 0.784800 0.784800 0.500000 0.850621
Cu34  Cu    Cu3+1 0.715200 0.215200 0.000000 0.844070
Cu35  Cu    Cu3+1 0.215200 0.215200 0.500000 0.852910
Cu36  Cu    Cu3+1 0.500000 0.784800 0.215200 0.848222
Cu37  Cu    Cu3+1 0.500000 0.215200 0.784800 0.846187
Cu38  Cu    Cu3+1 0.215200 0.784800 0.500000 0.851054
Cu39  Cu    Cu3+1 0.784800 0.215200 0.500000 0.863128
Cu40  Cu    Cu3+1 0.215200 0.500000 0.215200 0.850832
Cu41  Cu    Cu3+1 0.784800 0.500000 0.784800 0.852210
Cu42  Cu    Cu3+1 0.215200 0.500000 0.784800 0.844471
Cu43  Cu    Cu3+1 0.784800 0.500000 0.215200 0.853237
Cu44  Cu    Cu3+1 1.000000 0.784800 0.715200 0.840816
Cu45  Cu    Cu3+1 1.000000 0.215200 0.284800 0.844012
Cu46  Cu    Cu3+1 0.715200 0.784800 0.000000 0.844777
Cu47  Cu    Cu3+1 0.284800 0.215200 0.000000 0.839781
Cu48  Cu    Cu3+1 0.215200 0.284800 0.000000 0.857022
H1    H     H_    0.725447 0.912851 0.124152 0.140115
H2    H     H_    0.899136 0.062974 0.753571 0.134624
H3    H     H_    0.774409 0.412868 0.123949 0.140762
H4    H     H_    0.777585 0.353008 0.117102 0.137629
H5    H     H_    0.741399 0.395610 0.075974 0.145364
H6    H     H_    0.125660 0.589055 0.224592 0.139203
H7    H     H_    0.076750 0.605028 0.256392 0.143057
H8    H     H_    0.118700 0.648972 0.222561 0.138884
H9    H     H_    0.898755 0.443469 0.719760 0.142402
H10   H     H_    0.905697 0.390301 0.756818 0.163419
H11   H     H_    0.943635 0.400900 0.702340 0.135211
H12   H     H_    0.776337 0.589193 0.126246 0.141065
H13   H     H_    0.892830 0.123481 0.728968 0.152426
H14   H     H_    0.744312 0.604857 0.077368 0.144759
H15   H     H_    0.777739 0.649259 0.118853 0.137649
H16   H     H_    0.259789 0.400629 0.939235 0.130873
H17   H     H_    0.280429 0.441802 0.897683 0.139474
H18   H     H_    0.232071 0.394697 0.879664 0.156394
H19   H     H_    0.874532 0.588376 0.775539 0.139053
H20   H     H_    0.923084 0.604550 0.742579 0.144191
H21   H     H_    0.882193 0.648072 0.777937 0.139438
H22   H     H_    0.124433 0.412426 0.225361 0.140790
H23   H     H_    0.117368 0.352711 0.222538 0.142989
H24   H     H_    0.939435 0.102418 0.777281 0.139065
H25   H     H_    0.076175 0.395577 0.258425 0.142210
H26   H     H_    0.564076 0.101552 0.752565 0.127767
H27   H     H_    0.602533 0.061362 0.727629 0.137130
H28   H     H_    0.627462 0.110242 0.773019 0.149542
H29   H     H_    0.375783 0.912527 0.225576 0.138161
H30   H     H_    0.423902 0.895531 0.258614 0.142827
H31   H     H_    0.382762 0.852827 0.222618 0.136538
H32   H     H_    0.586761 0.773995 0.876306 0.139982
H33   H     H_    0.604372 0.740981 0.924420 0.143249
H34   H     H_    0.646393 0.777561 0.883200 0.135993
H35   H     H_    0.275485 0.911649 0.874662 0.138523
H36   H     H_    0.414938 0.225331 0.122859 0.141482
H37   H     H_    0.355061 0.220545 0.114930 0.139495
H38   H     H_    0.396724 0.257520 0.074176 0.142017
H39   H     H_    0.570907 0.892999 0.239625 0.126226
H40   H     H_    0.604202 0.933260 0.270018 0.137351
H41   H     H_    0.634247 0.887367 0.224265 0.148740
H42   H     H_    0.374249 0.088754 0.775605 0.139853
H43   H     H_    0.422995 0.104696 0.743015 0.144379
H44   H     H_    0.382032 0.148403 0.778096 0.138055
H45   H     H_    0.586555 0.226291 0.123309 0.140425
H46   H     H_    0.242297 0.895454 0.923104 0.147644
H47   H     H_    0.604462 0.259301 0.075491 0.144842
H48   H     H_    0.646298 0.222506 0.116810 0.137194
H49   H     H_    0.412384 0.774890 0.875512 0.137868
H50   H     H_    0.352793 0.777848 0.882793 0.133676
H51   H     H_    0.395477 0.741700 0.923772 0.147448
H52   H     H_    0.388788 0.850191 0.785802 0.134751
H53   H     H_    0.391855 0.909285 0.757292 0.156491
H54   H     H_    0.334778 0.875231 0.777522 0.138457
H55   H     H_    0.570523 0.106997 0.241367 0.126248
H56   H     H_    0.634298 0.113849 0.224394 0.148781
H57   H     H_    0.277903 0.851996 0.882336 0.132963
H58   H     H_    0.604580 0.066327 0.267969 0.136183
H59   H     H_    0.412056 0.224478 0.875006 0.138892
H60   H     H_    0.395688 0.256334 0.924204 0.144571
H61   H     H_    0.352160 0.222777 0.882138 0.137033
H62   H     H_    0.561598 0.739477 0.101872 0.139714
H63   H     H_    0.621721 0.769465 0.107373 0.156384
H64   H     H_    0.603453 0.722357 0.060226 0.138867
H65   H     H_    0.402716 0.058138 0.263436 0.131270
H66   H     H_    0.395842 0.117364 0.233030 0.158175
H67   H     H_    0.443261 0.101753 0.282184 0.135553
H68   H     H_    0.725462 0.087185 0.124128 0.139984
H69   H     H_    0.587721 0.875455 0.774836 0.139840
H70   H     H_    0.647288 0.882601 0.777616 0.139094
H71   H     H_    0.604532 0.923925 0.741854 0.143745
H72   H     H_    0.375803 0.774432 0.087316 0.139934
H73   H     H_    0.383861 0.778840 0.146380 0.133967
H74   H     H_    0.423815 0.740538 0.104590 0.145577
H75   H     H_    0.587164 0.225886 0.876052 0.141552
H76   H     H_    0.646636 0.222460 0.883278 0.133188
H77   H     H_    0.604366 0.258999 0.924293 0.145619
H78   H     H_    0.872559 0.776916 0.409443 0.136672
H79   H     H_    0.722265 0.147155 0.117429 0.136195
H80   H     H_    0.922542 0.744187 0.395283 0.148914
H81   H     H_    0.881462 0.777320 0.350290 0.133086
H82   H     H_    0.157520 0.208745 0.618225 0.129760
H83   H     H_    0.126534 0.217718 0.671084 0.129082
H84   H     H_    0.097202 0.237019 0.610885 0.162551
H85   H     H_    0.224771 0.875186 0.412024 0.138694
H86   H     H_    0.257509 0.923853 0.395428 0.144187
H87   H     H_    0.221800 0.882788 0.352575 0.139252
H88   H     H_    0.739376 0.098165 0.559385 0.132850
H89   H     H_    0.767947 0.105437 0.619001 0.157553
H90   H     H_    0.758400 0.104515 0.076241 0.147324
H91   H     H_    0.720371 0.057115 0.601806 0.136692
H92   H     H_    0.124022 0.225573 0.412885 0.140984
H93   H     H_    0.075791 0.258681 0.395531 0.148837
H94   H     H_    0.116969 0.222260 0.353302 0.135219
H95   H     H_    0.876571 0.773618 0.586578 0.140264
H96   H     H_    0.883353 0.777466 0.646094 0.135785
H97   H     H_    0.924661 0.740593 0.604376 0.145339
H98   H     H_    0.774938 0.088639 0.374740 0.140163
H99   H     H_    0.776910 0.148660 0.381357 0.134999
H100  H     H_    0.743204 0.104843 0.423515 0.143356
H101  H     H_    0.872426 0.909649 0.723000 0.139344
H102  H     H_    0.277868 0.900803 0.556558 0.137413
H103  H     H_    0.234919 0.898262 0.610839 0.161536
H104  H     H_    0.285172 0.944097 0.601332 0.134575
H105  H     H_    0.123998 0.774399 0.587256 0.141305
H106  H     H_    0.075770 0.741260 0.604474 0.143990
H107  H     H_    0.116843 0.777649 0.646722 0.138427
H108  H     H_    0.853522 0.213125 0.391660 0.131237
H109  H     H_    0.877601 0.220734 0.337830 0.131979
H110  H     H_    0.911399 0.244793 0.393591 0.158100
H111  H     H_    0.773712 0.876500 0.586741 0.140132
H112  H     H_    0.758516 0.895615 0.076095 0.145791
H113  H     H_    0.921834 0.895051 0.755549 0.147035
H114  H     H_    0.740756 0.924704 0.604400 0.142887
H115  H     H_    0.777265 0.883130 0.646249 0.139316
H116  H     H_    0.225161 0.124521 0.412324 0.139309
H117  H     H_    0.223354 0.118078 0.352409 0.141327
H118  H     H_    0.256712 0.075282 0.395656 0.143300
H119  H     H_    0.830984 0.217367 0.626716 0.143789
H120  H     H_    0.894721 0.232024 0.622443 0.168105
H121  H     H_    0.863427 0.224797 0.681523 0.135871
H122  H     H_    0.087583 0.774282 0.375688 0.139394
H123  H     H_    0.104434 0.742534 0.424539 0.144925
H124  H     H_    0.881566 0.850297 0.721328 0.134158
H125  H     H_    0.147413 0.776924 0.382277 0.140025
H126  H     H_    0.225339 0.124818 0.588285 0.138049
H127  H     H_    0.258196 0.075995 0.604639 0.145021
H128  H     H_    0.222241 0.117224 0.647461 0.136549
H129  H     H_    0.791056 0.842649 0.382783 0.123268
H130  H     H_    0.780972 0.874555 0.330596 0.136276
H131  H     H_    0.761204 0.905029 0.391653 0.157012
H132  H     H_    0.723284 0.412840 0.625124 0.140198
H133  H     H_    0.755195 0.395664 0.575974 0.147426
H134  H     H_    0.720407 0.352669 0.617349 0.131170
H135  H     H_    0.126566 0.089413 0.276328 0.140004
H136  H     H_    0.240427 0.599850 0.438497 0.134548
H137  H     H_    0.223095 0.559657 0.396376 0.140140
H138  H     H_    0.270932 0.607591 0.378518 0.151766
H139  H     H_    0.625071 0.411745 0.275300 0.140139
H140  H     H_    0.576585 0.395358 0.242695 0.150113
H141  H     H_    0.617614 0.351973 0.278114 0.138519
H142  H     H_    0.411840 0.625031 0.724815 0.139480
H143  H     H_    0.395369 0.576321 0.757471 0.145584
H144  H     H_    0.352310 0.617522 0.721943 0.138750
H145  H     H_    0.275443 0.374664 0.411320 0.140786
H146  H     H_    0.118282 0.149054 0.278427 0.134303
H147  H     H_    0.277994 0.382621 0.352190 0.132456
H148  H     H_    0.242387 0.423584 0.395372 0.145162
H149  H     H_    0.724204 0.588652 0.625844 0.140093
H150  H     H_    0.721599 0.648319 0.617842 0.134496
H151  H     H_    0.756900 0.604629 0.577177 0.146947
H152  H     H_    0.407710 0.370799 0.722047 0.138727
H153  H     H_    0.349045 0.380915 0.723098 0.139775
H154  H     H_    0.395391 0.421810 0.754615 0.146184
H155  H     H_    0.626472 0.589330 0.276281 0.139837
H156  H     H_    0.618919 0.649324 0.277655 0.134590
H157  H     H_    0.077583 0.104850 0.243952 0.147182
H158  H     H_    0.577255 0.604820 0.244707 0.149067
H159  H     H_    0.724675 0.625147 0.411726 0.139300
H160  H     H_    0.722931 0.617930 0.352079 0.140423
H161  H     H_    0.756713 0.575797 0.395612 0.144123
H162  H     H_    0.275055 0.412047 0.624720 0.139366
H163  H     H_    0.279182 0.352746 0.616473 0.132719
H164  H     H_    0.241060 0.395275 0.576952 0.149396
H165  H     H_    0.625583 0.588710 0.724380 0.139205
H166  H     H_    0.576961 0.604678 0.757234 0.147153
H167  H     H_    0.617809 0.648324 0.721886 0.138156
H168  H     H_    0.713323 0.109673 0.852130 0.136869
H169  H     H_    0.371635 0.330097 0.284620 0.129646
H170  H     H_    0.376797 0.393127 0.268508 0.167677
H171  H     H_    0.316990 0.362137 0.274772 0.128634
H172  H     H_    0.275938 0.588596 0.625774 0.139558
H173  H     H_    0.243231 0.604566 0.577060 0.144611
H174  H     H_    0.278413 0.648249 0.617696 0.134911
H175  H     H_    0.727537 0.378792 0.415574 0.140396
H176  H     H_    0.759591 0.426096 0.395859 0.142480
H177  H     H_    0.722182 0.384020 0.355390 0.142642
H178  H     H_    0.383083 0.656001 0.289796 0.127472
H179  H     H_    0.743846 0.106559 0.910714 0.155332
H180  H     H_    0.331123 0.625015 0.281628 0.138163
H181  H     H_    0.390977 0.595318 0.261355 0.160957
H182  H     H_    0.625681 0.411597 0.724343 0.139913
H183  H     H_    0.617774 0.351886 0.721656 0.136992
H184  H     H_    0.576956 0.395433 0.756926 0.146823
H185  H     H_    0.603357 0.252782 0.433158 0.133130
H186  H     H_    0.611283 0.274055 0.370639 0.150435
H187  H     H_    0.563587 0.228647 0.395860 0.138911
H188  H     H_    0.411276 0.723443 0.625997 0.139241
H189  H     H_    0.351703 0.722423 0.617689 0.136855
H190  H     H_    0.721521 0.163182 0.876849 0.131420
H191  H     H_    0.396058 0.755429 0.575996 0.145312
H192  H     H_    0.588167 0.724642 0.625097 0.139505
H193  H     H_    0.604648 0.757456 0.576547 0.148380
H194  H     H_    0.647741 0.721706 0.617430 0.133912
H195  H     H_    0.373523 0.276197 0.410369 0.140365
H196  H     H_    0.423287 0.243872 0.395420 0.144030
H197  H     H_    0.381445 0.276666 0.351031 0.132475
H198  H     H_    0.375288 0.724859 0.412156 0.141497
H199  H     H_    0.382884 0.722133 0.352723 0.133603
H200  H     H_    0.423768 0.758055 0.395469 0.145174
H201  H     H_    0.274813 0.912386 0.124446 0.139051
H202  H     H_    0.594627 0.279434 0.631669 0.137750
H203  H     H_    0.653164 0.276315 0.620641 0.133781
H204  H     H_    0.605136 0.248037 0.579438 0.146893
H205  H     H_    0.413070 0.273567 0.623624 0.140655
H206  H     H_    0.395604 0.240960 0.575334 0.146740
H207  H     H_    0.353602 0.277694 0.616534 0.135196
H208  H     H_    0.626107 0.723429 0.410992 0.139610
H209  H     H_    0.576747 0.757215 0.395906 0.145751
H210  H     H_    0.616466 0.720981 0.352101 0.135785
H211  H     H_    0.277674 0.852650 0.117202 0.139386
H212  H     H_    0.722399 0.853008 0.117250 0.141499
H213  H     H_    0.241686 0.895592 0.076258 0.145783
H214  H     H_    0.125914 0.089024 0.724143 0.140142
H215  H     H_    0.077095 0.104631 0.757094 0.146303
H216  H     H_    0.117835 0.148433 0.721968 0.128260
H217  H     H_    0.874524 0.911404 0.275544 0.138526
H218  H     H_    0.882196 0.851760 0.278100 0.131687
H219  H     H_    0.923103 0.895325 0.242725 0.148513
H220  H     H_    0.276227 0.089292 0.126287 0.141231
H221  H     H_    0.243446 0.104866 0.077632 0.145250
H222  H     H_    0.278196 0.148998 0.118312 0.137825
H223  H     H_    0.274944 0.087618 0.875369 0.139585
H224  H     H_    0.723304 0.909878 0.872909 0.139762
H225  H     H_    0.721670 0.850364 0.881433 0.133680
H226  H     H_    0.756175 0.894946 0.921844 0.148278
H227  H     H_    0.874660 0.088084 0.275390 0.140912
H228  H     H_    0.923247 0.104564 0.242929 0.146697
H229  H     H_    0.882226 0.147890 0.278217 0.131317
H230  H     H_    0.125920 0.911357 0.724176 0.142469
H231  H     H_    0.117837 0.851702 0.721668 0.137041
H232  H     H_    0.077080 0.895424 0.756785 0.145496
H233  H     H_    0.086639 0.273888 0.876429 0.139899
H234  H     H_    0.277693 0.147356 0.882636 0.136162
H235  H     H_    0.104356 0.240882 0.924489 0.143687
H236  H     H_    0.146286 0.277531 0.883239 0.142707
H237  H     H_    0.913302 0.726067 0.123622 0.140898
H238  H     H_    0.853642 0.722468 0.116800 0.137365
H239  H     H_    0.895623 0.759057 0.075547 0.144738
H240  H     H_    0.087182 0.725747 0.123954 0.138958
H241  H     H_    0.104474 0.758923 0.075849 0.146175
H242  H     H_    0.146759 0.722406 0.116942 0.134942
H243  H     H_    0.908957 0.277651 0.871861 0.141824
H244  H     H_    0.850079 0.278075 0.881608 0.135254
H245  H     H_    0.241794 0.104412 0.923631 0.145860
H246  H     H_    0.895239 0.244633 0.922113 0.146453
H247  H     H_    0.913613 0.726235 0.876589 0.139503
H248  H     H_    0.896032 0.759669 0.924825 0.145748
H249  H     H_    0.854386 0.722502 0.883905 0.135205
H250  H     H_    0.078733 0.265659 0.116178 0.141843
H251  H     H_    0.140491 0.276852 0.115249 0.147644
H252  H     H_    0.104779 0.236742 0.071638 0.140922
H253  H     H_    0.914017 0.273076 0.122759 0.140149
H254  H     H_    0.895641 0.240302 0.075056 0.145106
H255  H     H_    0.854225 0.277388 0.116482 0.137328
H256  H     H_    0.125367 0.911462 0.275531 0.139308
H257  H     H_    0.086584 0.726382 0.876631 0.139479
H258  H     H_    0.146218 0.722495 0.883401 0.135670
H259  H     H_    0.104370 0.759345 0.924598 0.145898
H260  H     H_    0.282432 0.397421 0.057129 0.139814
H261  H     H_    0.242840 0.405844 0.109490 0.164070
H262  H     H_    0.297652 0.443315 0.100162 0.135768
H263  H     H_    0.774950 0.587633 0.875357 0.139549
H264  H     H_    0.777686 0.647372 0.882622 0.136236
H265  H     H_    0.741804 0.604416 0.923624 0.145791
H266  H     H_    0.087812 0.375440 0.774838 0.139729
H267  H     H_    0.076754 0.895349 0.242843 0.147116
H268  H     H_    0.146700 0.384064 0.778891 0.141098
H269  H     H_    0.104244 0.423953 0.741129 0.145484
H270  H     H_    0.899330 0.561995 0.257428 0.132235
H271  H     H_    0.892777 0.622384 0.230071 0.155722
H272  H     H_    0.939938 0.602758 0.277767 0.137847
H273  H     H_    0.775470 0.411659 0.874684 0.141987
H274  H     H_    0.742269 0.395463 0.923120 0.145352
H275  H     H_    0.777877 0.352008 0.882356 0.137028
H276  H     H_    0.224306 0.588407 0.125447 0.139461
H277  H     H_    0.220929 0.647592 0.116594 0.135346
H278  H     H_    0.117650 0.851777 0.278181 0.137848
H279  H     H_    0.257941 0.604282 0.076936 0.144536
H280  H     H_    0.895528 0.431659 0.244396 0.128525
H281  H     H_    0.934778 0.395830 0.271798 0.140559
H282  H     H_    0.888347 0.369011 0.225779 0.150804
H283  H     H_    0.124916 0.587991 0.775296 0.138876
H284  H     H_    0.117435 0.647656 0.777775 0.139480
H285  H     H_    0.076564 0.604457 0.742133 0.144765
H286  H     H_    0.225875 0.587167 0.876113 0.139085
H287  H     H_    0.258891 0.604341 0.924161 0.143591
H288  H     H_    0.222619 0.646881 0.883007 0.137206
O1    O     O_R   0.947350 0.816370 0.242430 -0.532501
O2    O     O_R   0.052650 0.816370 0.242430 -0.532923
O3    O     O_R   0.257570 0.183630 0.447350 -0.527881
O4    O     O_R   0.552650 0.816370 0.257570 -0.516968
O5    O     O_R   0.447350 0.183630 0.742430 -0.536494
O6    O     O_R   0.257570 0.816370 0.447350 -0.530366
O7    O     O_R   0.742430 0.183630 0.552650 -0.523265
O8    O     O_R   0.447350 0.183630 0.257570 -0.529819
O9    O     O_R   0.552650 0.816370 0.742430 -0.525895
O10   O     O_R   0.742430 0.183630 0.447350 -0.539119
O11   O     O_R   0.257570 0.816370 0.552650 -0.516663
O12   O     O_R   0.552650 0.183630 0.742430 -0.521367
O13   O     O_R   0.242430 0.183630 0.947350 -0.529529
O14   O     O_R   0.447350 0.816370 0.257570 -0.533963
O15   O     O_R   0.257570 0.183630 0.552650 -0.528330
O16   O     O_R   0.742430 0.816370 0.447350 -0.519560
O17   O     O_R   0.183630 0.742430 0.552650 -0.522532
O18   O     O_R   0.816370 0.257570 0.447350 -0.518660
O19   O     O_R   0.183630 0.552650 0.257570 -0.524870
O20   O     O_R   0.816370 0.447350 0.742430 -0.521070
O21   O     O_R   0.183630 0.257570 0.447350 -0.525494
O22   O     O_R   0.816370 0.742430 0.552650 -0.524550
O23   O     O_R   0.183630 0.447350 0.742430 -0.531933
O24   O     O_R   0.757570 0.816370 0.052650 -0.527611
O25   O     O_R   0.816370 0.552650 0.257570 -0.521097
O26   O     O_R   0.816370 0.257570 0.552650 -0.510175
O27   O     O_R   0.183630 0.742430 0.447350 -0.533757
O28   O     O_R   0.816370 0.447350 0.257570 -0.521446
O29   O     O_R   0.183630 0.552650 0.742430 -0.526387
O30   O     O_R   0.816370 0.742430 0.447350 -0.530771
O31   O     O_R   0.183630 0.257570 0.552650 -0.515428
O32   O     O_R   0.816370 0.552650 0.742430 -0.531675
O33   O     O_R   0.183630 0.447350 0.257570 -0.523058
O34   O     O_R   0.257570 0.552650 0.816370 -0.526436
O35   O     O_R   0.052650 0.183630 0.242430 -0.532407
O36   O     O_R   0.742430 0.447350 0.183630 -0.525656
O37   O     O_R   0.447350 0.257570 0.816370 -0.528192
O38   O     O_R   0.552650 0.742430 0.183630 -0.517007
O39   O     O_R   0.742430 0.447350 0.816370 -0.524509
O40   O     O_R   0.257570 0.552650 0.183630 -0.526139
O41   O     O_R   0.552650 0.742430 0.816370 -0.525323
O42   O     O_R   0.447350 0.257570 0.183630 -0.526150
O43   O     O_R   0.742430 0.552650 0.183630 -0.525493
O44   O     O_R   0.257570 0.447350 0.816370 -0.528095
O45   O     O_R   0.552650 0.257570 0.183630 -0.521715
O46   O     O_R   0.947350 0.816370 0.757570 -0.532200
O47   O     O_R   0.447350 0.742430 0.816370 -0.530364
O48   O     O_R   0.257570 0.447350 0.183630 -0.521994
O49   O     O_R   0.742430 0.552650 0.816370 -0.527886
O50   O     O_R   0.447350 0.742430 0.183630 -0.536243
O51   O     O_R   0.552650 0.257570 0.816370 -0.522871
O52   O     O_R   0.947350 0.316370 0.742430 -0.521944
O53   O     O_R   0.052650 0.683630 0.257570 -0.535379
O54   O     O_R   0.742430 0.316370 0.052650 -0.529732
O55   O     O_R   0.257570 0.683630 0.947350 -0.529955
O56   O     O_R   0.052650 0.316370 0.257570 -0.530859
O57   O     O_R   0.757570 0.183630 0.052650 -0.528387
O58   O     O_R   0.947350 0.683630 0.742430 -0.530277
O59   O     O_R   0.257570 0.316370 0.947350 -0.520527
O60   O     O_R   0.742430 0.683630 0.052650 -0.529397
O61   O     O_R   0.947350 0.683630 0.257570 -0.527489
O62   O     O_R   0.052650 0.316370 0.742430 -0.526673
O63   O     O_R   0.742430 0.683630 0.947350 -0.530182
O64   O     O_R   0.257570 0.316370 0.052650 -0.519060
O65   O     O_R   0.052650 0.683630 0.742430 -0.530471
O66   O     O_R   0.947350 0.316370 0.257570 -0.530803
O67   O     O_R   0.257570 0.683630 0.052650 -0.532509
O68   O     O_R   0.242430 0.816370 0.947350 -0.529725
O69   O     O_R   0.742430 0.316370 0.947350 -0.530181
O70   O     O_R   0.683630 0.742430 0.052650 -0.527309
O71   O     O_R   0.316370 0.257570 0.947350 -0.533924
O72   O     O_R   0.683630 0.052650 0.257570 -0.534553
O73   O     O_R   0.316370 0.947350 0.742430 -0.529721
O74   O     O_R   0.683630 0.257570 0.947350 -0.531508
O75   O     O_R   0.316370 0.742430 0.052650 -0.524433
O76   O     O_R   0.683630 0.947350 0.742430 -0.534206
O77   O     O_R   0.316370 0.052650 0.257570 -0.517529
O78   O     O_R   0.316370 0.257570 0.052650 -0.533360
O79   O     O_R   0.183630 0.242430 0.052650 -0.527648
O80   O     O_R   0.683630 0.742430 0.947350 -0.532040
O81   O     O_R   0.316370 0.947350 0.257570 -0.528106
O82   O     O_R   0.683630 0.052650 0.742430 -0.530740
O83   O     O_R   0.316370 0.742430 0.947350 -0.529967
O84   O     O_R   0.683630 0.257570 0.052650 -0.530027
O85   O     O_R   0.316370 0.052650 0.742430 -0.524608
O86   O     O_R   0.683630 0.947350 0.257570 -0.533606
O87   O     O_R   0.257570 0.052650 0.316370 -0.534235
O88   O     O_R   0.742430 0.947350 0.683630 -0.534472
O89   O     O_R   0.947350 0.257570 0.316370 -0.526882
O90   O     O_R   0.816370 0.757570 0.947350 -0.530116
O91   O     O_R   0.052650 0.742430 0.683630 -0.530583
O92   O     O_R   0.742430 0.947350 0.316370 -0.526219
O93   O     O_R   0.257570 0.052650 0.683630 -0.536643
O94   O     O_R   0.052650 0.742430 0.316370 -0.524998
O95   O     O_R   0.947350 0.257570 0.683630 -0.518582
O96   O     O_R   0.742430 0.052650 0.683630 -0.523706
O97   O     O_R   0.257570 0.947350 0.316370 -0.535403
O98   O     O_R   0.052650 0.257570 0.683630 -0.525194
O99   O     O_R   0.947350 0.742430 0.316370 -0.530056
O100  O     O_R   0.257570 0.947350 0.683630 -0.523348
O101  O     O_R   0.183630 0.052650 0.757570 -0.527588
O102  O     O_R   0.742430 0.052650 0.316370 -0.523156
O103  O     O_R   0.947350 0.742430 0.683630 -0.530635
O104  O     O_R   0.052650 0.257570 0.316370 -0.529376
O105  O     O_R   0.052650 0.183630 0.757570 -0.537806
O106  O     O_R   0.816370 0.947350 0.242430 -0.529771
O107  O     O_R   0.183630 0.757570 0.947350 -0.529884
O108  O     O_R   0.816370 0.242430 0.052650 -0.529583
O109  O     O_R   0.183630 0.947350 0.242430 -0.527129
O110  O     O_R   0.816370 0.052650 0.757570 -0.518193
O111  O     O_R   0.816370 0.757570 0.052650 -0.529665
O112  O     O_R   0.183630 0.242430 0.947350 -0.528988
O113  O     O_R   0.816370 0.947350 0.757570 -0.529379
O114  O     O_R   0.183630 0.052650 0.242430 -0.526411
O115  O     O_R   0.816370 0.242430 0.947350 -0.530136
O116  O     O_R   0.242430 0.816370 0.052650 -0.529998
O117  O     O_R   0.183630 0.757570 0.052650 -0.530253
O118  O     O_R   0.816370 0.052650 0.242430 -0.526867
O119  O     O_R   0.183630 0.947350 0.757570 -0.524421
O120  O     O_R   0.757570 0.052650 0.816370 -0.519286
O121  O     O_R   0.242430 0.947350 0.183630 -0.526993
O122  O     O_R   0.947350 0.757570 0.816370 -0.524540
O123  O     O_R   0.052650 0.242430 0.183630 -0.524571
O124  O     O_R   0.242430 0.947350 0.816370 -0.528452
O125  O     O_R   0.757570 0.052650 0.183630 -0.525705
O126  O     O_R   0.052650 0.242430 0.816370 -0.525900
O127  O     O_R   0.757570 0.183630 0.947350 -0.526603
O128  O     O_R   0.947350 0.757570 0.183630 -0.521964
O129  O     O_R   0.242430 0.052650 0.183630 -0.524776
O130  O     O_R   0.757570 0.947350 0.816370 -0.526196
O131  O     O_R   0.052650 0.757570 0.183630 -0.524499
O132  O     O_R   0.947350 0.242430 0.816370 -0.522296
O133  O     O_R   0.757570 0.947350 0.183630 -0.525800
O134  O     O_R   0.242430 0.052650 0.816370 -0.526737
O135  O     O_R   0.947350 0.242430 0.183630 -0.523750
O136  O     O_R   0.052650 0.757570 0.816370 -0.524179
O137  O     O_R   0.447350 0.316370 0.242430 -0.513328
O138  O     O_R   0.052650 0.816370 0.757570 -0.532437
O139  O     O_R   0.552650 0.683630 0.757570 -0.534412
O140  O     O_R   0.242430 0.316370 0.552650 -0.533864
O141  O     O_R   0.757570 0.683630 0.447350 -0.528339
O142  O     O_R   0.552650 0.316370 0.757570 -0.533734
O143  O     O_R   0.447350 0.683630 0.242430 -0.515779
O144  O     O_R   0.757570 0.316370 0.447350 -0.524550
O145  O     O_R   0.242430 0.683630 0.552650 -0.535370
O146  O     O_R   0.447350 0.683630 0.757570 -0.528440
O147  O     O_R   0.552650 0.316370 0.242430 -0.529456
O148  O     O_R   0.242430 0.683630 0.447350 -0.518119
O149  O     O_R   0.947350 0.183630 0.242430 -0.533793
O150  O     O_R   0.757570 0.316370 0.552650 -0.533174
O151  O     O_R   0.552650 0.683630 0.242430 -0.530533
O152  O     O_R   0.447350 0.316370 0.757570 -0.526763
O153  O     O_R   0.757570 0.683630 0.552650 -0.533865
O154  O     O_R   0.242430 0.316370 0.447350 -0.526561
O155  O     O_R   0.683630 0.242430 0.552650 -0.536772
O156  O     O_R   0.316370 0.757570 0.447350 -0.525970
O157  O     O_R   0.683630 0.552650 0.757570 -0.527805
O158  O     O_R   0.316370 0.447350 0.242430 -0.519815
O159  O     O_R   0.683630 0.757570 0.447350 -0.527279
O160  O     O_R   0.757570 0.816370 0.947350 -0.529384
O161  O     O_R   0.316370 0.242430 0.552650 -0.535412
O162  O     O_R   0.683630 0.447350 0.242430 -0.526297
O163  O     O_R   0.316370 0.552650 0.757570 -0.534421
O164  O     O_R   0.316370 0.757570 0.552650 -0.533473
O165  O     O_R   0.683630 0.242430 0.447350 -0.519894
O166  O     O_R   0.316370 0.447350 0.757570 -0.530637
O167  O     O_R   0.683630 0.552650 0.242430 -0.526777
O168  O     O_R   0.316370 0.242430 0.447350 -0.527739
O169  O     O_R   0.683630 0.757570 0.552650 -0.533350
O170  O     O_R   0.316370 0.552650 0.242430 -0.524701
O171  O     O_R   0.242430 0.183630 0.052650 -0.529282
O172  O     O_R   0.683630 0.447350 0.757570 -0.526978
O173  O     O_R   0.757570 0.552650 0.316370 -0.535176
O174  O     O_R   0.242430 0.447350 0.683630 -0.524183
O175  O     O_R   0.447350 0.757570 0.316370 -0.533626
O176  O     O_R   0.552650 0.242430 0.683630 -0.527492
O177  O     O_R   0.242430 0.447350 0.316370 -0.536684
O178  O     O_R   0.757570 0.552650 0.683630 -0.529663
O179  O     O_R   0.552650 0.242430 0.316370 -0.534437
O180  O     O_R   0.447350 0.757570 0.683630 -0.527710
O181  O     O_R   0.242430 0.552650 0.683630 -0.527280
O182  O     O_R   0.947350 0.183630 0.757570 -0.533090
O183  O     O_R   0.757570 0.447350 0.316370 -0.535926
O184  O     O_R   0.552650 0.757570 0.683630 -0.527579
O185  O     O_R   0.447350 0.242430 0.316370 -0.535613
O186  O     O_R   0.757570 0.447350 0.683630 -0.527778
O187  O     O_R   0.242430 0.552650 0.316370 -0.534561
O188  O     O_R   0.447350 0.242430 0.683630 -0.525721
O189  O     O_R   0.552650 0.757570 0.316370 -0.533950
O190  O     O_R   0.447350 0.816370 0.742430 -0.522890
O191  O     O_R   0.552650 0.183630 0.257570 -0.521738
O192  O     O_R   0.742430 0.816370 0.552650 -0.523069

loop_
_geom_bond_atom_site_label_1
_geom_bond_atom_site_label_2
_ccdc_geom_bond_type
C259  H33   S    
Cu24  O175  S    
C355  O151  A    
C73   C206  A    
C219  H135  S    
C1    C95   S    
Cu7   Cu10  S    
C140  C247  S    
C371  O117  A    
C323  O32   A    
C145  C252  S    
Cu25  O144  S    
Cu48  O59   S    
Cu9   O130  S    
Cu15  O133  S    
C58   C164  A    
Cu42  O23   S    
C70   C329  S    
C250  H8    S    
Cu41  O20   S    
C25   C105  A    
C88   C177  A    
C335  O22   A    
C83   C154  A    
C327  O28   A    
C15   C357  S    
C87   C176  A    
C117  C383  A    
C13   O71   A    
C238  H259  S    
Cu38  O6    S    
C81   C124  S    
C294  H140  S    
C241  H266  S    
Cu37  O5    S    
Cu40  O40   S    
C132  C239  S    
C81   C178  A    
C304  H169  S    
C283  H107  S    
C312  O188  A    
C51   C158  A    
C28   C332  S    
C75   C322  S    
C43   C212  S    
C28   C195  A    
C364  O24   A    
C246  O11   A    
C252  H12   S    
C26   C197  A    
C36   C142  A    
C314  H199  S    
C257  O190  A    
C287  H121  S    
Cu28  O158  S    
C363  O64   A    
C237  H254  S    
Cu6   O69   S    
C124  O88   A    
Cu42  O34   S    
C271  H69   S    
C39   C338  S    
C157  O100  A    
C310  H191  S    
C268  O179  A    
C371  O116  A    
C198  C305  S    
C133  C240  S    
C236  H250  S    
C357  O2    A    
C360  O35   A    
C295  H143  S    
C324  O33   A    
C330  O65   A    
Cu47  O171  S    
C171  C277  S    
C310  H188  S    
Cu11  O136  S    
C168  O185  A    
C257  O180  A    
Cu4   Cu15  S    
C80   C146  S    
C213  H245  S    
C14   C121  A    
C22   C130  A    
C329  O17   A    
C348  O36   A    
C240  H263  S    
C338  O167  A    
C291  H130  S    
C375  O119  A    
Cu12  O105  S    
C13   O59   A    
C31   C200  A    
C219  H157  S    
C220  H168  S    
C269  H64   S    
Cu23  O83   S    
C178  C285  S    
C232  H242  S    
C337  O186  A    
C30   C202  A    
Cu48  O79   S    
C237  H253  S    
C74   C321  S    
C9    C128  A    
C292  H134  S    
C163  C270  S    
C7    C119  A    
C229  H230  S    
C380  O101  A    
C29   C333  S    
C224  O175  A    
C32   C139  A    
C99   C162  A    
Cu28  O177  S    
C55   C355  S    
C73   C320  S    
C74   C181  A    
C17   C127  A    
C47   C153  A    
C58   C205  A    
Cu4   O102  S    
C89   C143  A    
C261  H40   S    
C273  H75   S    
Cu2   Cu46  S    
Cu6   Cu34  S    
C25   C364  S    
C220  H179  S    
Cu12  O98   S    
C85   C151  A    
C134  C241  S    
C337  O20   A    
Cu36  O50   S    
C339  O44   A    
C11   C365  S    
C270  H65   S    
C288  H125  S    
C277  H88   S    
C40   C192  A    
C370  O149  A    
C57   C97   S    
C39   C145  A    
Cu40  O19   S    
C227  H225  S    
C4    C122  A    
Cu11  Cu44  S    
C299  H158  S    
Cu3   O101  S    
C120  C227  S    
C308  H182  S    
Cu24  Cu36  S    
C57   O84   A    
C103  C152  A    
C344  O157  A    
C317  H210  S    
C72   C318  S    
C228  H228  S    
C19   C120  A    
C201  O159  A    
Cu10  O81   S    
C158  C264  S    
Cu36  O38   S    
Cu14  O73   S    
C376  O130  A    
C381  C382  S    
C362  O13   A    
Cu21  Cu33  S    
C88   C341  S    
Cu32  O8    S    
Cu33  O16   S    
C379  O120  A    
C250  H6    S    
C45   C152  A    
C50   C345  S    
C287  H120  S    
C286  H118  S    
C190  O161  A    
C157  O73   A    
C14   C130  A    
C267  H60   S    
C174  C281  S    
Cu8   O88   S    
C238  H257  S    
C43   C208  A    
C20   C368  S    
C241  H268  S    
C309  H186  S    
C49   C155  A    
Cu30  Cu42  S    
Cu12  Cu16  S    
Cu8   O110  S    
C304  H171  S    
C105  C211  S    
C283  H105  S    
C264  H49   S    
C4    C375  S    
C332  O23   A    
C235  O10   A    
C212  O12   A    
C260  H36   S    
C62   C326  S    
C194  C300  S    
C305  H173  S    
C168  O8    A    
C64   C171  A    
C252  H14   S    
C222  H215  S    
Cu1   O2    S    
Cu44  O91   S    
C154  C261  S    
Cu17  O53   S    
C42   C324  S    
Cu20  O140  S    
C66   C173  A    
C328  O181  A    
C245  H280  S    
C24   O70   A    
Cu13  O66   S    
C92   C172  A    
C279  O156  A    
C370  O135  A    
C93   C173  A    
C266  H55   S    
C243  H274  S    
C347  O163  A    
C313  H196  S    
C224  O14   A    
Cu34  O74   S    
C226  H221  S    
C315  H203  S    
C324  O177  A    
Cu10  O121  S    
C97   C142  A    
C108  C215  S    
C67   C203  A    
C100  C137  A    
C262  H43   S    
C137  C243  S    
C211  H1    S    
C223  O67   A    
C354  O37   A    
C249  H3    S    
C300  H161  S    
C8    C129  A    
Cu2   O90   S    
Cu43  O25   S    
C297  H150  S    
Cu5   O117  S    
C27   C196  A    
C69   C175  A    
C201  O16   A    
C70   C176  A    
C285  H114  S    
Cu37  O51   S    
Cu45  O104  S    
C351  O172  A    
Cu41  O49   S    
C4    C109  A    
C237  H255  S    
C34   C141  A    
C160  C266  S    
C30   C351  S    
C165  C272  S    
Cu23  O75   S    
Cu29  O167  S    
C6    C111  A    
Cu45  O35   S    
C229  H232  S    
C7    C377  S    
C42   C189  A    
C72   C178  A    
C87   C140  A    
C367  O90   A    
C248  H286  S    
C141  C248  S    
C298  H152  S    
C330  O91   A    
Cu8   O113  S    
C364  O111  A    
C206  C313  S    
C90   O86   A    
C329  O145  A    
C39   C193  A    
C273  H77   S    
C53   C203  A    
C54   C192  A    
C215  H24   S    
C302  H164  S    
C259  H32   S    
C343  O48   A    
Cu21  O159  S    
Cu11  O58   S    
C249  H4    S    
Cu20  O154  S    
C213  H234  S    
C86   C150  A    
C210  C317  S    
C291  H131  S    
C79   C84   S    
C289  H127  S    
Cu13  O56   S    
C372  O127  A    
C98   C147  A    
C146  O102  A    
C305  H172  S    
Cu1   O1    S    
Cu38  O27   S    
C263  H47   S    
Cu48  O64   S    
C265  H53   S    
C97   C156  A    
C61   C325  S    
C299  H156  S    
Cu5   O55   S    
Cu27  O178  S    
C319  O69   A    
C308  H184  S    
C298  H153  S    
C135  O87   A    
C65   C334  S    
C175  C282  S    
C230  H235  S    
Cu3   O93   S    
Cu17  O128  S    
C261  H41   S    
C381  O106  A    
C274  H81   S    
Cu23  O116  S    
Cu3   O119  S    
C94   C169  A    
C135  O77   A    
C104  C153  A    
C265  H52   S    
C342  O142  A    
C169  C275  S    
Cu1   Cu17  S    
C59   C165  A    
C277  H89   S    
C74   C185  A    
C276  H86   S    
C213  H223  S    
C45   C196  A    
C236  H252  S    
C99   C145  A    
C70   C198  A    
C142  C249  S    
Cu14  O85   S    
Cu13  Cu45  S    
C255  H25   S    
C82   C163  A    
C117  C222  S    
Cu36  O4    S    
C254  H21   S    
Cu15  O72   S    
Cu33  O30   S    
C47   C350  S    
C235  O165  A    
C374  O95   A    
C317  H208  S    
C221  H213  S    
C31   C353  S    
C336  O19   A    
C192  C298  S    
C27   C344  S    
Cu16  O52   S    
C216  H46   S    
C127  C233  S    
Cu39  O10   S    
C260  H38   S    
C41   C191  A    
C65   C172  A    
Cu22  Cu37  S    
Cu20  O168  S    
C76   C190  S    
C183  C289  S    
C378  O109  A    
C46   C93   S    
C48   C301  S    
C296  H148  S    
C12   C131  A    
C112  O62   A    
C275  H84   S    
C219  H146  S    
C272  H74   S    
C63   C170  A    
C23   C123  A    
C118  C382  A    
C22   C110  A    
C372  O115  A    
Cu38  O11   S    
C147  C253  S    
C44   C207  A    
C293  H137  S    
C17   C372  S    
C352  O63   A    
Cu11  O122  S    
Cu25  O165  S    
C35   O56   A    
Cu39  O26   S    
C346  O47   A    
C281  H98   S    
Cu5   O67   S    
C76   C183  A    
Cu30  O166  S    
C69   C246  S    
Cu10  O129  S    
Cu47  Cu48  S    
C59   C200  A    
C46   O58   A    
Cu24  O151  S    
C251  H10   S    
Cu36  O14   S    
Cu22  O152  S    
C214  H267  S    
C258  H29   S    
Cu12  O182  S    
C267  H61   S    
C334  O21   A    
C276  H87   S    
C43   C150  A    
Cu10  O77   S    
Cu18  O179  S    
Cu15  O125  S    
Cu3   Cu14  S    
C77   C210  A    
C380  C383  S    
C44   C224  S    
C105  C382  A    
C278  H93   S    
C225  H217  S    
C111  C218  S    
C164  C271  S    
Cu47  O71   S    
C359  O68   A    
Cu16  O126  S    
Cu33  O192  S    
C104  C132  A    
C78   C175  A    
C81   C164  A    
C245  H281  S    
C115  C220  S    
C75   C186  A    
Cu19  O139  S    
Cu26  O145  S    
C218  H124  S    
Cu40  O48   S    
C227  H224  S    
C92   C149  A    
C247  H283  S    
C341  O66   A    
C17   C115  A    
Cu4   O106  S    
C122  C229  S    
C79   O93   A    
C101  O97   A    
Cu34  O57   S    
C244  H276  S    
Cu19  O184  S    
C302  H162  S    
Cu20  Cu35  S    
C144  C251  S    
C239  H262  S    
Cu21  O153  S    
C373  O118  A    
C271  H71   S    
C125  C231  S    
C358  O57   A    
C95   C167  A    
C46   O103  A    
C107  C384  A    
C21   C109  A    
Cu30  O174  S    
C258  H31   S    
C197  C304  S    
Cu29  O173  S    
C3    C108  A    
C149  C255  S    
Cu23  O68   S    
C362  O112  A    
Cu24  O189  S    
C297  H151  S    
C294  H141  S    
C233  H243  S    
C139  C245  S    
C10   C117  A    
C304  H170  S    
C190  O15   A    
C79   O85   A    
C216  H57   S    
C230  H233  S    
C63   C279  S    
C123  C230  S    
C215  H13   S    
C161  C267  S    
C354  O152  A    
C350  O42   A    
C378  O121  A    
C94   C112  S    
C95   C136  A    
C3    C379  S    
C373  O125  A    
Cu43  O28   S    
C20   C119  A    
C54   C161  A    
Cu20  O161  S    
C306  H175  S    
C16   C127  A    
C100  C319  S    
C277  H91   S    
C86   C171  A    
C323  O178  A    
Cu32  O42   S    
Cu16  O132  S    
Cu37  O37   S    
C59   C340  S    
Cu31  O41   S    
C69   C204  A    
C264  H51   S    
C243  H275  S    
C47   C197  A    
Cu18  Cu32  S    
C63   C207  A    
C295  H144  S    
C75   C182  A    
C381  O133  A    
C254  H19   S    
C40   C147  A    
C318  O169  A    
C179  O9    A    
Cu13  O123  S    
C119  C226  S    
C5    C373  S    
C248  H288  S    
C76   C209  A    
Cu16  O62   S    
C130  C237  S    
C207  C314  S    
C377  O129  A    
Cu1   O99   S    
C367  O160  A    
Cu5   Cu23  S    
C321  O26   A    
C282  H102  S    
C20   C129  A    
C109  C216  S    
C234  H247  S    
C275  H82   S    
C333  O25   A    
Cu47  O13   S    
Cu42  O44   S    
C211  H212  S    
C269  H63   S    
Cu41  O39   S    
C148  C254  S    
C244  H277  S    
C8    C360  S    
C312  O5    A    
C68   C96   S    
C344  O49   A    
C345  O147  A    
C86   C113  S    
C28   C134  A    
C199  C306  S    
C11   C125  A    
Cu19  O146  S    
C281  H100  S    
Cu45  O89   S    
C35   O104  A    
C263  H45   S    
C280  H96   S    
C80   C160  A    
C2    O53   A    
C1    O61   A    
C326  O31   A    
Cu5   O107  S    
C131  C238  S    
C90   O92   A    
C261  H39   S    
C19   C128  A    
C332  O174  A    
C313  H195  S    
C93   C148  A    
C284  H108  S    
C12   C369  S    
Cu24  O143  S    
C15   C107  A    
C82   C135  S    
C106  C213  S    
C42   C149  A    
C25   C125  A    
C21   C131  A    
C306  H177  S    
C48   C154  A    
C96   C141  A    
C270  H66   S    
C73   C180  A    
C225  H219  S    
C331  O18   A    
C231  H237  S    
C211  H112  S    
C11   C118  A    
C356  O182  A    
C8    C114  A    
Cu35  O21   S    
C256  H27   S    
Cu14  O124  S    
C18   C371  S    
C212  O176  A    
C365  O128  A    
Cu8   O96   S    
C10   C366  S    
C242  H270  S    
C311  H194  S    
C19   C367  S    
C49   C312  S    
C179  O184  A    
C209  C316  S    
Cu22  O176  S    
C22   C358  S    
C253  H17   S    
C322  O27   A    
C35   C92   S    
Cu13  O135  S    
C259  H34   S    
C124  O76   A    
Cu19  Cu31  S    
C285  H111  S    
C30   C137  A    
C380  O134  A    
C307  H180  S    
C71   C331  S    
C62   C195  A    
Cu38  O17   S    
C146  O72   A    
C167  C274  S    
C282  H104  S    
C250  H7    S    
C352  O80   A    
C376  O113  A    
C287  H119  S    
C102  C223  S    
C280  H97   S    
C272  H72   S    
C267  H59   S    
Cu9   O82   S    
C358  O108  A    
C356  O132  A    
C266  H58   S    
C238  H258  S    
C129  C236  S    
C294  H139  S    
C21   C359  S    
C255  H22   S    
C309  H185  S    
C369  O138  A    
C231  H238  S    
Cu44  O138  S    
Cu2   O111  S    
Cu25  O155  S    
C217  H90   S    
C116  C384  A    
C18   C116  A    
C264  H50   S    
C71   C177  A    
C54   C354  S    
C316  H206  S    
C280  H95   S    
C274  H80   S    
C357  O131  A    
Cu18  O137  S    
Cu41  O32   S    
C60   C166  A    
C77   C201  S    
C52   C204  A    
C340  O143  A    
C27   C133  A    
C2    C89   S    
C222  H216  S    
Cu27  O172  S    
C291  H129  S    
Cu22  O188  S    
Cu43  O36   S    
Cu22  O142  S    
Cu27  Cu41  S    
C177  C284  S    
C37   C186  A    
C271  H70   S    
Cu31  O47   S    
Cu29  O162  S    
C45   C349  S    
C266  H56   S    
C243  H273  S    
C41   C323  S    
C226  H222  S    
Cu7   O114  S    
C66   C335  S    
C293  H136  S    
C184  C291  S    
C220  H190  S    
C361  O122  A    
C18   C126  A    
Cu28  O187  S    
C368  O171  A    
C262  H44   S    
C193  C299  S    
C340  O50   A    
C284  H109  S    
C368  O79   A    
C10   C123  A    
C290  O7    A    
C91   C181  A    
C51   C346  S    
C251  H11   S    
C305  H174  S    
C159  C265  S    
C9    C361  S    
C38   C185  A    
Cu43  O43   S    
C98   C161  A    
C138  C244  S    
Cu27  O157  S    
Cu17  O61   S    
C232  H241  S    
C244  H279  S    
Cu7   O87   S    
C34   C347  S    
C53   C160  A    
C88   C139  A    
C292  H133  S    
C37   C143  A    
Cu37  O12   S    
Cu46  O70   S    
C38   C144  A    
C229  H231  S    
C341  O89   A    
Cu9   O76   S    
Cu26  O148  S    
C26   C343  S    
C231  H239  S    
C71   C199  A    
C72   C205  A    
Cu46  O160  S    
C110  C217  S    
C32   C199  A    
C336  O187  A    
C325  O30   A    
C273  H76   S    
C214  H256  S    
C85   C170  A    
C320  O168  A    
Cu9   O120  S    
C136  C242  S    
C116  C221  S    
C296  H145  S    
C36   C187  A    
C318  O192  A    
C89   C182  A    
C307  H178  S    
Cu4   O118  S    
C233  H244  S    
C80   C174  A    
Cu6   O54   S    
C3    C115  A    
Cu29  Cu43  S    
C379  O110  A    
C327  O183  A    
C289  H126  S    
Cu31  O190  S    
C40   C339  S    
C36   C348  S    
C361  O46   A    
C113  O96   A    
C365  O1    A    
C52   C257  S    
Cu8   Cu9   S    
Cu29  O183  S    
C227  H226  S    
C221  H201  S    
C83   C184  A    
C32   C327  S    
C26   C132  A    
C180  C286  S    
Cu25  O150  S    
C181  C287  S    
C301  O4    A    
C182  C288  S    
C303  H166  S    
C230  H236  S    
C78   C159  A    
C300  H160  S    
C29   C136  A    
C12   C122  A    
C112  O98   A    
C5    C110  A    
C49   C209  A    
Cu19  O180  S    
Cu28  Cu40  S    
C16   C356  S    
C57   O54   A    
C67   C174  A    
C61   C167  A    
C37   C336  S    
C14   C370  S    
C153  C260  S    
C348  O162  A    
C106  C383  A    
C68   O55   A    
C172  C278  S    
C375  O124  A    
C7    C114  A    
C204  C310  S    
C226  H220  S    
Cu47  O78   S    
C41   C148  A    
Cu32  O45   S    
C9    C111  A    
C96   C158  A    
C143  C250  S    
C176  C283  S    
C228  H229  S    
C24   C99   S    
C241  H269  S    
C309  H187  S    
C126  C232  S    
Cu40  O33   S    
C152  C259  S    
C347  O34   A    
C114  C219  S    
C162  C269  S    
C170  C276  S    
C283  H106  S    
C314  H200  S    
C91   C374  S    
C343  O158  A    
C274  H78   S    
C355  O38   A    
C284  H110  S    
C64   C208  A    
C56   C163  A    
Cu7   O97   S    
C121  C228  S    
Cu12  O95   S    
Cu46  O80   S    
C290  O155  A    
C33   C198  A    
C339  O166  A    
C297  H149  S    
C222  H214  S    
Cu42  O29   S    
C214  H278  S    
C228  H227  S    
C325  O141  A    
Cu30  O163  S    
C38   C337  S    
C275  H83   S    
C276  H85   S    
C84   C155  A    
C191  C297  S    
C101  O81   A    
C333  O173  A    
C33   C140  A    
Cu26  O156  S    
C29   C194  A    
C369  O136  A    
C360  O123  A    
C5    C121  A    
C315  H204  S    
C77   C184  A    
Cu35  O31   S    
Cu14  O134  S    
C100  C166  A    
C102  C138  A    
C236  H251  S    
C6    C376  S    
C13   C98   S    
C186  C293  S    
C295  H142  S    
Cu4   O92   S    
C262  H42   S    
C155  C262  S    
C316  H207  S    
C349  O41   A    
C1    O99   A    
C15   C126  A    
C251  H9    S    
C252  H15   S    
Cu15  O86   S    
C58   C179  S    
C51   C188  A    
C103  C352  S    
C307  H181  S    
C285  H115  S    
C189  C296  S    
C278  H94   S    
C52   C159  A    
Cu17  O131  S    
C353  O40   A    
Cu6   O115  S    
C366  O126  A    
C221  H211  S    
C24   O60   A    
C87   C330  S    
C301  O189  A    
Cu2   O63   S    
C306  H176  S    
C185  C292  S    
Cu45  O149  S    
C321  O150  A    
C218  H101  S    
C50   C187  A    
C350  O137  A    
C64   C290  S    
C6    C120  A    
C205  C311  S    
C196  C303  S    
C246  O164  A    
C331  O144  A    
C223  O75   A    
C300  H159  S    
C118  C225  S    
C128  C234  S    
C342  O51   A    
C44   C151  A    
Cu48  O112  S    
Cu18  O147  S    
C218  H113  S    
C302  H163  S    
C377  O114  A    
C239  H261  S    
C359  O107  A    
C202  C308  S    
C233  H246  S    
C249  H5    S    
C50   C156  A    
C289  H128  S    
C288  H122  S    
C328  O29   A    
Cu11  O65   S    
Cu32  O191  S    
C217  H79   S    
C288  H123  S    
C113  O82   A    
C23   C106  A    
Cu46  O24   S    
C104  C363  S    
C67   C235  S    
C270  H67   S    
C319  O74   A    
C265  H54   S    
C31   C138  A    
C279  O6    A    
C255  H23   S    
C286  H117  S    
Cu3   O100  S    
C166  C273  S    
C353  O170  A    
C247  H285  S    
C311  H192  S    
C156  C263  S    
C338  O43   A    
C78   C157  S    
C150  C256  S    
Cu33  O22   S    
Cu39  O7    S    
C349  O139  A    
Cu44  O46   S    
C66   C191  A    
C56   C168  S    
C56   C206  A    
C62   C169  A    
C2    O94   A    
C215  H2    S    
C34   C188  A    
C187  C294  S    
Cu44  O103  S    
C308  H183  S    
Cu21  O141  S    
C258  H30   S    
C253  H18   S    
C55   C193  A    
C48   C210  A    
C102  C165  A    
Cu34  O84   S    
C322  O148  A    
Cu34  O127  S    
Cu26  O164  S    
Cu27  O186  S    
C374  O52   A    
Cu7   O109  S    
C254  H20   S    
C314  H198  S    
C85   C101  S    
C91   C144  A    
C60   C202  A    
C240  H265  S    
C232  H240  S    
C83   C90   S    
C60   C342  S    
C316  H205  S    
Cu35  O3    S    
C260  H37   S    
C351  O39   A    
C33   C328  S    
C84   C183  A    
C326  O140  A    
C55   C162  A    
C65   C189  A    
Cu31  O9    S    
C296  H147  S    
C234  H248  S    
Cu18  O185  S    
C272  H73   S    
C366  O105  A    
C269  H62   S    
C286  H116  S    
C253  H16   S    
C53   C268  S    
C320  O3    A    
C293  H138  S    
C292  H132  S    
C268  O191  A    
C317  H209  S    
C334  O154  A    
Cu30  O181  S    
Cu2   O60   S    
C173  C280  S    
C315  H202  S    
C103  C133  A    
C242  H272  S    
C282  H103  S    
C281  H99   S    
C345  O45   A    
Cu6   O108  S    
Cu21  O169  S    
C263  H48   S    
C23   C362  S    
C107  C214  S    
C240  H264  S    
C298  H154  S    
C94   C134  A    
C208  C315  S    
C195  C302  S    
C378  C384  S    
C239  H260  S    
C234  H249  S    
Cu28  O170  S    
Cu1   O94   S    
C217  H68   S    
C188  C295  S    
C363  O78   A    
C16   C108  A    
C245  H282  S    
C278  H92   S    
C225  H218  S    
C313  H197  S    
C310  H189  S    
C335  O153  A    
C256  H28   S    
C68   O83   A    
C82   C180  A    
C299  H155  S    
Cu26  Cu38  S    
Cu39  O18   S    
C256  H26   S    
C242  H271  S    
C311  H193  S    
C200  C307  S    
Cu35  O15   S    
C248  H287  S    
C61   C194  A    
C346  O146  A    
Cu25  Cu39  S    
C247  H284  S    
C151  C258  S    
C303  H167  S    
C303  H165  S    
C216  H35   S    
C203  C309  S    
