data_mof_unit_38647.cif
_audit_creation_date              2012-12-10T18:02:14-0500
_audit_creation_method            fapswitch 2.2
_symmetry_space_group_name_H-M    P1
_symmetry_Int_Tables_number       1
_space_group_crystal_system       triclinic
_cell_length_a                    10.816009
_cell_length_b                    9.613936
_cell_length_c                    23.520924
_cell_angle_alpha                 89.922525
_cell_angle_beta                  90.184358
_cell_angle_gamma                 89.825025
_cell_volume                      2445.78326529

loop_
_atom_site_label
_atom_site_type_symbol
_atom_type_description
_atom_site_fract_x
_atom_site_fract_y
_atom_site_fract_z
_atom_type_partial_charge
C1    C     C_R   0.262366 0.500170 0.500082 0.748275
C2    C     C_R   0.737628 0.499929 0.499967 0.747889
C3    C     C_R   0.554294 0.380879 0.240532 0.403389
C4    C     C_R   0.427869 0.394915 0.759102 0.398273
C5    C     C_R   0.563996 0.392359 0.299717 0.321094
C6    C     C_R   0.421329 0.406065 0.699780 0.310318
C7    C     C_R   0.495824 0.495463 0.328691 -0.392514
C8    C     C_R   0.502412 0.496095 0.670907 -0.380952
C9    C     C_R   0.420410 0.588234 0.297613 0.284517
C10   C     C_R   0.588096 0.576616 0.701712 0.279109
C11   C     C_R   0.425772 0.589677 0.238057 0.389537
C12   C     C_R   0.584220 0.577156 0.761351 0.385438
C13   C     C_R   0.490432 0.483529 0.209065 -0.022586
C14   C     C_R   0.505537 0.484398 0.790070 0.005234
C15   C     C_R   0.064214 0.374393 0.496543 -0.202522
C16   C     C_R   0.935691 0.626310 0.503932 -0.196931
C17   C     C_R   0.936451 0.374324 0.496036 -0.211807
C18   C     C_R   0.063595 0.626472 0.503863 -0.203343
C19   C     C_R   0.871613 0.500144 0.499975 -0.012696
C20   C     C_R   0.128369 0.500418 0.500194 -0.013304
C21   C     C_R   0.445373 0.075531 0.456929 0.407103
C22   C     C_R   0.540024 0.927425 0.546419 0.364715
C23   C     C_R   0.554866 0.074912 0.543026 0.401697
C24   C     C_R   0.461275 0.928215 0.453478 0.360817
C25   C     C_R   0.498440 0.499497 0.391197 0.914334
C26   C     C_R   0.501224 0.499496 0.608661 0.928400
C27   C     C_R   0.605107 0.436358 0.880161 0.656882
C28   C     C_R   0.382737 0.481000 0.118123 0.659862
C29   C     C_R   0.398701 0.524225 0.878449 0.652496
C30   C     C_R   0.602086 0.475206 0.119730 0.657352
C31   C     C_R   0.389874 0.515914 0.938289 -0.140309
C32   C     C_R   0.605244 0.453039 0.060516 -0.145780
C33   C     C_R   0.497528 0.476489 0.969244 -0.089210
C34   C     C_R   0.495111 0.476038 0.029310 -0.100382
C35   C     C_R   0.607685 0.437831 0.940282 -0.145547
C36   C     C_R   0.382784 0.499201 0.058561 -0.150379
C37   C     C_R   0.278865 0.547838 0.968137 0.258649
C38   C     C_R   0.713573 0.409317 0.032061 0.266770
C39   C     C_R   0.275674 0.539235 0.027878 0.263723
C40   C     C_R   0.714825 0.400222 0.972330 0.258366
Cu1   Cu    Cu3+1 0.500000 0.640660 0.500000 1.009785
Cu2   Cu    Cu3+1 0.500000 0.359340 0.500000 1.035823
H1    H     H_    0.112383 0.275870 0.493918 0.149746
H2    H     H_    0.887325 0.724828 0.507136 0.154361
H3    H     H_    0.888831 0.275942 0.492324 0.145841
H4    H     H_    0.111412 0.725060 0.506866 0.151401
N1    N     N_R   0.503286 0.481745 0.851248 -0.426685
N2    N     N_R   0.491624 0.479744 0.147662 -0.440978
N3    N     N_R   0.500000 0.852070 0.500000 -0.282749
N4    N     N_R   0.500000 0.147930 0.500000 -0.274875
O1    O     O_R   0.319640 0.618740 0.500000 -0.586062
O2    O     O_R   0.680360 0.381260 0.500000 -0.574019
O3    O     O_R   0.680360 0.618740 0.500000 -0.580655
O4    O     O_R   0.319640 0.381260 0.500000 -0.568833
O5    O     O_R   0.499960 0.618810 0.417880 -0.515192
O6    O     O_R   0.500040 0.381190 0.582120 -0.500692
O7    O     O_R   0.500040 0.618810 0.582120 -0.519494
O8    O     O_R   0.499960 0.381190 0.417880 -0.495502
O9    O     O_2   0.702340 0.389984 0.849972 -0.466422
O10   O     O_2   0.276145 0.461009 0.146436 -0.448024
O11   O     O_2   0.305227 0.576004 0.846875 -0.479398
O12   O     O_2   0.707405 0.496404 0.149207 -0.456461
Br1   Br    Br    0.125886 0.599336 0.929928 -0.257788
Br2   Br    Br    0.856328 0.340927 0.074053 -0.256711
Br3   Br    Br    0.127688 0.603121 0.066604 -0.254855
Br4   Br    Br    0.867266 0.336279 0.937454 -0.261902
O13   O     O_3   0.614695 0.273282 0.213220 -0.507238
C41   C     C_3   0.530627 0.162977 0.206083 -0.245279
H5    H     H_    0.450949 0.194235 0.178800 0.162641
H6    H     H_    0.497359 0.123339 0.247812 0.164550
H7    H     H_    0.579023 0.076262 0.184373 0.183555
O14   O     O_3   0.351934 0.302383 0.787227 -0.515214
C42   C     C_3   0.414828 0.174200 0.792005 -0.228451
H8    H     H_    0.501405 0.184799 0.817325 0.156050
H9    H     H_    0.435551 0.129356 0.749463 0.159884
H10   H     H_    0.354371 0.099571 0.814656 0.196545
O15   O     O_3   0.634218 0.295778 0.329303 -0.538028
C43   C     C_3   0.754506 0.349451 0.336153 -0.224529
H11   H     H_    0.810719 0.272702 0.360307 0.167914
H12   H     H_    0.753884 0.447893 0.361032 0.116020
H13   H     H_    0.800056 0.365921 0.294314 0.201311
O16   O     O_3   0.340024 0.322390 0.669966 -0.542896
C44   C     C_3   0.228123 0.395919 0.662508 -0.226919
H14   H     H_    0.163274 0.329730 0.637979 0.173411
H15   H     H_    0.242009 0.493363 0.637736 0.114887
H16   H     H_    0.184092 0.419655 0.704109 0.201602
O17   O     O_3   0.343353 0.681088 0.325073 -0.506507
C45   C     C_3   0.229287 0.615118 0.335265 -0.163339
H17   H     H_    0.167762 0.689240 0.357752 0.168300
H18   H     H_    0.240596 0.522149 0.363094 0.113634
H19   H     H_    0.182978 0.585728 0.294704 0.184970
O18   O     O_3   0.673148 0.659025 0.673800 -0.516024
C46   C     C_3   0.780291 0.579030 0.663653 -0.179557
H20   H     H_    0.848071 0.644566 0.640683 0.170148
H21   H     H_    0.760025 0.487442 0.636285 0.119079
H22   H     H_    0.824155 0.544852 0.704229 0.189878
O19   O     O_3   0.358685 0.688802 0.208421 -0.498394
C47   C     C_3   0.438644 0.798322 0.193585 -0.234421
H23   H     H_    0.514709 0.762080 0.165468 0.154805
H24   H     H_    0.477152 0.849635 0.232043 0.136898
H25   H     H_    0.384869 0.877681 0.169689 0.194666
O20   O     O_3   0.664644 0.660403 0.791757 -0.507343
C48   C     C_3   0.607532 0.790482 0.800700 -0.226908
H26   H     H_    0.516911 0.779772 0.822600 0.145894
H27   H     H_    0.596033 0.848017 0.760002 0.160649
H28   H     H_    0.668202 0.853740 0.828547 0.205342
O21   O     O_3   0.386546 0.148223 0.413786 -0.521941
C49   C     C_3   0.262552 0.104223 0.408705 -0.258196
H29   H     H_    0.255970 0.012102 0.380472 0.211219
H30   H     H_    0.208276 0.189228 0.388572 0.166642
H31   H     H_    0.218854 0.081291 0.450538 0.108987
O22   O     O_3   0.565019 0.862014 0.597290 -0.503251
C50   C     C_3   0.467838 0.893641 0.635396 -0.184028
H32   H     H_    0.375378 0.870431 0.616645 0.121927
H33   H     H_    0.471748 0.003689 0.649652 0.176777
H34   H     H_    0.477359 0.828005 0.673793 0.173033
O23   O     O_3   0.615169 0.146797 0.585715 -0.528900
C51   C     C_3   0.741330 0.108754 0.586754 -0.254630
H35   H     H_    0.755188 0.011709 0.611647 0.205138
H36   H     H_    0.793888 0.192422 0.608395 0.168658
H37   H     H_    0.781188 0.096623 0.543387 0.113105
O24   O     O_3   0.443958 0.864740 0.401747 -0.501662
C52   C     C_3   0.547050 0.896470 0.367144 -0.170382
H38   H     H_    0.636390 0.873033 0.388987 0.114823
H39   H     H_    0.544768 0.006710 0.352869 0.188958
H40   H     H_    0.544279 0.831091 0.328547 0.176500

loop_
_geom_bond_atom_site_label_1
_geom_bond_atom_site_label_2
_ccdc_geom_bond_type
C38   C40   A    
O17   C45   S    
C46   H20   S    
C6    O16   S    
C8    C26   S    
C42   H8    S    
Cu2   O8    S    
O19   C47   S    
C52   H38   S    
O15   C43   S    
C29   N1    A    
C30   N2    A    
C17   H3    S    
C16   C19   A    
C33   C35   A    
C43   H12   S    
C52   H39   S    
C49   H29   S    
C7    C9    A    
Cu1   Cu2   S    
C51   H35   S    
Cu1   O5    S    
Cu2   O6    S    
C41   H5    S    
O21   C49   S    
C31   C33   A    
C32   C38   A    
C16   H2    S    
C18   C20   A    
C3    C13   A    
C50   H34   S    
C10   O18   S    
C46   H21   S    
C40   Br4   S    
C42   H9    S    
C18   H4    S    
Cu1   N3    S    
C21   N4    A    
C37   Br1   S    
C38   Br2   S    
C28   O10   S    
C15   C20   A    
C29   O11   S    
O13   C41   S    
C4    C6    A    
C5    C7    A    
C43   H11   S    
C23   N4    A    
C6    C8    A    
C27   C35   A    
C31   C37   A    
C51   H37   S    
C32   C34   A    
C1    O4    A    
C12   O20   S    
C2    O2    A    
C1    O1    A    
C44   H14   S    
C45   H19   S    
C29   C31   A    
C24   O24   S    
C33   C34   A    
C48   H27   S    
C9    C11   A    
Cu1   O3    S    
C21   O21   S    
C10   C12   A    
Cu2   N4    S    
C22   N3    A    
C16   C18   A    
C44   H15   S    
C12   C14   A    
O16   C44   S    
C46   H22   S    
C47   H24   S    
C30   O12   S    
C42   H10   S    
C25   O8    A    
C5    O15   S    
C4    O14   S    
C50   H32   S    
C27   N1    A    
C24   N3    A    
C15   C17   A    
C28   N2    A    
C1    C20   S    
C2    C19   S    
C36   C39   A    
C3    O13   S    
C25   O5    A    
C45   H18   S    
O14   C42   S    
C3    C5    A    
C2    O3    A    
C26   O6    A    
C23   O23   S    
C13   N2    S    
C52   H40   S    
C14   N1    S    
C47   H25   S    
O22   C50   S    
C39   Br3   S    
C22   O22   S    
C7    C25   S    
C49   H31   S    
C11   O19   S    
C35   C40   A    
Cu1   O7    S    
C37   C39   A    
C27   O9    S    
O23   C51   S    
C9    O17   S    
C30   C32   A    
C11   C13   A    
C43   H13   S    
C41   H7    S    
O18   C46   S    
C17   C19   A    
C49   H30   S    
C48   H28   S    
C34   C36   A    
C4    C14   A    
O20   C48   S    
C26   O7    A    
C51   H36   S    
C15   H1    S    
C44   H16   S    
C45   H17   S    
C28   C36   A    
C8    C10   A    
C47   H23   S    
C21   C24   A    
C48   H26   S    
C41   H6    S    
C22   C23   A    
O24   C52   S    
Cu1   O1    S    
Cu2   O4    S    
Cu2   O2    S    
C50   H33   S    
