data_mof_unit_16093.cif
_audit_creation_date              2012-12-11T15:06:41-0500
_audit_creation_method            fapswitch 2.2
_symmetry_space_group_name_H-M    P1
_symmetry_Int_Tables_number       1
_space_group_crystal_system       triclinic
_cell_length_a                    7.347322
_cell_length_b                    15.553678
_cell_length_c                    21.757789
_cell_angle_alpha                 91.056344
_cell_angle_beta                  89.127647
_cell_angle_gamma                 89.472359
_cell_volume                      2485.61131081

loop_
_atom_site_label
_atom_site_type_symbol
_atom_type_description
_atom_site_fract_x
_atom_site_fract_y
_atom_site_fract_z
_atom_type_partial_charge
O1    O     O_R   0.390810 0.844810 0.447340 -0.559127
O2    O     O_R   0.109190 0.155190 0.947340 -0.535149
O3    O     O_R   0.890810 0.655190 0.552660 -0.542622
O4    O     O_R   0.609190 0.344810 0.052660 -0.544683
O5    O     O_R   0.720550 0.655820 0.440420 -0.509929
O6    O     O_R   0.779450 0.344180 0.940420 -0.521629
O7    O     O_R   0.220550 0.844180 0.559580 -0.555759
O8    O     O_R   0.279450 0.155820 0.059580 -0.516338
C1    C     C_R   0.553446 0.625796 0.427939 0.875381
C2    C     C_R   0.948176 0.372417 0.926946 0.896690
C3    C     C_R   0.055508 0.844488 0.556111 0.961345
C4    C     C_R   0.448088 0.128263 0.073335 0.896636
O9    O     O_R   0.720530 0.844130 0.440420 -0.502650
O10   O     O_R   0.779470 0.155870 0.940420 -0.533132
O11   O     O_R   0.220530 0.655870 0.559580 -0.539176
O12   O     O_R   0.279470 0.344130 0.059580 -0.506973
O13   O     O_R   0.890830 0.844810 0.552660 -0.572979
O14   O     O_R   0.609170 0.155190 0.052660 -0.536890
O15   O     O_R   0.390830 0.655190 0.447340 -0.542075
O16   O     O_R   0.109170 0.344810 0.947340 -0.534821
C5    C     C_R   0.552444 0.872722 0.427230 0.915459
C6    C     C_R   0.949351 0.129083 0.923433 0.911946
C7    C     C_R   0.052138 0.626344 0.572134 0.905654
C8    C     C_R   0.445841 0.372178 0.073635 0.922631
O17   O     O_3   0.557310 0.749980 0.536820 -0.396647
O18   O     O_3   0.942690 0.250020 0.036820 -0.388453
O19   O     O_3   0.057310 0.750020 0.463180 -0.430529
O20   O     O_3   0.442690 0.249980 0.963180 -0.401805
V1    V     V_3+5 0.832160 0.749980 0.493170 1.701783
V2    V     V_3+5 0.667840 0.250020 0.993170 1.692044
V3    V     V_3+5 0.332160 0.750020 0.506830 1.644031
V4    V     V_3+5 0.167840 0.249980 0.006830 1.738361
C9    C     C_R   0.074457 0.591546 0.872720 0.753439
C10   C     C_R   0.382725 0.413633 0.374054 0.733095
C11   C     C_R   0.549724 0.907861 0.127511 0.751928
C12   C     C_R   0.950217 0.075830 0.615462 0.733179
C13   C     C_R   0.964341 0.446672 0.886316 -0.382568
C14   C     C_R   0.538632 0.548843 0.388460 -0.377729
C15   C     C_R   0.462501 0.056594 0.115806 -0.384496
C16   C     C_R   0.029798 0.922718 0.600917 -0.254331
C17   C     C_R   0.054525 0.469797 0.588857 0.485352
C18   C     C_R   0.486176 0.526465 0.091686 0.476130
C19   C     C_R   0.462431 0.022425 0.413342 0.480535
C20   C     C_R   0.942620 0.971711 0.902636 0.476183
C21   C     C_R   0.067373 0.398828 0.626787 0.624207
C22   C     C_R   0.490076 0.598765 0.129955 0.631639
C23   C     C_R   0.388532 0.085523 0.376697 0.611330
C24   C     C_R   0.926506 0.899175 0.864433 0.629918
C25   C     C_R   0.056038 0.409253 0.690619 0.615665
C26   C     C_R   0.479372 0.590557 0.193587 0.599459
C27   C     C_R   0.394208 0.076047 0.312992 0.582569
C28   C     C_R   0.938865 0.905561 0.800541 0.624762
C29   C     C_R   0.021633 0.490893 0.717697 -0.151753
C30   C     C_R   0.467350 0.508437 0.219989 -0.146431
C31   C     C_R   0.493420 0.007776 0.284117 -0.137151
C32   C     C_R   0.978023 0.984286 0.772853 -0.143416
C33   C     C_R   0.029009 0.564025 0.679466 -0.327264
C34   C     C_R   0.423835 0.437781 0.180767 -0.316709
C35   C     C_R   0.558560 0.939940 0.321491 -0.315748
C36   C     C_R   0.971433 0.060439 0.811559 -0.325769
C37   C     C_R   0.002636 0.502896 0.782693 -0.085950
C38   C     C_R   0.477698 0.496046 0.284545 -0.068600
C39   C     C_R   0.511165 0.000505 0.218742 -0.073044
C40   C     C_R   0.997483 0.990148 0.706710 -0.094445
C41   C     C_R   0.052311 0.583086 0.808775 -0.444268
C42   C     C_R   0.394657 0.422303 0.309871 -0.441253
C43   C     C_R   0.561932 0.920136 0.191623 -0.449201
C44   C     C_R   0.960506 0.070194 0.680033 -0.445485
C45   C     C_R   0.071760 0.653755 0.770497 0.784839
C46   C     C_R   0.324387 0.358838 0.270633 0.760471
C47   C     C_R   0.630519 0.855046 0.228699 0.779979
C48   C     C_R   0.940022 0.143873 0.718348 0.778626
C49   C     C_R   0.035518 0.645657 0.707835 0.630281
C50   C     C_R   0.347232 0.364003 0.207215 0.620240
C51   C     C_R   0.633003 0.865504 0.292379 0.595948
C52   C     C_R   0.962658 0.139795 0.782232 0.621036
C53   C     C_R   0.934115 0.439281 0.822588 0.457994
C54   C     C_R   0.569358 0.553452 0.324835 0.412780
C55   C     C_R   0.491127 0.071301 0.179037 0.442871
C56   C     C_R   0.058105 0.920581 0.666480 0.473727
C57   C     C_R   0.039461 0.522262 0.910532 0.518004
C58   C     C_R   0.447602 0.478135 0.412665 0.527517
C59   C     C_R   0.488245 0.974019 0.090772 0.517006
C60   C     C_R   0.978885 0.003525 0.577114 0.510098
C61   C     C_R   0.041772 0.553047 0.614406 -0.269210
C62   C     C_R   0.449499 0.445902 0.116308 -0.278000
C63   C     C_R   0.538300 0.947227 0.386667 -0.251095
C64   C     C_R   0.959615 0.053969 0.877910 -0.275999
F1    F     F_    0.071997 0.530106 0.971681 -0.571994
F2    F     F_    0.420363 0.472231 0.474326 -0.568746
F3    F     F_    0.474693 0.959924 0.029200 -0.562181
F4    F     F_    0.961062 0.012230 0.515473 -0.577155
F5    F     F_    0.122715 0.730829 0.794019 -0.518354
F6    F     F_    0.232786 0.290974 0.293495 -0.480660
F7    F     F_    0.703742 0.782023 0.203247 -0.497282
F8    F     F_    0.897802 0.220764 0.693828 -0.502997
F9    F     F_    0.133216 0.666006 0.898892 -0.467796
F10   F     F_    0.301072 0.344841 0.399874 -0.453453
F11   F     F_    0.600998 0.832777 0.099628 -0.447972
F12   F     F_    0.909751 0.151641 0.588630 -0.460854
Cl1   Cl    Cl    0.770438 0.365714 0.795787 -0.429899
Cl2   Cl    Cl    0.752788 0.616689 0.298846 -0.416767
Cl3   Cl    Cl    0.565060 0.174371 0.203172 -0.498768
Cl4   Cl    Cl    0.231683 0.853243 0.694379 -0.437747
F13   F     F_    0.065346 0.457732 0.526923 -0.543228
F14   F     F_    0.505680 0.535745 0.029958 -0.560620
F15   F     F_    0.443061 0.030499 0.475419 -0.570443
F16   F     F_    0.928037 0.962255 0.964472 -0.561011
F17   F     F_    0.103937 0.342065 0.725954 -0.545007
F18   F     F_    0.456359 0.663041 0.228573 -0.570649
F19   F     F_    0.282658 0.127169 0.280338 -0.523135
F20   F     F_    0.885301 0.837678 0.765527 -0.554286
F21   F     F_    0.099568 0.319679 0.601523 -0.458284
F22   F     F_    0.499863 0.677479 0.104953 -0.458416
F23   F     F_    0.296813 0.152938 0.403251 -0.448681
F24   F     F_    0.889359 0.822066 0.889666 -0.474949
F25   F     F_    0.009604 0.717286 0.674933 -0.645034
F26   F     F_    0.277342 0.299605 0.172326 -0.626025
F27   F     F_    0.708184 0.801443 0.324997 -0.621878
F28   F     F_    0.966261 0.213830 0.815644 -0.637218

loop_
_geom_bond_atom_site_label_1
_geom_bond_atom_site_label_2
_ccdc_geom_bond_type
O17   V3    S    
C5    C63   S    
O1    C5    A    
C31   C35   A    
O19   V1    S    
O13   V1    S    
C16   C60   A    
C53   Cl1   S    
C26   F18   S    
C48   C52   A    
O15   V3    S    
C10   C42   A    
C36   C64   A    
C9    C41   A    
C10   C58   A    
C39   C55   A    
O7    C3    A    
C26   C30   A    
C17   F13   S    
C56   Cl4   S    
C2    C13   S    
C40   C44   A    
O9    V1    S    
C46   F6    S    
C45   F5    S    
C30   C34   A    
O4    C8    A    
C25   C29   A    
C54   Cl2   S    
C28   F20   S    
O1    V3    S    
O2    V4    S    
C18   C22   A    
C33   C49   A    
O3    V1    S    
C46   C50   A    
O3    C7    A    
C1    O15   A    
C2    O16   A    
C31   C39   A    
O2    C6    A    
C32   C40   A    
C45   C49   A    
C18   C62   A    
C6    C64   S    
C19   C23   A    
C27   C31   A    
C44   C48   A    
C24   F24   S    
C57   F1    S    
C55   Cl3   S    
O11   C7    A    
O12   C8    A    
C14   C58   A    
C40   C56   A    
C13   C57   A    
C29   C37   A    
O10   V2    S    
C11   F11   S    
C34   C62   A    
C49   F25   S    
O5    V1    S    
C20   F16   S    
C50   F26   S    
C39   C43   A    
O7    V3    S    
C38   C42   A    
C28   C32   A    
O8    V4    S    
C51   F27   S    
C37   C53   A    
C22   F22   S    
O18   V4    S    
C23   C27   A    
C14   C54   A    
C19   F15   S    
C13   C53   A    
C36   C52   A    
C32   C36   A    
C15   C55   A    
C23   F23   S    
O5    C1    A    
C21   F21   S    
C21   C25   A    
O8    C4    A    
C16   C56   A    
O9    C5    A    
C12   F12   S    
C52   F28   S    
O11   V3    S    
C18   F14   S    
O14   V2    S    
O6    V2    S    
C35   C51   A    
C17   C61   A    
C34   C50   A    
C25   F17   S    
O16   V4    S    
C3    O13   A    
C27   F19   S    
C38   C54   A    
C29   C33   A    
O6    C2    A    
C12   C44   A    
C11   C59   A    
O12   V4    S    
C59   F3    S    
C22   C26   A    
C58   F2    S    
C19   C63   A    
O10   C6    A    
C4    C15   S    
O20   V2    S    
C15   C59   A    
C47   C51   A    
C42   C46   A    
C8    C62   S    
C12   C60   A    
C41   C45   A    
C1    C14   S    
C10   F10   S    
C33   C61   A    
C43   C47   A    
C3    C16   S    
C35   C63   A    
C11   C43   A    
C48   F8    S    
C37   C41   A    
C24   C28   A    
C47   F7    S    
C7    C61   S    
C4    O14   A    
C17   C21   A    
C30   C38   A    
C60   F4    S    
C9    F9    S    
C20   C64   A    
C9    C57   A    
O4    V2    S    
C20   C24   A    
