data_mof_unit_55236.cif
_audit_creation_date              2012-12-11T14:34:02-0500
_audit_creation_method            fapswitch 2.2
_symmetry_space_group_name_H-M    P1
_symmetry_Int_Tables_number       1
_space_group_crystal_system       triclinic
_cell_length_a                    13.966216
_cell_length_b                    13.989913
_cell_length_c                    27.471089
_cell_angle_alpha                 89.992432
_cell_angle_beta                  90.100234
_cell_angle_gamma                 119.630526
_cell_volume                      4665.56617336

loop_
_atom_site_label
_atom_site_type_symbol
_atom_type_description
_atom_site_fract_x
_atom_site_fract_y
_atom_site_fract_z
_atom_type_partial_charge
C1    C     C_R   0.235864 0.786334 0.569592 0.548152
C2    C     C_R   0.213480 0.448664 0.569228 0.550324
C3    C     C_R   0.550859 0.764087 0.569513 0.549447
C4    C     C_3   0.694336 0.748180 0.790494 0.191213
C5    C     C_3   0.247106 0.940168 0.790787 0.191286
C6    C     C_3   0.040614 0.283273 0.784860 0.189230
C7    C     C_3   0.683293 0.738692 0.733442 -0.046539
C8    C     C_3   0.255899 0.938955 0.733778 -0.047673
C9    C     C_3   0.048530 0.302737 0.728400 -0.045083
C10   C     C_1   0.696707 0.856677 0.861972 -0.057107
C11   C     C_1   0.139970 0.836968 0.862204 -0.056482
C12   C     C_1   0.134011 0.259814 0.856020 -0.061418
C13   C     C_1   0.617634 0.802866 0.660777 -0.074680
C14   C     C_1   0.194029 0.811023 0.660969 -0.073937
C15   C     C_1   0.184105 0.374941 0.659023 -0.075285
C16   C     C_1   0.593793 0.790265 0.618124 -0.017208
C17   C     C_1   0.208574 0.801796 0.618291 -0.017535
C18   C     C_1   0.196621 0.402906 0.617027 -0.016401
C19   C     C_R   0.106574 0.221400 0.088023 0.556286
C20   C     C_R   0.779125 0.885929 0.088174 0.548115
C21   C     C_R   0.114869 0.893286 0.087911 0.548310
C22   C     C_R   0.074650 0.168462 0.942805 0.548757
C23   C     C_R   0.779586 0.886961 0.950852 0.540626
C24   C     C_R   0.113063 0.892831 0.950890 0.540460
C25   C     C_R   0.672516 0.898581 0.366414 0.242869
C26   C     C_R   0.101347 0.774892 0.366061 0.242561
C27   C     C_R   0.227324 0.327920 0.366192 0.241798
C28   C     C_R   0.705752 0.914732 0.317178 0.021710
C29   C     C_R   0.085745 0.792761 0.316810 0.021359
C30   C     C_R   0.209239 0.294155 0.317033 0.022502
C31   C     C_R   0.755535 0.948515 0.217521 0.014561
C32   C     C_R   0.052828 0.809426 0.217113 0.012892
C33   C     C_R   0.189989 0.242197 0.217603 0.017143
C34   C     C_R   0.234289 0.787547 0.431276 0.578176
C35   C     C_R   0.212540 0.446669 0.431274 0.579471
C36   C     C_R   0.553292 0.765482 0.431252 0.578610
C37   C     C_R   0.807559 0.036078 0.250326 -0.151839
C38   C     C_R   0.964886 0.774943 0.249664 -0.148640
C39   C     C_R   0.226502 0.190208 0.250243 -0.142797
C40   C     C_R   0.783803 0.019143 0.299818 -0.119595
C41   C     C_R   0.981428 0.767927 0.299200 -0.118735
C42   C     C_R   0.234777 0.214935 0.299659 -0.118571
C43   C     C_R   0.779765 0.964823 0.168101 -0.130568
C44   C     C_R   0.036627 0.816929 0.167690 -0.128332
C45   C     C_R   0.181719 0.217765 0.168247 -0.135193
C46   C     C_R   0.733719 0.874924 0.136177 -0.012441
C47   C     C_R   0.126549 0.858937 0.135844 -0.011802
C48   C     C_R   0.138902 0.265289 0.136312 -0.028883
C49   C     C_R   0.555963 0.703103 0.349610 -0.179791
C50   C     C_R   0.296824 0.849752 0.349641 -0.180280
C51   C     C_R   0.150351 0.447345 0.349516 -0.179221
C52   C     C_R   0.582897 0.717397 0.300628 -0.039453
C53   C     C_R   0.283077 0.863347 0.300673 -0.040335
C54   C     C_R   0.136648 0.419803 0.300602 -0.040538
C55   C     C_R   0.657091 0.824498 0.284159 -0.018319
C56   C     C_R   0.176421 0.833553 0.284032 -0.018102
C57   C     C_R   0.166930 0.342998 0.284180 -0.017703
C58   C     C_R   0.535228 0.627164 0.267810 0.021566
C59   C     C_R   0.373466 0.903950 0.268071 0.015876
C60   C     C_R   0.094732 0.468735 0.267887 0.014899
C61   C     C_R   0.557625 0.646164 0.217962 0.272382
C62   C     C_R   0.356579 0.915752 0.218628 0.272638
C63   C     C_R   0.080969 0.438287 0.218676 0.269758
C64   C     C_R   0.631686 0.752589 0.201568 0.011890
C65   C     C_R   0.249543 0.880800 0.201621 0.012970
C66   C     C_R   0.115796 0.365772 0.201924 -0.006400
C67   C     C_3   0.530086 0.787503 0.741407 -0.212326
C68   C     C_3   0.208879 0.738305 0.741877 -0.212546
C69   C     C_3   0.250505 0.447923 0.742580 -0.211211
C70   C     C_R   0.681240 0.841839 0.234473 0.017947
C71   C     C_R   0.159674 0.841228 0.234312 0.016234
C72   C     C_R   0.157511 0.317011 0.234636 0.005482
C73   C     C_R   0.659767 0.770359 0.152598 -0.128638
C74   C     C_R   0.231378 0.888136 0.152350 -0.125410
C75   C     C_R   0.107738 0.339606 0.152778 -0.144596
C76   C     C_R   0.598345 0.791586 0.382192 0.014682
C77   C     C_R   0.208206 0.805787 0.382057 0.015073
C78   C     C_R   0.194867 0.402901 0.382068 0.015731
C79   C     C_3   0.724998 0.934001 0.725274 -0.227037
C80   C     C_3   0.060665 0.785477 0.725435 -0.226998
C81   C     C_3   0.198383 0.254545 0.719711 -0.226542
C82   C     C_3   0.747965 0.950222 0.780936 -0.124036
C83   C     C_3   0.045329 0.796524 0.780922 -0.124434
C84   C     C_3   0.184002 0.221144 0.774259 -0.124469
C85   C     C_1   0.728898 0.870439 0.903630 -0.046082
C86   C     C_1   0.128538 0.857500 0.903811 -0.044372
C87   C     C_1   0.110022 0.220792 0.896284 -0.036031
C88   C     C_3   0.637931 0.813807 0.713862 0.047054
C89   C     C_3   0.181701 0.819211 0.714097 0.046127
C90   C     C_3   0.169992 0.346696 0.711146 0.046393
C91   C     C_3   0.549478 0.803929 0.797274 -0.191570
C92   C     C_3   0.189948 0.740025 0.797588 -0.190984
C93   C     C_3   0.240818 0.418005 0.797615 -0.183694
C94   C     C_3   0.671729 0.840913 0.809156 0.100642
C95   C     C_3   0.154224 0.826451 0.809390 0.099645
C96   C     C_3   0.151214 0.295558 0.804672 0.098947
Cr1   Cr    Cr6+3 0.164410 0.584450 0.499910 1.007409
Cr2   Cr    Cr6+3 0.415550 0.579960 0.499910 1.008004
Cr3   Cr    Cr6+3 0.420040 0.835590 0.499910 1.007179
Cr4   Cr    Cr6+3 0.155170 0.075460 0.019960 1.010124
Cr5   Cr    Cr6+3 0.924540 0.079710 0.019960 1.006117
Cr6   Cr    Cr6+3 0.920290 0.844830 0.019960 1.009687
H1    H     H_    0.526175 0.864431 0.810718 0.120480
H2    H     H_    0.127276 0.656908 0.810158 0.114449
H3    H     H_    0.321774 0.434672 0.812159 0.111925
H4    H     H_    0.464262 0.701879 0.733727 0.112454
H5    H     H_    0.295456 0.759391 0.735025 0.114026
H6    H     H_    0.233813 0.517051 0.737161 0.112888
H7    H     H_    0.493373 0.725767 0.816297 0.156525
H8    H     H_    0.267024 0.759507 0.817409 0.153342
H9    H     H_    0.219958 0.473266 0.818548 0.158874
H10   H     H_    0.781711 0.773347 0.799560 0.058790
H11   H     H_    0.221103 0.001551 0.799976 0.060170
H12   H     H_    0.974521 0.196671 0.791146 0.058839
H13   H     H_    0.839912 0.045793 0.155042 0.129426
H14   H     H_    0.955542 0.796995 0.154505 0.134951
H15   H     H_    0.202699 0.157289 0.155107 0.132422
H16   H     H_    0.866864 0.117699 0.237702 0.111073
H17   H     H_    0.883230 0.753490 0.236796 0.121737
H18   H     H_    0.248566 0.130264 0.237542 0.110563
H19   H     H_    0.826170 0.088426 0.324235 0.153748
H20   H     H_    0.911856 0.741717 0.323425 0.155712
H21   H     H_    0.262360 0.172558 0.323991 0.153365
H22   H     H_    0.627877 0.702475 0.127019 0.157201
H23   H     H_    0.299082 0.921004 0.126660 0.156201
H24   H     H_    0.074088 0.374021 0.127017 0.161133
H25   H     H_    0.499636 0.842339 0.727852 0.104585
H26   H     H_    0.156026 0.653444 0.727911 0.103789
H27   H     H_    0.336545 0.477632 0.730526 0.105163
H28   H     H_    0.496470 0.622430 0.362722 0.135942
H29   H     H_    0.377383 0.869784 0.363061 0.136430
H30   H     H_    0.129500 0.507431 0.362832 0.135976
H31   H     H_    0.803215 0.956434 0.705821 0.094560
H32   H     H_    0.035964 0.838370 0.704779 0.096859
H33   H     H_    0.143941 0.181154 0.697222 0.097650
H34   H     H_    0.695762 0.989627 0.710860 0.133716
H35   H     H_    0.006179 0.699675 0.712506 0.134663
H36   H     H_    0.284145 0.283198 0.707065 0.134082
H37   H     H_    0.835209 0.971669 0.787234 0.104121
H38   H     H_    0.027567 0.865330 0.785861 0.105134
H39   H     H_    0.115787 0.134428 0.777046 0.102538
H40   H     H_    0.767778 0.770867 0.718345 0.083086
H41   H     H_    0.221991 0.990270 0.718840 0.084275
H42   H     H_    0.996554 0.221233 0.710711 0.083657
O1    O     O_R   0.137150 0.468200 0.553200 -0.511775
O2    O     O_R   0.531800 0.668950 0.553200 -0.511547
O3    O     O_R   0.331050 0.862850 0.553200 -0.510499
O4    O     O_R   0.179100 0.982980 0.967000 -0.523868
O5    O     O_R   0.017020 0.196120 0.967000 -0.511078
O6    O     O_R   0.803880 0.820900 0.967000 -0.515416
O7    O     O_R   0.173970 0.688730 0.549930 -0.499094
O8    O     O_R   0.311270 0.485240 0.549930 -0.499939
O9    O     O_R   0.514760 0.826030 0.549930 -0.498982
O10   O     O_R   0.140110 0.470540 0.446010 -0.536619
O11   O     O_R   0.529460 0.669570 0.446010 -0.537074
O12   O     O_R   0.330430 0.859890 0.446010 -0.536031
O13   O     O_R   0.176710 0.690910 0.450560 -0.497311
O14   O     O_R   0.309090 0.485800 0.450560 -0.496861
O15   O     O_R   0.514200 0.823290 0.450560 -0.496586
O16   O     O_3   0.333333 0.666667 0.499990 -0.280632
O17   O     O_R   0.176750 0.985260 0.074180 -0.521856
O18   O     O_R   0.014740 0.191490 0.074180 -0.515169
O19   O     O_R   0.808510 0.823250 0.074180 -0.516984
O20   O     O_R   0.146100 0.172630 0.068980 -0.492545
O21   O     O_R   0.827370 0.973470 0.068980 -0.498255
O22   O     O_R   0.026530 0.853900 0.068980 -0.495404
O23   O     O_3   0.000000 0.000000 0.020040 -0.230426
O24   O     O_R   0.148270 0.170520 0.969620 -0.491712
O25   O     O_R   0.829480 0.977750 0.969620 -0.515973
O26   O     O_R   0.022250 0.851730 0.969620 -0.500501
O27   O     O_3   0.716932 0.984192 0.399716 -0.551061
C97   C     C_3   0.659515 0.043678 0.396862 -0.006344
H43   H     H_    0.568544 0.988659 0.397027 0.144485
H44   H     H_    0.682582 0.094793 0.363394 0.107104
C98   C     C_3   0.689898 0.119967 0.440572 -0.348289
H45   H     H_    0.780017 0.178174 0.440943 0.160914
H46   H     H_    0.645743 0.167606 0.438601 0.079508
H47   H     H_    0.666248 0.071187 0.474741 0.169537
O28   O     O_3   0.015408 0.734847 0.399150 -0.551231
C99   C     C_3   0.955536 0.618726 0.396259 -0.006855
H48   H     H_    0.010418 0.582054 0.396988 0.144399
H49   H     H_    0.905151 0.591394 0.362489 0.108933
C100  C     C_3   0.878010 0.573790 0.439528 -0.348520
H50   H     H_    0.819959 0.606512 0.439315 0.162099
H51   H     H_    0.830050 0.482621 0.437521 0.079683
H52   H     H_    0.926031 0.598218 0.473988 0.169076
O29   O     O_3   0.269398 0.283454 0.399306 -0.551375
C101  C     C_3   0.385672 0.340191 0.395992 -0.007167
H53   H     H_    0.420947 0.431056 0.396827 0.144389
H54   H     H_    0.412948 0.317855 0.361997 0.108519
C102  C     C_3   0.432830 0.308281 0.438919 -0.349466
H55   H     H_    0.401520 0.218223 0.438578 0.161045
H56   H     H_    0.524142 0.351947 0.436581 0.079834
H57   H     H_    0.408503 0.331216 0.473579 0.168714
O30   O     O_3   0.512620 0.559350 0.185320 -0.582412
C103  C     C_3   0.416489 0.552049 0.164618 -0.019471
H58   H     H_    0.425520 0.634048 0.155896 0.138861
H59   H     H_    0.346327 0.508657 0.190094 0.156162
C104  C     C_3   0.390665 0.487412 0.117329 -0.366349
H60   H     H_    0.378475 0.404000 0.124427 0.165376
H61   H     H_    0.314842 0.480102 0.100693 0.109064
H62   H     H_    0.459791 0.530461 0.091312 0.146179
O31   O     O_3   0.444089 0.955844 0.186346 -0.571466
C105  C     C_3   0.493863 0.071713 0.184654 -0.024931
H63   H     H_    0.514517 0.109052 0.221731 0.123488
H64   H     H_    0.438360 0.096549 0.166352 0.129273
C106  C     C_3   0.600455 0.117762 0.155831 -0.374492
H65   H     H_    0.583238 0.083168 0.118402 0.161628
H66   H     H_    0.639637 0.208683 0.153607 0.088600
H67   H     H_    0.658312 0.096270 0.174084 0.153994
O32   O     O_3   0.039352 0.484559 0.186268 -0.569025
C107  C     C_3   0.923345 0.418898 0.185142 -0.027883
H68   H     H_    0.887048 0.406444 0.222287 0.124585
H69   H     H_    0.898308 0.337139 0.168636 0.125562
C108  C     C_3   0.876068 0.476206 0.154415 -0.367554
H70   H     H_    0.909030 0.488402 0.116787 0.159331
H71   H     H_    0.784901 0.425339 0.153036 0.096716
H72   H     H_    0.898642 0.557482 0.170567 0.163143
C109  C     C_3   0.461159 0.511101 0.285551 -0.383239
H73   H     H_    0.387365 0.506288 0.302875 0.115948
H74   H     H_    0.432363 0.448604 0.256175 0.184693
H75   H     H_    0.506616 0.488871 0.312225 0.101164
C110  C     C_3   0.487458 0.933877 0.285517 -0.382560
H76   H     H_    0.484021 0.861388 0.303472 0.125414
H77   H     H_    0.548741 0.958641 0.255825 0.189519
H78   H     H_    0.517162 0.003488 0.311466 0.088131
C111  C     C_3   0.065485 0.553708 0.284947 -0.380044
H79   H     H_    0.138532 0.622311 0.302566 0.126618
H80   H     H_    0.040321 0.589860 0.255067 0.191101
H81   H     H_    0.996267 0.515414 0.311111 0.088108
C112  C     C_3   0.737072 0.048860 0.798492 -0.438187
H82   H     H_    0.760210 0.066933 0.837430 0.126666
H83   H     H_    0.791992 0.121995 0.776493 0.113548
H84   H     H_    0.652584 0.034964 0.792991 0.143741
C113  C     C_3   0.943622 0.692252 0.799721 -0.437293
H85   H     H_    0.925626 0.702961 0.838039 0.130180
H86   H     H_    0.871451 0.676072 0.776996 0.113480
H87   H     H_    0.954129 0.618951 0.796996 0.141179
C114  C     C_3   0.289073 0.223378 0.793107 -0.435491
H88   H     H_    0.277329 0.191412 0.830862 0.126052
H89   H     H_    0.308919 0.171731 0.769237 0.115013
H90   H     H_    0.361729 0.307031 0.791993 0.138040
C115  C     C_3   0.617722 0.618612 0.715476 -0.365042
H91   H     H_    0.530940 0.578745 0.727726 0.161713
H92   H     H_    0.619236 0.614757 0.675152 0.124288
H93   H     H_    0.655791 0.570870 0.729779 0.129632
C116  C     C_3   0.376114 0.994614 0.715773 -0.367356
H94   H     H_    0.417753 0.949093 0.728057 0.161742
H95   H     H_    0.379733 0.000148 0.675457 0.124928
H96   H     H_    0.422482 0.079875 0.730147 0.128553
C117  C     C_3   0.998542 0.374214 0.711807 -0.364663
H97   H     H_    0.046449 0.459129 0.726127 0.161608
H98   H     H_    0.995904 0.377579 0.671491 0.124632
H99   H     H_    0.912408 0.337682 0.725039 0.130867
O33   O     O_3   0.617017 0.646965 0.812751 -0.570693
C118  C     C_3   0.668651 0.603880 0.842755 -0.023515
H100  H     H_    0.728419 0.666949 0.868368 0.141116
H101  H     H_    0.710930 0.570628 0.819943 0.122871
C119  C     C_3   0.581227 0.509860 0.872672 -0.370428
H102  H     H_    0.520949 0.444506 0.848202 0.142603
H103  H     H_    0.620521 0.474417 0.896218 0.094255
H104  H     H_    0.537181 0.540416 0.896015 0.161380
O34   O     O_3   0.348716 0.963654 0.813180 -0.571221
C120  C     C_3   0.389825 0.056459 0.844033 -0.023363
H105  H     H_    0.324932 0.053364 0.868537 0.139443
H106  H     H_    0.425297 0.132673 0.821824 0.124015
C121  C     C_3   0.480555 0.059977 0.875932 -0.371569
H107  H     H_    0.549053 0.067168 0.853001 0.140900
H108  H     H_    0.512764 0.132073 0.900702 0.095484
H109  H     H_    0.447660 0.983791 0.898079 0.161679
O35   O     O_3   0.020179 0.362002 0.808761 -0.572057
C122  C     C_3   0.928170 0.312855 0.840012 -0.022079
H110  H     H_    0.925197 0.244089 0.861589 0.134116
H111  H     H_    0.851540 0.283049 0.818329 0.125126
C123  C     C_3   0.934590 0.399027 0.875618 -0.367097
H112  H     H_    0.935866 0.468515 0.855512 0.142054
H113  H     H_    0.861845 0.362018 0.900058 0.094931
H114  H     H_    0.010605 0.430612 0.897989 0.166223

loop_
_geom_bond_atom_site_label_1
_geom_bond_atom_site_label_2
_ccdc_geom_bond_type
Cr6   O26   S    
C15   C18   T    
C82   C112  S    
C118  C119  S    
C10   C85   T    
C104  H62   S    
Cr6   O23   S    
C82   C94   S    
C64   C70   A    
Cr3   O15   S    
C26   C29   A    
C2    C18   S    
C33   C45   A    
C114  H88   S    
C48   C75   A    
C35   O10   A    
C69   C90   S    
O27   C97   S    
C119  H104  S    
C92   H8    S    
C6    C9    S    
C53   C59   A    
C110  H78   S    
C117  H97   S    
C98   H46   S    
Cr2   O8    S    
C26   O28   S    
C99   H48   S    
C25   C28   A    
C40   H19   S    
C35   O14   A    
C67   C88   S    
C33   C39   A    
C31   C43   A    
C45   C48   A    
C101  C102  S    
C110  H77   S    
Cr5   O18   S    
C9    C117  S    
C37   C40   A    
C69   C93   S    
C103  C104  S    
C34   C77   S    
C121  H109  S    
C120  H106  S    
C117  H98   S    
C74   H23   S    
C109  H75   S    
C28   C40   A    
C11   C86   T    
C11   C95   S    
C80   H35   S    
C30   C57   A    
C93   H9    S    
O33   C118  S    
C3    O9    A    
C80   H32   S    
C101  H54   S    
C84   C96   S    
C80   C89   S    
Cr5   O23   S    
C39   C42   A    
C6    H12   S    
C51   H30   S    
C110  H76   S    
C36   C76   S    
C36   O15   A    
C43   H13   S    
C28   C55   A    
C31   C70   A    
C66   C72   A    
C37   H16   S    
C7    C88   S    
C8    C116  S    
C97   H44   S    
C120  H105  S    
C115  H92   S    
C118  H101  S    
C106  H67   S    
C64   C73   A    
C107  C108  S    
Cr5   O25   S    
Cr4   O17   S    
C68   H5    S    
C32   C38   A    
C8    H41   S    
C24   O26   A    
C61   O30   S    
C33   C72   A    
C52   C55   A    
C22   O24   A    
C25   O27   S    
C58   C61   A    
O35   C122  S    
C4    H10   S    
C22   O5    A    
C104  H60   S    
Cr6   O22   S    
Cr3   O16   S    
Cr3   O12   S    
C27   C30   A    
C113  H86   S    
C14   C17   T    
O32   C107  S    
C80   C83   S    
C120  C121  S    
C93   H3    S    
C79   C88   S    
C5    C95   S    
C9    H42   S    
C99   H49   S    
C42   H21   S    
C81   H33   S    
C98   H47   S    
C116  H95   S    
C2    O8    A    
C81   H36   S    
C79   H31   S    
C26   C77   A    
C21   O17   A    
Cr1   O10   S    
C106  H65   S    
C50   C53   A    
Cr1   O16   S    
Cr2   O14   S    
O34   C120  S    
C123  H114  S    
C47   C74   A    
C38   C41   A    
Cr4   O20   S    
C24   O4    A    
C100  H52   S    
C91   H1    S    
C109  H73   S    
C92   H2    S    
C19   C48   S    
Cr6   O19   S    
C117  H99   S    
C54   C60   A    
O30   C103  S    
Cr2   O2    S    
C4    C7    S    
C65   C71   A    
C20   O19   A    
C123  H112  S    
C114  H89   S    
C92   C95   S    
C21   O22   A    
C102  H55   S    
C27   C78   A    
C3    C16   S    
C101  H53   S    
C2    O1    A    
C19   O18   A    
Cr1   O13   S    
C41   H20   S    
C61   C64   A    
C69   H6    S    
C108  H70   S    
C102  H56   S    
C14   C89   S    
C82   H37   S    
C79   H34   S    
C67   H25   S    
C109  H74   S    
C99   C100  S    
C58   C109  S    
C5    H11   S    
C111  H79   S    
C23   O25   A    
C105  C106  S    
C113  H85   S    
C73   H22   S    
C83   C95   S    
C118  H100  S    
C67   C91   S    
C68   C89   S    
Cr1   O7    S    
C49   C76   A    
C100  H50   S    
C112  H83   S    
C32   C71   A    
C22   C87   S    
C105  H63   S    
Cr5   O21   S    
C44   H14   S    
C83   C113  S    
C52   C58   A    
Cr6   O6    S    
C4    C94   S    
C81   C90   S    
C122  H111  S    
C111  H80   S    
C23   O6    A    
C107  H69   S    
C93   C96   S    
C6    C96   S    
Cr4   O23   S    
C68   H26   S    
C113  H87   S    
C60   C63   A    
C108  H72   S    
C84   C114  S    
C122  H110  S    
C7    C115  S    
C119  H102  S    
C59   C62   A    
C50   C77   A    
C104  H61   S    
C81   C84   S    
C97   H43   S    
C97   C98   S    
C38   H17   S    
C56   C71   A    
C116  H96   S    
C45   H15   S    
C5    C8    S    
Cr3   O3    S    
Cr2   O11   S    
C115  H93   S    
C62   C65   A    
C29   C41   A    
C6    O35   S    
Cr1   O1    S    
C30   C42   A    
C27   O29   S    
C49   C52   A    
Cr2   O16   S    
C103  H58   S    
C119  H103  S    
C50   H29   S    
C9    C90   S    
C79   C82   S    
C121  H107  S    
C44   C47   A    
C67   H4    S    
C55   C70   A    
C29   C56   A    
C34   O12   A    
C49   H28   S    
C35   C78   S    
C1    C17   S    
C4    O33   S    
Cr4   O24   S    
C51   C54   A    
C60   C111  S    
C75   H24   S    
C108  H71   S    
C36   O11   A    
C51   C78   A    
O29   C101  S    
C12   C87   T    
C98   H45   S    
C25   C76   A    
C91   C94   S    
C105  H64   S    
C121  H108  S    
C91   H7    S    
C84   H39   S    
Cr4   O4    S    
C122  C123  S    
C66   C75   A    
Cr3   O9    S    
C13   C88   S    
Cr5   O5    S    
C68   C92   S    
C1    O7    A    
C114  H90   S    
C59   C110  S    
C19   O20   A    
C46   C73   A    
C57   C72   A    
C43   C46   A    
C63   O32   S    
C62   O31   S    
C63   C66   A    
C103  H59   S    
C1    O3    A    
C112  H84   S    
C65   C74   A    
C83   H38   S    
O28   C99   S    
C34   O13   A    
C31   C37   A    
C123  H113  S    
C111  H81   S    
C107  H68   S    
C32   C44   A    
C3    O2    A    
C69   H27   S    
C39   H18   S    
C23   C85   S    
C13   C16   T    
C53   C56   A    
C112  H82   S    
C106  H66   S    
C10   C94   S    
C12   C96   S    
C100  H51   S    
C8    C89   S    
O31   C105  S    
C21   C47   S    
C24   C86   S    
C5    O34   S    
C7    H40   S    
C20   C46   S    
C102  H57   S    
C115  H91   S    
C116  H94   S    
C15   C90   S    
C54   C57   A    
C20   O21   A    
