data_mof_unit_29548.cif
_audit_creation_date              2012-12-10T18:28:14-0500
_audit_creation_method            fapswitch 2.2
_symmetry_space_group_name_H-M    P1
_symmetry_Int_Tables_number       1
_space_group_crystal_system       triclinic
_cell_length_a                    22.95505
_cell_length_b                    19.939036
_cell_length_c                    14.75859
_cell_angle_alpha                 90.418712
_cell_angle_beta                  100.576919
_cell_angle_gamma                 87.913777
_cell_volume                      6635.85492434

loop_
_atom_site_label
_atom_site_type_symbol
_atom_type_description
_atom_site_fract_x
_atom_site_fract_y
_atom_site_fract_z
_atom_type_partial_charge
C1    C     C_R   0.571891 0.091553 0.552299 0.880296
C2    C     C_R   0.723079 0.752777 0.293582 -0.210628
C3    C     C_R   0.714270 0.244064 0.476594 -0.010680
C4    C     C_R   0.180289 0.224084 0.426175 0.005421
C5    C     C_R   0.720603 0.668952 0.444289 0.060077
C6    C     C_R   0.761724 0.286910 0.508059 0.035584
C7    C     C_R   0.216346 0.742239 0.480844 -0.010941
C8    C     C_R   0.208816 0.119564 0.507872 0.131042
C9    C     C_R   0.675005 0.756694 0.339446 0.120418
C10   C     C_R   0.704427 0.221243 0.383461 0.123454
C11   C     C_R   0.270027 0.812420 0.603542 0.133132
C12   C     C_R   0.708466 0.619349 0.506945 0.132069
C13   C     C_R   0.750557 0.223211 0.334026 -0.152670
C14   C     C_R   0.174869 0.256460 0.339735 0.120855
C15   C     C_R   0.205823 0.719875 0.387440 0.126250
C16   C     C_R   0.768158 0.313253 0.600365 0.169394
C17   C     C_3   0.618177 0.038572 0.883187 -0.458592
C18   C     C_3   0.663797 0.092353 0.912894 -0.793320
C19   C     C_3   0.441370 0.141648 0.102138 -0.465427
C20   C     C_3   0.432305 0.210310 0.054481 -0.739931
C21   C     C_3   0.118322 0.540935 0.883590 -0.464872
C22   C     C_3   0.163193 0.595421 0.913652 -0.767069
C23   C     C_3   0.940379 0.641307 0.102564 -0.459899
C24   C     C_R   0.222423 0.808002 0.650823 -0.248922
C25   C     C_3   0.930838 0.710084 0.055286 -0.746995
C26   C     C_3   0.440935 0.204816 0.320390 -0.432178
C27   C     C_3   0.476332 0.242296 0.401495 -0.869298
C28   C     C_3   0.557711 0.815318 0.715240 -0.402734
C29   C     C_3   0.598247 0.852670 0.790998 -0.858677
C30   C     C_3   0.525742 0.206597 0.662660 -0.357464
C31   C     C_3   0.522455 0.176209 0.756134 -0.692739
C32   C     C_3   0.447094 0.809718 0.298704 -0.399611
C33   C     C_3   0.437190 0.855251 0.213721 -0.808144
C34   C     C_3   0.941404 0.705517 0.322176 -0.432400
C35   C     C_R   0.671117 0.637740 0.569166 -0.222546
C36   C     C_3   0.976135 0.742907 0.404001 -0.869285
C37   C     C_3   0.058385 0.315977 0.716158 -0.401966
C38   C     C_3   0.098761 0.354166 0.791214 -0.856452
C39   C     C_3   0.027162 0.706957 0.663770 -0.419287
C40   C     C_3   0.023961 0.684541 0.761316 -0.788731
C41   C     C_3   0.947151 0.309859 0.298613 -0.396750
C42   C     C_3   0.937877 0.355540 0.213802 -0.812909
C43   C     C_2   0.607352 0.679263 0.715281 0.362154
C44   C     C_2   0.329593 0.266966 0.218002 0.334195
C45   C     C_2   0.354558 0.711441 0.244957 0.360495
C46   C     C_R   0.222791 0.252350 0.293548 -0.210300
C47   C     C_2   0.614069 0.310972 0.730857 0.375690
C48   C     C_2   0.108498 0.180053 0.716954 0.362739
C49   C     C_2   0.830311 0.768036 0.219323 0.333618
C50   C     C_2   0.854153 0.212440 0.243156 0.355103
C51   C     C_2   0.120780 0.797988 0.748222 0.365166
C52   C     C_3   0.225386 0.044903 0.501611 -0.425770
C53   C     C_3   0.212725 0.018212 0.402836 -0.815033
C54   C     C_3   0.617208 0.789375 0.290494 -0.430982
C55   C     C_3   0.593067 0.752587 0.200957 -0.818287
C56   C     C_3   0.642976 0.208094 0.329275 -0.456766
C57   C     C_R   0.251593 0.721830 0.337326 -0.151772
C58   C     C_3   0.638865 0.138892 0.284657 -0.764760
C59   C     C_3   0.328069 0.836261 0.660899 -0.403116
C60   C     C_3   0.378320 0.783038 0.667245 -0.780791
C61   C     C_3   0.725007 0.544685 0.500561 -0.425431
C62   C     C_3   0.712863 0.518173 0.401671 -0.816080
C63   C     C_3   0.117012 0.289069 0.290875 -0.430910
C64   C     C_3   0.092644 0.251942 0.201724 -0.819505
C65   C     C_3   0.144018 0.707742 0.333711 -0.455982
C66   C     C_3   0.138973 0.638986 0.287799 -0.764943
C67   C     C_3   0.826509 0.335238 0.658857 -0.409493
C68   C     C_R   0.720007 0.309711 0.646603 -0.287878
C69   C     C_3   0.875744 0.280806 0.664851 -0.789863
C70   C     C_2   0.696528 0.959324 0.223692 0.369067
C71   C     C_2   0.314289 0.074578 0.780994 0.360974
C72   C     C_2   0.196528 0.459920 0.223367 0.369590
C73   C     C_2   0.813892 0.573299 0.781213 0.355303
C74   C     C_R   0.632743 0.979970 0.210492 -0.104968
C75   C     C_R   0.376604 0.048406 0.792192 -0.081909
C76   C     C_R   0.132744 0.480531 0.210312 -0.104930
C77   C     C_R   0.425423 0.911275 0.445574 0.872885
C78   C     C_R   0.876407 0.547831 0.792297 -0.081198
C79   C     C_R   0.606349 0.978971 0.288189 -0.103675
C80   C     C_R   0.394140 0.021555 0.713741 -0.078996
C81   C     C_R   0.106346 0.479044 0.287994 -0.103897
C82   C     C_R   0.893986 0.520867 0.713914 -0.077316
C83   C     C_R   0.514842 0.022274 0.204953 -0.105313
C84   C     C_R   0.491552 0.997525 0.794175 -0.099923
C85   C     C_R   0.014794 0.522421 0.205032 -0.105619
C86   C     C_R   0.991871 0.498831 0.793885 -0.093193
C87   C     C_R   0.538820 0.026914 0.123911 -0.036233
C88   C     C_R   0.424786 0.090071 0.446565 0.868244
C89   C     C_R   0.479345 0.028606 0.874490 -0.039469
C90   C     C_R   0.038737 0.527481 0.123965 -0.035682
C91   C     C_R   0.979415 0.529542 0.874337 -0.041934
C92   C     C_R   0.597917 0.002257 0.125971 0.106176
C93   C     C_R   0.419911 0.052532 0.874222 0.099317
C94   C     C_R   0.097926 0.503181 0.125947 0.106293
C95   C     C_R   0.919767 0.552609 0.874196 0.100118
C96   C     C_R   0.503793 0.049335 0.039413 0.024265
C97   C     C_R   0.523258 0.033153 0.956070 0.016135
C98   C     C_R   0.003630 0.549950 0.039478 0.023205
C99   C     C_R   0.572783 0.907025 0.551479 0.869780
C100  C     C_R   0.023266 0.534322 0.956043 0.016535
C101  C     C_R   0.585349 0.021128 0.960202 0.113548
C102  C     C_R   0.449461 0.086305 0.034104 0.111301
C103  C     C_R   0.085436 0.522848 0.960298 0.111670
C104  C     C_R   0.949016 0.586344 0.034228 0.110638
C105  C     C_R   0.620343 0.000875 0.043857 -0.174769
C106  C     C_R   0.406306 0.081654 0.954731 -0.177342
C107  C     C_R   0.120449 0.502475 0.043903 -0.176244
C108  C     C_R   0.905943 0.581443 0.954767 -0.180501
C109  C     C_R   0.601279 0.838230 0.569218 -0.106563
C110  C     C_R   0.071922 0.591390 0.552288 0.879348
C111  C     C_R   0.376578 0.138902 0.409769 -0.091997
C112  C     C_R   0.384190 0.858195 0.412435 -0.107768
C113  C     C_R   0.604681 0.153060 0.578954 -0.151920
C114  C     C_R   0.101552 0.338464 0.569611 -0.105768
C115  C     C_R   0.876594 0.638899 0.409822 -0.091794
C116  C     C_R   0.884003 0.358437 0.411936 -0.107365
C117  C     C_R   0.105455 0.651971 0.579742 -0.126884
C118  C     C_R   0.614154 0.725390 0.639506 -0.007977
C119  C     C_R   0.327800 0.220713 0.295692 -0.011905
C120  C     C_R   0.349334 0.760550 0.319931 -0.022726
C121  C     C_R   0.925420 0.411274 0.445534 0.872476
C122  C     C_R   0.626041 0.258420 0.663561 -0.027700
C123  C     C_R   0.114869 0.225902 0.640657 -0.008541
C124  C     C_R   0.828198 0.721288 0.296340 -0.011460
C125  C     C_R   0.848766 0.261454 0.318173 -0.021588
C126  C     C_R   0.130069 0.753226 0.670909 -0.011719
C127  C     C_R   0.591351 0.793061 0.639512 0.097317
C128  C     C_R   0.380492 0.186185 0.340007 0.097053
C129  C     C_R   0.392566 0.809938 0.343949 0.077731
C130  C     C_R   0.587924 0.203383 0.639631 0.126514
C131  C     C_R   0.091931 0.293529 0.640366 0.097013
C132  C     C_R   0.924771 0.590041 0.446567 0.866495
C133  C     C_R   0.880777 0.686585 0.340710 0.097320
C134  C     C_R   0.892323 0.310374 0.343162 0.077425
C135  C     C_R   0.089463 0.701705 0.641377 0.087567
C136  C     C_R   0.632429 0.813894 0.501959 -0.310959
C137  C     C_R   0.324206 0.134993 0.444089 -0.288386
C138  C     C_R   0.336625 0.853841 0.457846 -0.280374
C139  C     C_R   0.649499 0.165782 0.530384 -0.276306
C140  C     C_R   0.132588 0.314007 0.502303 -0.310503
C141  C     C_R   0.824076 0.634745 0.443671 -0.288698
C142  C     C_R   0.836079 0.354396 0.456579 -0.281028
C143  C     C_R   0.072864 0.407108 0.551569 0.869626
C144  C     C_R   0.151490 0.663689 0.533480 -0.276945
C145  C     C_R   0.650028 0.746422 0.496448 0.050094
C146  C     C_R   0.272286 0.169787 0.404087 0.063484
C147  C     C_R   0.302404 0.797888 0.449390 0.054070
C148  C     C_R   0.677490 0.226501 0.538582 0.086273
C149  C     C_R   0.150252 0.246551 0.497057 0.050165
C150  C     C_R   0.772266 0.669796 0.403762 0.063289
C151  C     C_R   0.801201 0.298934 0.446852 0.050394
C152  C     C_R   0.180408 0.723812 0.543665 0.060499
C153  C     C_R   0.644620 0.702737 0.568804 0.084583
C154  C     C_R   0.171639 0.138074 0.570288 -0.222385
C155  C     C_R   0.274130 0.213581 0.329282 0.053470
C156  C     C_R   0.302457 0.757316 0.370459 0.057738
C157  C     C_R   0.673597 0.266603 0.615737 0.012747
C158  C     C_R   0.145107 0.203061 0.569773 0.084632
C159  C     C_R   0.774357 0.713921 0.329385 0.053097
C160  C     C_R   0.801443 0.258519 0.367841 0.058320
C161  C     C_R   0.177343 0.762734 0.622487 0.065694
C162  C     C_R   0.680225 0.724099 0.425679 0.005305
C163  C     C_R   0.220750 0.169032 0.444895 0.060306
C164  C     C_R   0.263521 0.785561 0.511495 0.039338
H1    H     H_    0.165686 0.101578 0.621215 0.190721
H2    H     H_    0.643755 0.848662 0.452546 0.170179
H3    H     H_    0.271617 0.032261 0.534428 0.176301
H4    H     H_    0.198542 0.015106 0.541164 0.209672
H5    H     H_    0.549215 0.775032 0.169316 0.245548
H6    H     H_    0.623247 0.756690 0.150627 0.265098
H7    H     H_    0.587583 0.698764 0.215183 0.268310
H8    H     H_    0.582522 0.788191 0.333505 0.220828
H9    H     H_    0.624269 0.842375 0.274952 0.195540
H10   H     H_    0.662069 0.136664 0.224967 0.264433
H11   H     H_    0.658553 0.099573 0.334802 0.262198
H12   H     H_    0.591529 0.128793 0.259071 0.247690
H13   H     H_    0.662198 0.128358 0.483721 0.191313
H14   H     H_    0.608232 0.214674 0.371855 0.223181
H15   H     H_    0.631730 0.246361 0.273819 0.210987
H16   H     H_    0.364252 0.734818 0.692062 0.264694
H17   H     H_    0.391974 0.774736 0.599719 0.264136
H18   H     H_    0.417463 0.799811 0.716899 0.231336
H19   H     H_    0.341898 0.884916 0.638692 0.198188
H20   H     H_    0.322409 0.846366 0.733054 0.204245
H21   H     H_    0.719327 0.462675 0.402351 0.241362
H22   H     H_    0.666466 0.531181 0.368222 0.266705
H23   H     H_    0.743741 0.539103 0.360520 0.262985
H24   H     H_    0.325146 0.895934 0.497975 0.163560
H25   H     H_    0.771097 0.531934 0.534023 0.176095
H26   H     H_    0.697828 0.514840 0.539502 0.208447
H27   H     H_    0.048874 0.274529 0.169929 0.245385
H28   H     H_    0.122812 0.255481 0.151273 0.265495
H29   H     H_    0.086909 0.198261 0.216514 0.268062
H30   H     H_    0.082453 0.288133 0.334128 0.220728
H31   H     H_    0.124066 0.341994 0.274872 0.195588
H32   H     H_    0.161551 0.637183 0.227417 0.263828
H33   H     H_    0.158817 0.599071 0.336868 0.262469
H34   H     H_    0.091440 0.629390 0.262988 0.247720
H35   H     H_    0.825395 0.606844 0.505830 0.173758
H36   H     H_    0.109592 0.714390 0.376859 0.222956
H37   H     H_    0.132863 0.746566 0.278985 0.210172
H38   H     H_    0.860659 0.232938 0.689138 0.262496
H39   H     H_    0.889318 0.272316 0.597301 0.265842
H40   H     H_    0.915226 0.296486 0.714721 0.232871
H41   H     H_    0.841529 0.383593 0.637633 0.198544
H42   H     H_    0.820659 0.345084 0.730975 0.198852
H43   H     H_    0.713978 0.920502 0.273569 0.055190
H44   H     H_    0.279792 0.048769 0.735021 0.054550
H45   H     H_    0.213922 0.420693 0.272644 0.055535
H46   H     H_    0.143746 0.348663 0.452614 0.170325
H47   H     H_    0.779582 0.547060 0.735461 0.051762
H48   H     H_    0.163831 0.626490 0.486231 0.191763
H49   H     H_    0.824800 0.396406 0.497057 0.162661
H50   H     H_    0.665495 0.984359 0.042998 0.209916
H51   H     H_    0.363062 0.103852 0.956769 0.217065
H52   H     H_    0.165712 0.486408 0.043052 0.210141
H53   H     H_    0.720508 0.782792 0.232182 0.193056
H54   H     H_    0.862513 0.603096 0.956857 0.216319
H55   H     H_    0.533948 0.974437 0.790417 0.147007
H56   H     H_    0.468841 0.035079 0.205907 0.136678
H57   H     H_    0.034513 0.476450 0.789980 0.145526
H58   H     H_    0.968768 0.534999 0.206069 0.136323
H59   H     H_    0.363763 0.022766 0.648348 0.114754
H60   H     H_    0.632481 0.963573 0.353773 0.138104
H61   H     H_    0.863471 0.521481 0.648639 0.113720
H62   H     H_    0.132498 0.463412 0.353459 0.138073
H63   H     H_    0.642613 0.136732 0.941382 0.267821
H64   H     H_    0.743586 0.203629 0.264511 0.191980
H65   H     H_    0.701212 0.072571 0.965538 0.272859
H66   H     H_    0.682098 0.108650 0.852287 0.251603
H67   H     H_    0.641091 0.992820 0.861685 0.211940
H68   H     H_    0.588282 0.059689 0.822412 0.222817
H69   H     H_    0.468111 0.218251 0.014613 0.258020
H70   H     H_    0.388685 0.214303 0.007354 0.284625
H71   H     H_    0.433513 0.251045 0.106147 0.234737
H72   H     H_    0.402859 0.131594 0.135328 0.224138
H73   H     H_    0.481715 0.145159 0.155918 0.204232
H74   H     H_    0.141283 0.639522 0.941567 0.265195
H75   H     H_    0.224256 0.835278 0.714674 0.196345
H76   H     H_    0.200557 0.576226 0.966845 0.270307
H77   H     H_    0.181678 0.611971 0.853341 0.257194
H78   H     H_    0.141819 0.495532 0.862245 0.211756
H79   H     H_    0.088502 0.561731 0.822594 0.226764
H80   H     H_    0.966727 0.718682 0.015823 0.252848
H81   H     H_    0.887321 0.713725 0.007847 0.285198
H82   H     H_    0.931486 0.750599 0.107157 0.235688
H83   H     H_    0.901899 0.630678 0.135542 0.223451
H84   H     H_    0.980592 0.645057 0.156552 0.203409
H85   H     H_    0.448377 0.282615 0.426126 0.265020
H86   H     H_    0.665010 0.601134 0.619864 0.189456
H87   H     H_    0.493305 0.206974 0.458351 0.240427
H88   H     H_    0.514754 0.265659 0.380006 0.247518
H89   H     H_    0.467027 0.160356 0.303810 0.231644
H90   H     H_    0.437292 0.237568 0.259690 0.199641
H91   H     H_    0.615061 0.897957 0.762620 0.260563
H92   H     H_    0.573563 0.867720 0.846349 0.244257
H93   H     H_    0.636695 0.819649 0.821745 0.261846
H94   H     H_    0.516730 0.844976 0.687977 0.235397
H95   H     H_    0.540002 0.772358 0.747496 0.194903
H96   H     H_    0.487708 0.203409 0.786843 0.247348
H97   H     H_    0.220065 0.282164 0.231930 0.192481
H98   H     H_    0.509591 0.123537 0.746771 0.246797
H99   H     H_    0.565262 0.178314 0.804868 0.279964
H100  H     H_    0.509066 0.259685 0.660859 0.213278
H101  H     H_    0.493582 0.181602 0.608905 0.187022
H102  H     H_    0.417289 0.904840 0.228068 0.273822
H103  H     H_    0.407047 0.831815 0.155725 0.233007
H104  H     H_    0.480161 0.863542 0.192058 0.246819
H105  H     H_    0.486472 0.824766 0.348894 0.218430
H106  H     H_    0.459716 0.758263 0.278430 0.194393
H107  H     H_    0.948272 0.784283 0.426405 0.264129
H108  H     H_    0.244243 0.702357 0.267746 0.192956
H109  H     H_    0.991262 0.707939 0.462033 0.240713
H110  H     H_    0.015694 0.764863 0.384179 0.247154
H111  H     H_    0.967802 0.661216 0.305862 0.231685
H112  H     H_    0.938112 0.738429 0.261681 0.198848
H113  H     H_    0.115195 0.399435 0.762200 0.260898
H114  H     H_    0.074078 0.369394 0.846496 0.243601
H115  H     H_    0.137466 0.321612 0.822247 0.261999
H116  H     H_    0.017104 0.345090 0.688749 0.235084
H117  H     H_    0.041148 0.273070 0.749200 0.193905
H118  H     H_    0.986657 0.711885 0.785491 0.246526
H119  H     H_    0.722571 0.334301 0.712778 0.136767
H120  H     H_    0.014643 0.630626 0.760488 0.268294
H121  H     H_    0.065478 0.693764 0.810729 0.264036
H122  H     H_    0.010184 0.759773 0.653851 0.184820
H123  H     H_    0.995151 0.678250 0.614332 0.219373
H124  H     H_    0.917719 0.405052 0.227864 0.273703
H125  H     H_    0.908209 0.332144 0.155224 0.230259
H126  H     H_    0.981117 0.364007 0.193128 0.247674
H127  H     H_    0.986417 0.324624 0.349254 0.217871
H128  H     H_    0.959634 0.258352 0.278350 0.194386
H129  H     H_    0.621854 0.694094 0.786501 0.097164
H130  H     H_    0.325710 0.107518 0.506657 0.173217
H131  H     H_    0.357901 0.309810 0.227941 0.088639
H132  H     H_    0.371223 0.726555 0.184411 0.082171
H133  H     H_    0.625683 0.362434 0.721694 0.073407
H134  H     H_    0.123267 0.195184 0.787987 0.097723
H135  H     H_    0.858758 0.810743 0.229972 0.087682
H136  H     H_    0.871165 0.227569 0.182934 0.079589
H137  H     H_    0.078470 0.824341 0.746742 0.086067
H138  H     H_    0.219335 0.962730 0.403627 0.241297
H139  H     H_    0.166175 0.031039 0.369978 0.266389
H140  H     H_    0.243237 0.039194 0.361086 0.263329
N1    N     N_R   0.549130 0.000000 0.284090 -0.082903
N2    N     N_R   0.450870 0.000000 0.715910 -0.094634
N3    N     N_R   0.049130 0.500000 0.284090 -0.082951
N4    N     N_R   0.950870 0.500000 0.715910 -0.092748
O1    O     O_R   0.541320 0.066090 0.608930 -0.602017
O2    O     O_R   0.427120 0.933890 0.529720 -0.613884
O3    O     O_R   0.427120 0.066110 0.529720 -0.616577
O4    O     O_R   0.572880 0.933890 0.470280 -0.618657
O5    O     O_R   0.072880 0.566110 0.470280 -0.601819
O6    O     O_R   0.927120 0.433890 0.529720 -0.614344
O7    O     O_R   0.927120 0.566110 0.529720 -0.616161
O8    O     O_R   0.072880 0.433890 0.470280 -0.618687
O9    O     O_2   0.582946 0.626010 0.698623 -0.565550
O10   O     O_2   0.300119 0.256539 0.141897 -0.558538
O11   O     O_2   0.342142 0.652864 0.251670 -0.533394
O12   O     O_R   0.458680 0.933910 0.391070 -0.596850
O13   O     O_2   0.592597 0.297608 0.797940 -0.564458
O14   O     O_2   0.084148 0.126708 0.700960 -0.566306
O15   O     O_2   0.800956 0.758174 0.142963 -0.559732
O16   O     O_2   0.841507 0.153907 0.249514 -0.535032
O17   O     O_2   0.159440 0.803063 0.816491 -0.574704
O18   O     O_2   0.730941 0.988225 0.184836 -0.544111
O19   O     O_2   0.301222 0.127172 0.816358 -0.569338
O20   O     O_2   0.230992 0.489254 0.185114 -0.542869
O21   O     O_2   0.800421 0.625790 0.816426 -0.570019
O22   O     O_R   0.458680 0.066090 0.391070 -0.609784
O23   O     O_R   0.541320 0.933910 0.608930 -0.600895
O24   O     O_R   0.041320 0.566090 0.608930 -0.598541
O25   O     O_R   0.958680 0.433910 0.391070 -0.596675
O26   O     O_R   0.958680 0.566090 0.391070 -0.610110
O27   O     O_R   0.041320 0.433910 0.608930 -0.601265
O28   O     O_R   0.572880 0.066110 0.470280 -0.600243
Zn1   Zn    Zn3+2 0.478910 0.000000 0.592580 0.912045
Zn2   Zn    Zn3+2 0.521090 0.000000 0.407420 0.915765
Zn3   Zn    Zn3+2 0.978910 0.500000 0.592580 0.915197
Zn4   Zn    Zn3+2 0.021090 0.500000 0.407420 0.915055

loop_
_geom_bond_atom_site_label_1
_geom_bond_atom_site_label_2
_ccdc_geom_bond_type
C42   H126  S    
C96   C102  A    
C19   C20   S    
C144  H48   S    
C115  C141  A    
C79   H60   S    
C46   C155  A    
C75   C93   A    
C124  C133  A    
O7    Zn3   S    
C53   H138  S    
C154  C158  A    
C147  C164  A    
C83   N1    A    
C118  C153  A    
C31   H99   S    
C114  C131  A    
C74   C92   A    
C23   H84   S    
C27   H87   S    
C50   H136  S    
C76   C94   A    
C109  C127  A    
C24   C161  A    
C2    C159  A    
C70   C74   S    
C91   C100  A    
C85   H58   S    
C13   C160  A    
C30   H101  S    
C67   H41   S    
C85   N3    A    
C68   H119  S    
C119  C128  A    
C7    C15   A    
C59   C60   S    
C10   C13   A    
C21   C22   S    
C61   H25   S    
C32   H105  S    
C58   H10   S    
C1    C113  S    
C48   H134  S    
C36   H110  S    
C64   H28   S    
C41   H127  S    
C139  C148  A    
C116  C121  S    
C112  C138  A    
C137  C146  A    
C142  H49   S    
C5    C12   A    
C14   C46   A    
C18   H66   S    
C1    O28   A    
C44   C119  S    
C39   H123  S    
C49   C124  S    
C50   O16   D    
C29   H93   S    
C142  C151  A    
C77   C112  S    
C79   N1    A    
C37   C38   S    
C78   C82   A    
C28   H95   S    
O12   Zn2   S    
C116  C142  A    
C6    C151  A    
C45   C120  S    
C74   C79   A    
C43   H129  S    
C72   O20   D    
C117  C135  A    
C111  C137  A    
C25   H80   S    
C137  H130  S    
C53   H140  S    
C85   C90   A    
C87   C96   A    
C34   H111  S    
C57   H108  S    
C33   H102  S    
C114  C143  S    
C121  O6    A    
C32   C33   S    
C80   H59   S    
C29   H91   S    
C27   H85   S    
C18   H63   S    
C37   H116  S    
C6    C16   A    
C7    C152  A    
C38   H115  S    
C103  C107  A    
C9    C54   S    
C141  H35   S    
C44   O10   D    
N3    Zn4   S    
C45   O11   D    
C22   H77   S    
C15   C65   S    
C3    C6    A    
C19   H72   S    
C125  C160  A    
C56   H14   S    
C40   H118  S    
O1    Zn1   S    
C49   H135  S    
C88   C111  S    
C113  C139  A    
C154  H1    S    
C31   H96   S    
C114  C140  A    
C149  C158  A    
C8    C52   S    
C55   H6    S    
C152  C161  A    
C28   C127  S    
C121  O25   A    
C62   H22   S    
C88   O22   A    
C25   H82   S    
C69   H38   S    
C96   C97   A    
C4    C14   A    
C99   O4    A    
C32   C129  S    
C17   H68   S    
C141  C150  A    
C115  C132  S    
C57   C156  A    
C94   C107  A    
C63   H30   S    
C101  C105  A    
C81   H62   S    
C33   H104  S    
C120  C129  A    
C54   H8    S    
C117  C144  A    
C95   C108  A    
C39   C40   S    
C51   H137  S    
O23   Zn1   S    
C43   C118  S    
C70   H43   S    
C77   O12   A    
C35   H86   S    
C143  O27   A    
C37   C131  S    
N1    Zn2   S    
C138  H24   S    
C139  H13   S    
C93   C106  A    
C38   H113  S    
C72   H45   S    
C17   C18   S    
C4    C163  A    
C16   C67   S    
C12   C35   A    
C59   H19   S    
C66   H34   S    
C28   H94   S    
C112  C129  A    
C113  C130  A    
C118  C127  A    
C37   H117  S    
C52   C53   S    
C81   N3    A    
C82   N4    A    
C60   H17   S    
C54   C55   S    
C40   H120  S    
C105  H50   S    
C51   C126  S    
C73   H47   S    
C35   C153  A    
C26   H89   S    
C80   N2    A    
C144  C152  A    
C84   N2    A    
O8    Zn4   S    
C86   N4    A    
C56   C58   S    
C34   C36   S    
C148  C157  A    
C23   H83   S    
C61   C62   S    
C91   C95   A    
C63   C64   S    
O26   Zn4   S    
C69   H40   S    
C20   H69   S    
C111  C128  A    
C21   H78   S    
C2    C9    A    
C140  C149  A    
O2    Zn1   S    
C125  C134  A    
C83   C87   A    
C71   O19   D    
C41   C42   S    
C32   H106  S    
C58   H11   S    
C48   C123  S    
C140  H46   S    
C70   O18   D    
C39   C135  S    
C46   H97   S    
C26   C27   S    
C28   C29   S    
C86   C91   A    
C19   H73   S    
C52   H3    S    
C30   C31   S    
C19   C102  S    
C116  C134  A    
C99   C109  S    
C40   H121  S    
C120  C156  A    
C43   O9    D    
C49   O15   D    
C73   O21   D    
C146  C155  A    
C110  O5    A    
C86   H57   S    
O3    Zn1   S    
C126  C161  A    
C108  H54   S    
C42   H125  S    
C87   C92   A    
C11   C59   S    
O24   Zn3   S    
C55   H7    S    
C90   C94   A    
C22   H76   S    
C53   H139  S    
C110  O24   A    
C150  C159  A    
C51   O17   D    
C30   C130  S    
C34   H112  S    
C47   O13   D    
C100  C103  A    
C5    C150  A    
C27   H88   S    
C4    C149  A    
C65   H36   S    
C23   C104  S    
C78   C95   A    
C20   H71   S    
C147  C156  A    
C24   H75   S    
O28   Zn2   S    
C71   H44   S    
C126  C135  A    
C98   C100  A    
C61   H26   S    
C45   H132  S    
C63   H31   S    
C68   C157  A    
C36   H109  S    
C104  C108  A    
C64   H27   S    
C54   H9    S    
C41   H128  S    
C1    O1    A    
C88   O3    A    
C123  C131  A    
C18   H65   S    
O4    Zn2   S    
C60   H16   S    
C115  C133  A    
C7    C164  A    
C48   O14   D    
C5    C162  A    
C12   C61   S    
C136  H2    S    
C110  C117  S    
C14   C63   S    
C122  C157  A    
C92   C105  A    
C55   H5    S    
N2    Zn1   S    
C62   H23   S    
C22   H74   S    
C25   H81   S    
C71   C75   S    
N4    Zn3   S    
C72   C76   S    
C13   H64   S    
C17   H67   S    
C106  H51   S    
C33   H103  S    
C31   H98   S    
C132  O7    A    
C47   H133  S    
C145  C162  A    
C124  C159  A    
C11   C24   A    
C29   H92   S    
C17   C101  S    
C38   H114  S    
C107  H52   S    
C44   H131  S    
C2    H53   S    
C73   C78   S    
C16   C68   A    
C8    C154  A    
C75   C80   A    
C50   C125  S    
C136  C145  A    
C145  C153  A    
C77   O2    A    
C3    C148  A    
C109  C136  A    
C89   C93   A    
C15   C57   A    
C59   H20   S    
O22   Zn2   S    
C41   C134  S    
C39   H122  S    
C60   H18   S    
C82   H61   S    
C26   H90   S    
C47   C122  S    
C34   C133  S    
C99   O23   A    
C89   C97   A    
C67   C69   S    
C84   H55   S    
C138  C147  A    
C64   H29   S    
O25   Zn4   S    
O5    Zn4   S    
C26   C128  S    
C67   H42   S    
C62   H21   S    
C69   H39   S    
C20   H70   S    
C84   C89   A    
C10   C56   S    
C143  O8    A    
C119  C155  A    
C58   H12   S    
C8    C163  A    
C76   C81   A    
C66   H32   S    
C132  O26   A    
C123  C158  A    
C146  C163  A    
C21   H79   S    
C151  C160  A    
C3    C10   A    
O6    Zn3   S    
C52   H4    S    
O27   Zn3   S    
C83   H56   S    
C98   C104  A    
C11   C164  A    
C36   H107  S    
C90   C98   A    
C102  C106  A    
C30   H100  S    
C23   C25   S    
C9    C162  A    
C42   H124  S    
C66   H33   S    
C21   C103  S    
C65   H37   S    
C65   C66   S    
C122  C130  A    
C97   C101  A    
C56   H15   S    
