data_mof_unit_8143.cif
_audit_creation_date              2013-03-05T15:59:22-0500
_audit_creation_method            fapswitch 2.2
_symmetry_space_group_name_H-M    P1
_symmetry_Int_Tables_number       1
_space_group_crystal_system       triclinic
_cell_length_a                    10.53366
_cell_length_b                    12.608761
_cell_length_c                    13.079094
_cell_angle_alpha                 82.850117
_cell_angle_beta                  90.819766
_cell_angle_gamma                 101.698783
_cell_volume                      1687.69912708

loop_
_atom_site_label
_atom_site_type_symbol
_atom_site_description
_atom_site_fract_x
_atom_site_fract_y
_atom_site_fract_z
_atom_type_partial_charge
O1    O     O_R   0.467970 0.366730 0.627150 -0.624907
O2    O     O_R   0.510820 0.544830 0.662520 -0.615367
C1    C     C_R   0.491119 0.439454 0.691430 0.856623
O3    O     O_R   0.664630 0.410960 0.482340 -0.640278
O4    O     O_R   0.707470 0.589060 0.517710 -0.595453
C2    C     C_R   0.741297 0.498519 0.503993 0.901852
Zn1   Zn    Zn3+2 0.471390 0.381080 0.476380 0.945385
Zn2   Zn    Zn3+2 0.528610 0.618920 0.523620 0.986116
O5    O     O_R   0.489180 0.455170 0.337480 -0.609499
O6    O     O_R   0.532030 0.633270 0.372850 -0.620939
O7    O     O_R   0.292530 0.410940 0.482290 -0.591909
O8    O     O_R   0.335370 0.589040 0.517660 -0.616538
C3    C     C_R   0.520403 0.560704 0.308783 0.894544
C4    C     C_R   0.257469 0.499436 0.501920 0.912094
C5    C     C_3   0.931701 0.392283 0.524360 -0.272494
C6    C     C_3   0.031026 0.448648 0.599061 -0.221477
H1    H     H_    0.062163 0.409999 0.673572 0.168658
H2    H     H_    0.869290 0.309676 0.540175 0.152333
C7    C     C_3   0.121517 0.498878 0.506673 -0.119418
C8    C     C_3   0.023757 0.443133 0.432888 0.536255
C9    C     C_3   0.964709 0.545805 0.415222 -0.239815
C10   C     C_3   0.060850 0.600199 0.492168 -0.032584
C11   C     C_3   0.969364 0.550976 0.583950 -0.162635
C12   C     C_3   0.875200 0.496105 0.507565 -0.085711
H3    H     H_    0.934075 0.583792 0.340205 0.196405
H4    H     H_    0.941382 0.595016 0.645482 0.201774
C13   C     C_R   0.712437 0.699961 0.070477 -0.197399
H5    H     H_    0.790124 0.769206 0.049493 0.199313
C14   C     C_R   0.560923 0.595875 0.201537 -0.154149
C15   C     C_R   0.412880 0.301554 0.839597 -0.305642
C16   C     C_R   0.403969 0.268063 0.944899 -0.173172
C17   C     C_R   0.467215 0.336756 0.013711 0.504888
C18   C     C_R   0.534770 0.444048 0.975356 -0.059087
C19   C     C_R   0.565542 0.467173 0.870027 0.026960
C20   C     C_R   0.573152 0.528550 0.037484 0.059314
C21   C     C_R   0.669745 0.621735 0.002540 0.068292
C22   C     C_R   0.722406 0.631361 0.902069 -0.026453
C23   C     C_R   0.668095 0.554771 0.836676 -0.235298
C24   C     C_R   0.512514 0.523533 0.132153 -0.193650
C25   C     C_R   0.661053 0.686733 0.170282 -0.044830
C26   C     C_R   0.493288 0.401068 0.801373 -0.088749
H6    H     H_    0.427981 0.460731 0.154590 0.212524
H7    H     H_    0.357752 0.249186 0.787957 0.188545
H8    H     H_    0.348440 0.188028 0.973422 0.204893
H9    H     H_    0.707579 0.563252 0.759457 0.161325
C27   C     C_R   0.330900 0.095680 0.332890 -0.078844
H10   H     H_    0.312013 0.263712 0.324261 0.189188
N1    N     N_R   0.432930 0.222190 0.444670 -0.120346
C28   C     C_R   0.655175 0.800906 0.628916 0.067967
C29   C     C_R   0.691580 0.907052 0.652620 -0.214715
C30   C     C_R   0.634799 0.988423 0.601000 -0.211812
C31   C     C_R   0.542154 0.964275 0.523455 0.022814
C32   C     C_R   0.512158 0.855863 0.499943 0.232444
C33   C     C_R   0.479043 0.043213 0.468608 -0.039191
C34   C     C_R   0.397850 0.016147 0.382621 0.004394
C35   C     C_R   0.386277 0.910553 0.351874 -0.065960
C36   C     C_R   0.431845 0.830844 0.417091 -0.246288
C37   C     C_R   0.492878 0.148516 0.497642 -0.053377
C38   C     C_R   0.356762 0.199925 0.363159 -0.060254
N2    N     N_R   0.566370 0.776980 0.554790 -0.118483
H11   H     H_    0.550611 0.175083 0.561723 0.131095
H12   H     H_    0.700035 0.737617 0.667664 0.129524
H13   H     H_    0.668813 0.069559 0.621164 0.142037
H14   H     H_    0.764575 0.926892 0.709918 0.202946
H15   H     H_    0.406036 0.749220 0.399529 0.226160
O9    O     O_3   0.467383 0.293932 0.116615 -0.633438
C39   C     C_3   0.593864 0.280811 0.146340 0.067659
H16   H     H_    0.593480 0.262822 0.231683 0.183710
H17   H     H_    0.668360 0.356738 0.126777 0.135537
C40   C     C_3   0.632288 0.185488 0.100135 -0.349387
H18   H     H_    0.557233 0.110768 0.120135 0.295173
H19   H     H_    0.639768 0.203521 0.014857 0.217100
C41   C     C_3   0.762137 0.164805 0.141040 -0.921268
H20   H     H_    0.839671 0.237700 0.118734 0.259079
H21   H     H_    0.786316 0.094280 0.108040 0.304493
H22   H     H_    0.756653 0.146094 0.226132 0.256754
C42   C     C_2   0.339765 0.880754 0.249104 1.015806
O10   O     O_2   0.278129 0.788912 0.241011 -0.601473
O11   O     O_R   0.372977 0.955221 0.160666 -0.824776
H23   H     H_    0.337469 0.924735 0.095518 0.351056
C43   C     C_2   0.222945 0.072627 0.259535 0.920432
O12   O     O_2   0.215755 0.138179 0.183511 -0.602109
O13   O     O_R   0.125389 0.979339 0.280256 -0.753853
H24   H     H_    0.056355 0.973534 0.225264 0.354294
O14   O     O_3   0.064363 0.390903 0.353055 -0.633516
C44   C     C_3   0.975173 0.293335 0.340605 0.080743
H25   H     H_    0.984904 0.276844 0.260040 0.184371
H26   H     H_    0.872460 0.300988 0.350181 0.126709
C45   C     C_3   0.007476 0.196374 0.412434 -0.346602
H27   H     H_    0.102112 0.181631 0.389603 0.224882
H28   H     H_    0.016478 0.213904 0.493413 0.220095
C46   C     C_3   0.905656 0.092404 0.407406 -0.909524
H29   H     H_    0.807746 0.105920 0.425005 0.252124
H30   H     H_    0.928172 0.026120 0.464558 0.291233
H31   H     H_    0.906565 0.066306 0.329606 0.274391
C47   C     C_2   0.122190 0.718602 0.483386 0.957760
O15   O     O_2   0.100759 0.779851 0.408261 -0.548184
O16   O     O_R   0.195563 0.759567 0.564883 -0.793941
H32   H     H_    0.224511 0.841912 0.553407 0.337542
C48   C     C_2   0.717156 0.768042 0.239160 0.934997
O17   O     O_2   0.775167 0.740925 0.316502 -0.599184
O18   O     O_R   0.706232 0.876692 0.213654 -0.801899
H33   H     H_    0.745515 0.924381 0.267552 0.337936
C49   C     C_2   0.830566 0.720548 0.860521 0.859404
O19   O     O_2   0.831142 0.815255 0.872423 -0.653518
O20   O     O_R   0.929779 0.696125 0.803502 -0.818780
H34   H     H_    0.996696 0.763416 0.777001 0.358233

loop_
_geom_bond_atom_site_label_1
_geom_bond_atom_site_label_2
_geom_bond_distance
_ccdc_geom_bond_type
C5    H2    1.110150 S    
C34   C35   1.419605 A    
C27   C38   1.392770 A    
C29   H14   1.080551 S    
C41   H20   1.110217 S    
C7    C8    1.527303 S    
C49   O20   1.397557 S    
C43   O12   1.223200 D    
C42   O10   1.223681 D    
Zn1   O7    1.999112 S    
C28   N2    1.355878 A    
C3    C14   1.460102 S    
C21   C22   1.415304 A    
C15   C16   1.388101 A    
O7    C4    1.299431 A    
C44   H26   1.115711 S    
O20   H34   1.013960 S    
C5    C6    1.548015 S    
C35   C36   1.392319 A    
C11   H4    1.107835 S    
O5    C3    1.312022 A    
C48   O17   1.222498 D    
C23   H9    1.082369 S    
C20   C21   1.421078 A    
C6    H1    1.110060 S    
C47   O16   1.397094 S    
C27   C34   1.427366 A    
C11   C12   1.525121 S    
C15   C26   1.402390 A    
C40   H18   1.106163 S    
C45   H28   1.107479 S    
C37   H11   1.075734 S    
O9    C39   1.418486 S    
C19   C23   1.409556 A    
C9    C10   1.539409 S    
C47   O15   1.219945 D    
C41   H21   1.110145 S    
C19   C26   1.410586 A    
O3    Zn1   1.995782 S    
C48   O18   1.396556 S    
C49   O19   1.222096 D    
C43   O13   1.396941 S    
C32   N2    1.367825 A    
C31   C33   1.422724 A    
C29   C30   1.389629 A    
C24   H6    1.081543 S    
C42   O11   1.396404 S    
C5    C8    1.540385 S    
C16   H8    1.082972 S    
C30   C31   1.414837 A    
C7    C10   1.530920 S    
C30   H13   1.077183 S    
O3    C2    1.288785 A    
C32   C36   1.392882 A    
C44   H25   1.109216 S    
O14   C44   1.413992 S    
O6    C3    1.302605 A    
C46   H31   1.108456 S    
C35   C42   1.490013 S    
C39   H16   1.110909 S    
O1    C1    1.304777 A    
C20   C24   1.389910 A    
C22   C23   1.399613 A    
C22   C49   1.484571 S    
C27   C43   1.484002 S    
O13   H24   1.013913 S    
C13   C25   1.397903 A    
Zn2   O8    1.995784 S    
C2    C12   1.416950 S    
C8    O14   1.416009 S    
C14   C24   1.385538 A    
C40   C41   1.521200 S    
C46   H30   1.110541 S    
C18   C19   1.400836 A    
C45   C46   1.523964 S    
C5    C12   1.535179 S    
O8    C4    1.292001 A    
C28   C29   1.387856 A    
C6    C11   1.548660 S    
C41   H22   1.108406 S    
C15   H7    1.083357 S    
C31   C32   1.410537 A    
N1    C38   1.348244 A    
C17   O9    1.386502 S    
C33   C37   1.404913 A    
Zn1   O5    1.929883 S    
C9    H3    1.110337 S    
C33   C34   1.436094 A    
C1    C26   1.460418 S    
C28   H12   1.078106 S    
O1    Zn1   1.957838 S    
C10   C47   1.492565 S    
C4    C7    1.432868 S    
C16   C17   1.395314 A    
O2    Zn2   1.929882 S    
C36   H15   1.062773 S    
C44   C45   1.538401 S    
C25   C48   1.476751 S    
O4    Zn2   1.999109 S    
N1    C37   1.344192 A    
C13   C21   1.411198 A    
C39   C40   1.535794 S    
C17   C18   1.427950 A    
O2    C1    1.310244 A    
Zn1   N1    2.054908 S    
O4    C2    1.296224 A    
C6    C7    1.538654 S    
C14   C25   1.413421 A    
C46   H29   1.110649 S    
C18   C20   1.410805 A    
O18   H33   1.012903 S    
H10   C38   1.083007 S    
O11   H23   1.013802 S    
C8    C9    1.537568 S    
Zn2   O6    1.957841 S    
O16   H32   1.013720 S    
C9    C12   1.531318 S    
C13   H5    1.079033 S    
C10   C11   1.536219 S    
C40   H19   1.110883 S    
C39   H17   1.112592 S    
C45   H27   1.102243 S    
Zn2   N2    2.042637 S    
