data_mof_unit_19963.cif
_audit_creation_date              2012-12-11T15:07:40-0500
_audit_creation_method            fapswitch 2.2
_symmetry_space_group_name_H-M    P1
_symmetry_Int_Tables_number       1
_space_group_crystal_system       triclinic
_cell_length_a                    21.366184
_cell_length_b                    7.262396
_cell_length_c                    18.935756
_cell_angle_alpha                 90.000306
_cell_angle_beta                  95.73729
_cell_angle_gamma                 90.000211
_cell_volume                      2923.53682561

loop_
_atom_site_label
_atom_site_type_symbol
_atom_type_description
_atom_site_fract_x
_atom_site_fract_y
_atom_site_fract_z
_atom_type_partial_charge
O1    O     O_R   0.449650 0.506500 0.414480 -0.523057
O2    O     O_R   0.550350 0.006500 0.585520 -0.523052
O3    O     O_R   0.432010 0.173150 0.560250 -0.522478
O4    O     O_R   0.567990 0.673150 0.439750 -0.522494
C1    C     C_R   0.416258 0.344958 0.580698 0.759134
C2    C     C_R   0.583740 0.844956 0.419299 0.759100
O5    O     O_R   0.442320 0.176650 0.413480 -0.522860
O6    O     O_R   0.557680 0.676650 0.586520 -0.522864
O7    O     O_R   0.560730 0.008380 0.437700 -0.520668
O8    O     O_R   0.439270 0.508380 0.562300 -0.520661
C3    C     C_R   0.425340 0.343784 0.390342 0.780086
C4    C     C_R   0.574657 0.843781 0.609662 0.780081
O9    O     O_3   0.538840 0.339860 0.508120 -0.361564
O10   O     O_3   0.461160 0.839860 0.491880 -0.361554
V1    V     V_3+5 0.492800 0.064220 0.498490 1.619187
V2    V     V_3+5 0.507200 0.564220 0.501510 1.619166
C5    C     C_R   0.883166 0.862725 0.694061 0.451485
C6    C     C_R   0.116816 0.362866 0.305959 0.451458
C7    C     C_R   0.889265 0.939861 0.819575 -0.270517
C8    C     C_R   0.110722 0.439864 0.180433 -0.270505
C9    C     C_R   0.585228 0.849217 0.740685 0.121899
C10   C     C_R   0.414749 0.349260 0.259320 0.121889
C11   C     C_R   0.619656 0.843692 0.807416 0.377704
C12   C     C_R   0.380315 0.343662 0.192593 0.377722
C13   C     C_R   0.685870 0.831926 0.812955 0.320698
C14   C     C_R   0.314103 0.331848 0.187066 0.320692
C15   C     C_R   0.718623 0.848854 0.751150 -0.028748
C16   C     C_R   0.281356 0.348840 0.248871 -0.028761
C17   C     C_R   0.683094 0.818010 0.684248 -0.083692
C18   C     C_R   0.316889 0.318053 0.315775 -0.083686
C19   C     C_R   0.785845 0.876220 0.754211 -0.072410
C20   C     C_R   0.214137 0.376236 0.245808 -0.072454
C21   C     C_R   0.817075 0.836515 0.692980 -0.106793
C22   C     C_R   0.182906 0.336632 0.307047 -0.106804
C23   C     C_R   0.782283 0.764925 0.631910 0.462223
C24   C     C_R   0.217699 0.265152 0.368137 0.462227
C25   C     C_R   0.716432 0.746630 0.629216 0.029894
C26   C     C_R   0.283548 0.246815 0.370831 0.029889
C27   C     C_R   0.822556 0.948253 0.815232 0.306996
C28   C     C_R   0.177431 0.448257 0.184782 0.306996
C29   C     C_R   0.919376 0.906318 0.758017 0.227834
C30   C     C_R   0.080605 0.406323 0.241989 0.227751
C31   C     C_R   0.615753 0.840868 0.678300 -0.175804
C32   C     C_R   0.384233 0.340884 0.321711 -0.175819
C33   C     C_R   0.617197 0.833304 0.296141 0.098510
C34   C     C_R   0.382773 0.333060 0.703836 0.098492
C35   C     C_R   0.633218 0.858403 0.369454 -0.158654
C36   C     C_R   0.366773 0.358407 0.630534 -0.158625
C37   C     C_R   0.694646 0.916517 0.394051 0.144013
C38   C     C_R   0.305366 0.416748 0.605949 0.144006
C39   C     C_R   0.743488 0.914249 0.347966 -0.008380
C40   C     C_R   0.256518 0.414550 0.652030 -0.008424
C41   C     C_R   0.727389 0.885105 0.274334 -0.033393
C42   C     C_R   0.272596 0.385081 0.725648 -0.033371
C43   C     C_R   0.664197 0.844705 0.248563 0.090218
C44   C     C_R   0.335766 0.344359 0.751404 0.090218
C45   C     C_R   0.807809 0.938515 0.373155 0.292438
C46   C     C_R   0.192211 0.439196 0.626853 0.292454
C47   C     C_R   0.854645 0.939314 0.325126 0.271622
C48   C     C_R   0.145375 0.440082 0.674881 0.271596
C49   C     C_R   0.837285 0.941821 0.251234 -0.065443
C50   C     C_R   0.162733 0.442218 0.748775 -0.065485
C51   C     C_R   0.773969 0.903764 0.225783 -0.066473
C52   C     C_R   0.226022 0.403732 0.774205 -0.066436
C53   C     C_R   0.757264 0.880995 0.151769 0.047241
C54   C     C_R   0.242702 0.380536 0.848205 0.047213
C55   C     C_R   0.695042 0.831632 0.128199 -0.147001
C56   C     C_R   0.304893 0.330789 0.871748 -0.147054
C57   C     C_R   0.649485 0.815523 0.175472 -0.097836
C58   C     C_R   0.350452 0.314759 0.824474 -0.097854
C59   C     C_R   0.882629 0.968536 0.201908 0.297746
C60   C     C_R   0.117403 0.468979 0.798113 0.297723
C61   C     C_R   0.866211 0.940063 0.129249 -0.154982
C62   C     C_R   0.133790 0.440055 0.870750 -0.155001
C63   C     C_R   0.803790 0.900554 0.103487 0.226334
C64   C     C_R   0.196179 0.400069 0.896492 0.226368
H1    H     H_    0.680591 0.801909 0.073033 0.150457
H2    H     H_    0.319319 0.300720 0.926890 0.150442
H3    H     H_    0.602682 0.777142 0.153619 0.176807
H4    H     H_    0.397232 0.276079 0.846303 0.176813
O11   O     O_R   0.060820 0.290050 0.937800 -0.536238
O12   O     O_R   0.939180 0.790050 0.062200 -0.536265
O13   O     O_R   0.057690 0.616620 0.086540 -0.549702
O14   O     O_R   0.942310 0.116620 0.913460 -0.549707
C65   C     C_R   0.072019 0.448880 0.111338 0.710502
C66   C     C_R   0.927980 0.948880 0.888663 0.710429
O15   O     O_R   0.068010 0.619890 0.939770 -0.540218
O16   O     O_R   0.931990 0.119890 0.060230 -0.540272
O17   O     O_R   0.949640 0.787940 0.914460 -0.520599
O18   O     O_R   0.050360 0.287940 0.085540 -0.520624
C67   C     C_R   0.084514 0.451224 0.920166 0.832885
C68   C     C_R   0.915485 0.951225 0.079833 0.832847
O19   O     O_3   0.961210 0.453080 0.991940 -0.383399
O20   O     O_3   0.038790 0.953080 0.008060 -0.383350
V3    V     V_3+5 0.007200 0.728820 0.001500 1.512946
V4    V     V_3+5 0.992800 0.228820 0.998500 1.512878
O21   O     O_3   0.984198 0.914036 0.758226 -0.640090
H5    H     H_    0.003222 0.980850 0.800564 0.303315
O22   O     O_3   0.015779 0.413875 0.241769 -0.640045
H6    H     H_    0.996732 0.480472 0.199390 0.303333
I1    I     I_    0.705576 0.055150 0.494290 -0.305006
I2    I     I_    0.294492 0.555460 0.505722 -0.304941
O23   O     O_3   0.825344 0.949174 0.445054 -0.611532
H7    H     H_    0.862784 0.029960 0.453163 0.334526
O24   O     O_3   0.174679 0.450162 0.554961 -0.611507
H8    H     H_    0.137306 0.531223 0.546896 0.334452
O25   O     O_3   0.917643 0.924248 0.349584 -0.614823
H9    H     H_    0.921809 0.854690 0.394817 0.330458
O26   O     O_3   0.082366 0.425452 0.650412 -0.614836
H10   H     H_    0.078151 0.356100 0.605133 0.330515
O27   O     O_3   0.943190 0.026280 0.222646 -0.604155
H11   H     H_    0.940440 0.125802 0.257998 0.359820
O28   O     O_3   0.056889 0.527180 0.777410 -0.604103
H12   H     H_    0.059720 0.626810 0.742120 0.359803
O29   O     O_3   0.790135 0.882980 0.030970 -0.632619
H13   H     H_    0.748916 0.941679 0.017282 0.323185
O30   O     O_3   0.209808 0.382044 0.968995 -0.632569
H14   H     H_    0.251065 0.440458 0.982744 0.323267
O31   O     O_3   0.814220 0.698345 0.577231 -0.565958
H15   H     H_    0.786911 0.707701 0.532050 0.354197
O32   O     O_3   0.185761 0.198731 0.422843 -0.565949
H16   H     H_    0.213069 0.208228 0.468021 0.354141
O33   O     O_3   0.911495 0.843756 0.631699 -0.573948
H17   H     H_    0.956375 0.879361 0.638688 0.350600
O34   O     O_3   0.088483 0.344015 0.368322 -0.573918
H18   H     H_    0.043641 0.380054 0.361354 0.350522
O35   O     O_3   0.792408 0.034320 0.867567 -0.605592
H19   H     H_    0.823328 0.095730 0.902133 0.307157
O36   O     O_3   0.207583 0.534289 0.132442 -0.605627
H20   H     H_    0.176672 0.596053 0.097967 0.307064
I3    I     I_    0.484975 0.826600 0.736407 -0.244033
I4    I     I_    0.515008 0.326885 0.263581 -0.244030
O37   O     O_3   0.715503 0.772683 0.877127 -0.615332
H21   H     H_    0.752493 0.697472 0.867717 0.321670
O38   O     O_3   0.284465 0.272537 0.122905 -0.615404
H22   H     H_    0.247472 0.197350 0.132330 0.321675
O39   O     O_3   0.586677 0.837776 0.866588 -0.595507
H23   H     H_    0.616039 0.853059 0.910080 0.338817
O40   O     O_3   0.413287 0.337736 0.133415 -0.595504
H24   H     H_    0.383918 0.352959 0.089926 0.338807
I5    I     I_    0.679669 0.530476 0.561110 -0.277605
I6    I     I_    0.320304 0.030832 0.439018 -0.277676
I7    I     I_    0.519262 0.818962 0.257862 -0.295154
I8    I     I_    0.480701 0.318643 0.742140 -0.295140

loop_
_geom_bond_atom_site_label_1
_geom_bond_atom_site_label_2
_ccdc_geom_bond_type
C54   C56   A    
C28   O36   S    
C51   C53   A    
O4    V2    S    
O15   C67   A    
C15   C17   A    
O30   H14   S    
C26   I6    S    
C23   O31   S    
O27   H11   S    
O1    C3    A    
C7    C66   S    
O2    C4    A    
C2    O7    A    
O16   V4    S    
O21   H5    S    
O38   H22   S    
C35   C37   A    
O5    C3    A    
C25   I5    S    
C23   C25   A    
C12   C14   A    
O36   H20   S    
C4    C31   S    
C6    C30   A    
C6    O34   S    
C37   I1    S    
C8    C28   A    
C45   C47   A    
C46   C48   A    
O29   H13   S    
O12   C68   A    
C18   C26   A    
C48   C50   A    
O14   V4    S    
C33   C35   A    
C49   C51   A    
C9    I3    S    
C29   O21   S    
C50   C52   A    
C48   O26   S    
C9    C31   A    
C5    O33   S    
C10   C32   A    
O16   C68   A    
C16   C18   A    
C53   C55   A    
O15   V3    S    
C38   C40   A    
O25   H9    S    
C19   C21   A    
C39   C45   A    
C13   O37   S    
O33   H17   S    
C49   C59   A    
C36   C38   A    
C54   C64   A    
O6    V2    S    
C17   C31   A    
C61   C63   A    
C18   C32   A    
C5    C21   A    
C40   C42   A    
C34   C36   A    
C41   C43   A    
C12   O40   S    
C56   H2    S    
C45   O23   S    
C1    C36   S    
C42   C44   A    
C47   C49   A    
C27   O35   S    
C2    C35   S    
C58   H4    S    
C16   C20   A    
C60   C62   A    
C59   C61   A    
O11   V4    S    
C34   I8    S    
C37   C39   A    
C15   C19   A    
C60   O28   S    
C47   O25   S    
C59   O27   S    
C39   C41   A    
C52   C54   A    
C62   C67   S    
O17   V3    S    
C55   H1    S    
O22   H6    S    
O6    C4    A    
O13   V3    S    
C8    C65   S    
C50   C60   A    
C3    C32   S    
O1    V2    S    
C40   C46   A    
O2    V1    S    
C6    C22   A    
O32   H16   S    
C43   C57   A    
C7    C27   A    
O4    C2    A    
O13   C65   A    
C38   I2    S    
O19   V4    S    
C44   C58   A    
C9    C11   A    
O37   H21   S    
C10   C12   A    
C57   H3    S    
C63   O29   S    
C62   C64   A    
C17   C25   A    
O35   H19   S    
O3    V1    S    
O40   H24   S    
O28   H12   S    
O39   H23   S    
O12   V3    S    
C10   I4    S    
C11   O39   S    
C61   C68   S    
O14   C66   A    
O3    C1    A    
C66   O17   A    
C8    C30   A    
O31   H15   S    
O18   V4    S    
C13   C15   A    
O24   H8    S    
C14   C16   A    
C64   O30   S    
C53   C63   A    
C46   O24   S    
C65   O18   A    
C24   C26   A    
C24   O32   S    
O7    V1    S    
C1    O8    A    
O8    V2    S    
O26   H10   S    
C41   C51   A    
O34   H18   S    
C42   C52   A    
O5    V1    S    
C21   C23   A    
C19   C27   A    
C22   C24   A    
C20   C28   A    
O20   V3    S    
C5    C29   A    
O11   C67   A    
C11   C13   A    
C33   C43   A    
C56   C58   A    
C14   O38   S    
O9    V2    S    
C34   C44   A    
O23   H7    S    
C33   I7    S    
O10   V1    S    
C55   C57   A    
C30   O22   S    
C7    C29   A    
C20   C22   A    
