data_mof_unit_22577.cif
_audit_creation_date              2012-12-10T17:23:45-0500
_audit_creation_method            fapswitch 2.2
_symmetry_space_group_name_H-M    P1
_symmetry_Int_Tables_number       1
_space_group_crystal_system       triclinic
_cell_length_a                    9.572286
_cell_length_b                    10.862879
_cell_length_c                    17.371758
_cell_angle_alpha                 92.583736
_cell_angle_beta                  86.002302
_cell_angle_gamma                 90.433543
_cell_volume                      1800.11554987

loop_
_atom_site_label
_atom_site_type_symbol
_atom_type_description
_atom_site_fract_x
_atom_site_fract_y
_atom_site_fract_z
_atom_type_partial_charge
C1    C     C_R   0.500571 0.736833 0.493590 0.807015
C2    C     C_R   0.527227 0.499958 0.265949 -0.025229
C3    C     C_R   0.253045 0.876462 0.447283 -0.159232
C4    C     C_R   0.481762 0.497872 0.649705 0.798687
C5    C     C_R   0.122926 0.933829 0.455513 -0.153842
C6    C     C_R   0.109739 0.048563 0.493672 -0.141589
C7    C     C_R   0.228816 0.111272 0.516262 -0.170908
C8    C     C_R   0.364335 0.059900 0.500317 0.087038
C9    C     C_R   0.372499 0.934075 0.477183 0.094830
C10   C     C_R   0.499030 0.870518 0.486132 -0.119486
C11   C     C_R   0.621712 0.937040 0.498606 -0.213381
C12   C     C_R   0.342632 0.493414 0.776162 -0.196099
C13   C     C_R   0.619127 0.064227 0.505143 -0.214095
C14   C     C_R   0.491924 0.127490 0.506362 -0.113498
C15   C     C_R   0.867665 0.335521 0.397750 -0.228213
C16   C     C_R   0.497854 0.262292 0.503930 0.781837
C17   C     C_R   0.945125 0.253800 0.348392 -0.221618
C18   C     C_R   0.090496 0.252586 0.347887 0.167133
C19   C     C_R   0.155758 0.335650 0.397651 -0.231970
C20   C     C_R   0.080421 0.419095 0.449660 0.173667
C21   C     C_R   0.930952 0.419064 0.449726 0.213871
C22   C     C_R   0.920664 0.577310 0.547649 -0.075801
C23   C     C_R   0.411303 0.509719 0.147152 -0.148558
C24   C     C_R   0.068765 0.577262 0.547636 -0.068683
C25   C     C_R   0.518196 0.499705 0.350219 0.765679
C26   C     C_R   0.472594 0.487380 0.733493 -0.031149
C27   C     C_R   0.594616 0.466353 0.771112 -0.205355
C28   C     C_R   0.587378 0.453569 0.850312 -0.150126
C29   C     C_R   0.458090 0.463530 0.893364 0.194054
C30   C     C_R   0.335553 0.481088 0.855767 -0.170033
C31   C     C_3   0.182221 0.165469 0.295826 -0.385081
C32   C     C_3   0.104193 0.068188 0.248793 -0.841447
C33   C     C_R   0.404375 0.509027 0.227084 -0.220459
C34   C     C_R   0.657462 0.492111 0.223685 -0.199926
C35   C     C_R   0.664278 0.492446 0.143413 -0.173097
C36   C     C_R   0.541266 0.499503 0.104709 0.194255
C37   C     C_2   0.448547 0.457444 0.977641 -0.231486
C38   C     C_2   0.551935 0.499572 0.020148 -0.229932
Cu1   Cu    Cu3+1 0.359340 0.500010 0.500010 0.919855
Cu2   Cu    Cu3+1 0.640660 0.499990 0.499990 0.930379
H1    H     H_    0.695875 0.458545 0.739365 0.154090
H2    H     H_    0.758234 0.328801 0.392314 0.213114
H3    H     H_    0.889271 0.192232 0.310554 0.163109
H4    H     H_    0.302628 0.516662 0.258340 0.157493
H5    H     H_    0.266350 0.329682 0.393749 0.206614
H6    H     H_    0.119883 0.640569 0.586623 0.142408
H7    H     H_    0.753741 0.485377 0.252471 0.156353
H8    H     H_    0.648202 0.535182 0.992528 0.144095
H9    H     H_    0.234861 0.487696 0.888246 0.120632
H10   H     H_    0.314944 0.520575 0.119190 0.122913
H11   H     H_    0.246858 0.508216 0.748228 0.148941
H12   H     H_    0.765444 0.485885 0.111423 0.121617
H13   H     H_    0.351953 0.422099 0.004978 0.143381
H14   H     H_    0.682946 0.434840 0.877389 0.122397
H15   H     H_    0.036750 0.010682 0.287673 0.251678
H16   H     H_    0.039860 0.112644 0.207166 0.245723
H17   H     H_    0.181228 0.007004 0.215512 0.243519
H18   H     H_    0.249068 0.220875 0.255343 0.197534
H19   H     H_    0.252845 0.116306 0.332180 0.213207
H20   H     H_    0.720398 0.890837 0.503547 0.161404
H21   H     H_    0.258956 0.788063 0.416135 0.162055
H22   H     H_    0.031694 0.887657 0.434263 0.134536
H23   H     H_    0.007525 0.090482 0.504225 0.137695
H24   H     H_    0.210949 0.197379 0.548613 0.172439
H25   H     H_    0.717334 0.112950 0.510757 0.164642
H26   H     H_    0.860832 0.640624 0.586660 0.136742
N1    N     N_R   0.852190 0.498790 0.499250 -0.193332
N2    N     N_R   0.148060 0.498710 0.499220 -0.196914
O1    O     O_R   0.381190 0.680360 0.500010 -0.586749
O2    O     O_R   0.618760 0.680340 0.500000 -0.580230
O3    O     O_R   0.367440 0.500030 0.613600 -0.585310
O4    O     O_R   0.605010 0.500010 0.613590 -0.583968
O5    O     O_R   0.381240 0.319660 0.500000 -0.612843
O6    O     O_R   0.618810 0.319640 0.499990 -0.597599
O7    O     O_R   0.394990 0.499990 0.386410 -0.608896
O8    O     O_R   0.632560 0.499970 0.386400 -0.600496

loop_
_geom_bond_atom_site_label_1
_geom_bond_atom_site_label_2
_ccdc_geom_bond_type
Cu1   N2    S    
C35   C36   A    
C4    O4    A    
C7    C8    A    
C13   H25   S    
C26   C27   A    
C37   C38   D    
Cu2   O2    S    
C16   O6    A    
C31   H18   S    
C28   C29   A    
C34   C35   A    
C5    C6    A    
C18   C19   A    
C31   H19   S    
C22   H26   S    
C19   C20   A    
C8    C9    A    
C23   C33   A    
Cu2   N1    S    
Cu1   O7    S    
C9    C10   A    
C32   H15   S    
C38   H8    S    
C37   H13   S    
C2    C34   A    
C13   C14   A    
C21   N1    A    
C32   H17   S    
C3    H21   S    
C7    H24   S    
C16   O5    A    
Cu1   Cu2   S    
C28   H14   S    
C23   H10   S    
C1    O1    A    
Cu2   O8    S    
C12   C26   A    
C25   O7    A    
C6    H23   S    
C17   H3    S    
C29   C30   A    
C3    C9    A    
C27   H1    S    
C31   C32   S    
C17   C18   A    
Cu1   O1    S    
C2    C33   A    
C30   H9    S    
C14   C16   S    
C11   H20   S    
C35   H12   S    
C12   H11   S    
C15   C17   A    
C8    C14   A    
Cu2   O4    S    
C12   C30   A    
C33   H4    S    
C20   N2    A    
C1    C10   S    
C15   H2    S    
C3    C5    A    
C4    C26   S    
C19   H5    S    
C6    C7    A    
C18   C31   S    
C1    O2    A    
C25   O8    A    
C24   H6    S    
C36   C38   S    
C11   C13   A    
Cu2   O6    S    
C5    H22   S    
C2    C25   S    
C22   C24   A    
Cu1   O5    S    
C22   N1    A    
C10   C11   A    
C24   N2    A    
C15   C21   A    
C20   C21   A    
C23   C36   A    
C29   C37   S    
C27   C28   A    
Cu1   O3    S    
C34   H7    S    
C32   H16   S    
C4    O3    A    
