data_mof_unit_5955.cif
_audit_creation_date              2012-12-10T18:00:17-0500
_audit_creation_method            fapswitch 2.2
_symmetry_space_group_name_H-M    P1
_symmetry_Int_Tables_number       1
_space_group_crystal_system       triclinic
_cell_length_a                    10.881076
_cell_length_b                    9.519363
_cell_length_c                    10.727108
_cell_angle_alpha                 90.798857
_cell_angle_beta                  92.395012
_cell_angle_gamma                 90.807202
_cell_volume                      1109.92543817

loop_
_atom_site_label
_atom_site_type_symbol
_atom_type_description
_atom_site_fract_x
_atom_site_fract_y
_atom_site_fract_z
_atom_type_partial_charge
C1    C     C_R   0.872308 0.501021 0.502027 -0.197791
C2    C     C_R   0.128897 0.496993 0.505583 -0.186472
C3    C     C_R   0.262708 0.499172 0.503439 0.729695
C4    C     C_R   0.737809 0.500785 0.500774 0.747784
C5    C     C_R   0.491010 0.499053 0.259262 0.867386
C6    C     C_R   0.509410 0.500945 0.740569 0.862000
C7    C     C_3   0.461836 0.624670 0.038795 0.337017
C8    C     C_3   0.538989 0.375433 0.960612 0.327758
C9    C     C_3   0.581411 0.600087 0.971972 0.397044
C10   C     C_3   0.419227 0.399829 0.027280 0.326376
C11   C     C_3   0.391267 0.527084 0.943246 -0.438476
C12   C     C_3   0.609510 0.473148 0.056130 -0.384968
C13   C     C_3   0.512385 0.501949 0.877101 -0.296818
C14   C     C_3   0.488290 0.498040 0.122457 -0.278233
C15   C     C_R   0.405505 0.071944 0.443140 0.057977
C16   C     C_R   0.594366 0.928199 0.556881 0.079432
C17   C     C_R   0.594569 0.076790 0.556733 0.117388
C18   C     C_R   0.405443 0.923258 0.443134 0.073268
C19   C     C_R   0.060571 0.401870 0.426177 -0.068476
C20   C     C_R   0.941167 0.597559 0.579399 -0.037501
C21   C     C_R   0.931587 0.400624 0.428038 -0.011074
C22   C     C_R   0.069864 0.587287 0.589108 0.009619
Cu1   Cu    Cu3+1 0.500000 0.640660 0.500000 1.018738
Cu2   Cu    Cu3+1 0.500000 0.359340 0.500000 1.023455
H1    H     H_    0.329798 0.125741 0.397649 0.171222
H2    H     H_    0.669826 0.874735 0.602643 0.156594
H3    H     H_    0.670233 0.134386 0.602858 0.182329
H4    H     H_    0.329816 0.865654 0.396973 0.178105
H5    H     H_    0.300889 0.549205 0.896666 0.216366
H6    H     H_    0.700646 0.451787 0.101238 0.192638
N1    N     N_R   0.500000 0.852070 0.500000 -0.203691
N2    N     N_R   0.500000 0.147930 0.500000 -0.205765
O1    O     O_R   0.319640 0.618740 0.499990 -0.601994
O2    O     O_R   0.680360 0.381260 0.500010 -0.576912
O3    O     O_R   0.680360 0.618740 0.500010 -0.602858
O4    O     O_R   0.319640 0.381260 0.499990 -0.601814
O5    O     O_R   0.499970 0.618770 0.316850 -0.524396
O6    O     O_R   0.500030 0.381230 0.683150 -0.542108
O7    O     O_R   0.500030 0.618770 0.683150 -0.578644
O8    O     O_R   0.499970 0.381230 0.316850 -0.572234
S1    S     S_3+6 0.401026 0.791146 0.080908 0.143948
O9    O     O_2   0.279643 0.770123 0.140372 -0.264271
O10   O     O_2   0.488566 0.867194 0.171197 -0.171707
O11   O     O_3   0.381046 0.888102 0.952162 -0.357632
H7    H     H_    0.323125 0.832587 0.896745 0.350887
S2    S     S_3+6 0.601690 0.209625 0.919143 0.113357
O12   O     O_2   0.516489 0.132803 0.827151 -0.196717
O13   O     O_2   0.724042 0.232122 0.861985 -0.273772
O14   O     O_3   0.620234 0.112471 0.047964 -0.383395
H8    H     H_    0.678773 0.167092 0.103453 0.342301
S3    S     S_3+6 0.698460 0.728773 0.950363 0.081118
O15   O     O_2   0.814036 0.655596 0.916412 -0.281083
O16   O     O_2   0.658181 0.827600 0.849214 -0.245791
O17   O     O_3   0.726247 0.819200 0.084455 -0.436655
H9    H     H_    0.795029 0.884388 0.067202 0.410167
S4    S     S_3+6 0.301541 0.270636 0.045225 0.106733
O18   O     O_2   0.336145 0.176537 0.151812 -0.205521
O19   O     O_2   0.182611 0.342461 0.068993 -0.284299
O20   O     O_3   0.282168 0.173492 0.913754 -0.388528
H10   H     H_    0.266103 0.242342 0.846813 0.343514
C23   C     C_2   0.125650 0.311687 0.336147 0.487249
H11   H     H_    0.209810 0.350346 0.297764 0.108681
O21   O     O_2   0.090032 0.193000 0.307643 -0.442800
C24   C     C_2   0.878693 0.709518 0.649749 0.554758
H12   H     H_    0.790760 0.688212 0.689104 0.106707
O22   O     O_2   0.923337 0.827706 0.660937 -0.474986
C25   C     C_2   0.857298 0.304781 0.343311 0.534346
H13   H     H_    0.799073 0.347972 0.269581 0.008723
O23   O     O_2   0.854601 0.178422 0.361201 -0.469445
C26   C     C_2   0.141205 0.659677 0.694434 0.406146
H14   H     H_    0.234025 0.698522 0.684558 0.083273
O24   O     O_2   0.097433 0.672235 0.796944 -0.467272

loop_
_geom_bond_atom_site_label_1
_geom_bond_atom_site_label_2
_ccdc_geom_bond_type
C2    C22   A    
C15   C18   A    
Cu2   O6    S    
Cu1   Cu2   S    
C6    O6    A    
O20   H10   S    
C1    C21   A    
C8    C13   S    
C5    O5    A    
S4    O19   D    
C10   S4    S    
S1    O9    D    
C9    S3    S    
S4    O20   S    
C8    C12   S    
C1    C4    S    
C6    O7    A    
C24   H12   S    
S3    O17   S    
Cu2   N2    S    
C2    C3    S    
C4    O3    A    
C15   N2    A    
Cu1   O5    S    
C21   C25   S    
C6    C13   S    
C7    C11   S    
C20   C24   S    
S1    O10   D    
S2    O14   S    
C5    C14   S    
Cu2   O4    S    
C3    O4    A    
C19   C23   S    
Cu1   O7    S    
C19   C21   A    
C12   C14   S    
Cu1   O1    S    
Cu1   O3    S    
C7    C14   S    
C4    O2    A    
C16   H2    S    
C23   H11   S    
S1    O11   S    
C8    S2    S    
C15   H1    S    
C9    C12   S    
C3    O1    A    
C25   H13   S    
C17   H3    S    
S2    O13   D    
C11   C13   S    
C26   H14   S    
C18   H4    S    
S4    O18   D    
C11   H5    S    
C8    C10   S    
O14   H8    S    
C10   C11   S    
C5    O8    A    
C25   O23   D    
C10   C14   S    
C7    C9    S    
C17   N2    A    
C9    C13   S    
O17   H9    S    
Cu2   O8    S    
C1    C20   A    
C26   O24   D    
C18   N1    A    
C12   H6    S    
C2    C19   A    
S2    O12   D    
C16   N1    A    
C22   C26   S    
C23   O21   D    
Cu2   O2    S    
O11   H7    S    
S3    O15   D    
C7    S1    S    
C20   C22   A    
C16   C17   A    
S3    O16   D    
Cu1   N1    S    
C24   O22   D    
