data_mof_unit_35981.cif
_audit_creation_date              2012-10-26T18:33:34-0400
_audit_creation_method            fapswitch 2.2
_symmetry_space_group_name_H-M    P1
_symmetry_Int_Tables_number       1
_space_group_crystal_system       triclinic
_cell_length_a                    15.10869
_cell_length_b                    13.844681
_cell_length_c                    10.811231
_cell_angle_alpha                 89.624043
_cell_angle_beta                  89.071509
_cell_angle_gamma                 90.534098
_cell_volume                      2260.99304116

loop_
_atom_site_label
_atom_site_type_symbol
_atom_type_description
_atom_site_fract_x
_atom_site_fract_y
_atom_site_fract_z
_atom_type_partial_charge
C1    C     C_R   0.329359 0.499787 0.496315 0.548192
C2    C     C_R   0.045743 0.388963 0.664030 0.109730
C3    C     C_R   0.093257 0.444998 0.576763 0.064636
C4    C     C_R   0.495697 0.500310 0.260656 0.538146
C5    C     C_R   0.048349 0.493996 0.481572 -0.000228
C6    C     C_R   0.097170 0.543510 0.388122 0.048219
C7    C     C_R   0.052304 0.590974 0.293949 -0.080461
C8    C     C_R   0.959969 0.593301 0.292475 0.085916
C9    C     C_R   0.185136 0.452000 0.581916 -0.079016
C10   C     C_R   0.233427 0.499397 0.489138 0.019433
C11   C     C_R   0.190205 0.543173 0.389332 0.097651
C12   C     C_3   0.588062 0.480411 0.930030 0.151472
C13   C     C_R   0.437643 0.796775 0.566337 0.272735
C14   C     C_R   0.439084 0.201218 0.569147 0.236528
C15   C     C_R   0.566257 0.796389 0.438561 0.257762
C16   C     C_R   0.569932 0.207103 0.443619 0.256437
C17   C     C_R   0.580768 0.897372 0.460939 0.027444
C18   C     C_R   0.582581 0.104683 0.462334 0.022444
C19   C     C_R   0.671386 0.499879 0.496630 0.636110
C20   C     C_R   0.518797 0.948211 0.531561 -0.058758
C21   C     C_R   0.519161 0.051739 0.531475 -0.053114
C22   C     C_R   0.452320 0.896173 0.595165 0.024276
C23   C     C_R   0.815169 0.548991 0.395792 0.071121
C24   C     C_R   0.453450 0.101595 0.596603 0.035469
C25   C     C_R   0.656240 0.949534 0.416872 0.120685
C26   C     C_R   0.657858 0.052542 0.419175 0.116825
C27   C     C_R   0.402492 0.048894 0.686058 0.121575
C28   C     C_R   0.400591 0.946400 0.683607 0.115559
C29   C     C_R   0.493446 0.499243 0.740379 0.612488
C30   C     C_3   0.442149 0.589839 0.073529 -0.230031
C31   C     C_3   0.443211 0.408284 0.079290 -0.195167
C32   C     C_3   0.456370 0.600056 0.931727 0.162095
C33   C     C_3   0.426712 0.411994 0.937424 0.133133
C34   C     C_R   0.769006 0.497298 0.489207 0.087977
C35   C     C_3   0.588145 0.499803 0.070988 -0.213234
C36   C     C_3   0.492334 0.500336 0.123533 -0.056716
C37   C     C_3   0.489863 0.497592 0.879763 0.117496
C38   C     C_R   0.814646 0.435930 0.569234 0.070196
C39   C     C_R   0.907580 0.436883 0.569087 0.000848
C40   C     C_R   0.954901 0.492635 0.479537 -0.009493
C41   C     C_R   0.909275 0.545656 0.387586 0.064083
C42   C     C_R   0.954024 0.383517 0.657880 -0.109096
Cu1   Cu    Cu3+1 0.499990 0.597420 0.500010 1.073864
Cu2   Cu    Cu3+1 0.499990 0.402580 0.500010 1.056992
H1    H     H_    0.462126 0.657539 0.120139 0.171565
H2    H     H_    0.074512 0.262437 0.747992 0.249161
H3    H     H_    0.066145 0.357875 0.844190 0.258547
H4    H     H_    0.279296 0.526159 0.250653 0.227980
H5    H     H_    0.280876 0.637549 0.315162 0.270558
H6    H     H_    0.941987 0.715059 0.191857 0.245408
H7    H     H_    0.940938 0.611660 0.109042 0.255549
H8    H     H_    0.753890 0.918635 0.292069 0.251170
H9    H     H_    0.785247 0.915015 0.442437 0.236830
H10   H     H_    0.787096 0.081416 0.454453 0.233570
H11   H     H_    0.760682 0.084816 0.302027 0.253890
H12   H     H_    0.483628 0.344131 0.103067 0.189824
H13   H     H_    0.386702 0.078402 0.868651 0.235514
H14   H     H_    0.291712 0.080110 0.786964 0.256947
H15   H     H_    0.374939 0.909664 0.862790 0.236309
H16   H     H_    0.284358 0.913570 0.771825 0.259939
H17   H     H_    0.568871 0.683332 0.972949 0.247352
H18   H     H_    0.490489 0.745360 0.907361 0.262066
H19   H     H_    0.420435 0.262273 0.941891 0.254432
H20   H     H_    0.414561 0.308354 0.801086 0.297017
H21   H     H_    0.771776 0.571931 0.221226 0.274599
H22   H     H_    0.784786 0.674167 0.310333 0.300195
H23   H     H_    0.220189 0.419313 0.657398 0.208227
H24   H     H_    0.784262 0.389863 0.741811 0.267907
H25   H     H_    0.781643 0.302204 0.632525 0.251322
H26   H     H_    0.088731 0.628249 0.220523 0.172833
H27   H     H_    0.370654 0.580721 0.095207 0.160158
H28   H     H_    0.380091 0.398984 0.132540 0.143543
H29   H     H_    0.621364 0.569323 0.091837 0.157846
H30   H     H_    0.627858 0.444978 0.119880 0.177471
H31   H     H_    0.920248 0.338065 0.725609 0.118783
I1    I     I_    0.298826 0.770107 0.542408 -0.278095
I2    I     I_    0.301249 0.235096 0.575815 -0.326419
I3    I     I_    0.609863 0.751597 0.260188 -0.371221
I4    I     I_    0.643528 0.274407 0.294441 -0.292549
I5    I     I_    0.334186 0.654556 0.853176 -0.282177
I6    I     I_    0.283435 0.419531 0.918021 -0.388751
I7    I     I_    0.692657 0.566331 0.841041 -0.327937
I8    I     I_    0.641988 0.336314 0.905030 -0.318751
N1    N     N_R   0.499930 0.743810 0.499950 -0.247308
N2    N     N_3   0.521316 0.678134 0.904521 -0.553722
N3    N     N_3   0.447069 0.316889 0.884733 -0.551940
N4    N     N_3   0.764083 0.601988 0.309119 -0.588098
N5    N     N_3   0.765342 0.373827 0.651924 -0.564366
N6    N     N_R   0.499930 0.256190 0.499950 -0.244356
N7    N     N_3   0.090465 0.335594 0.757990 -0.592207
N8    N     N_3   0.239828 0.581549 0.285582 -0.626805
N9    N     N_3   0.919737 0.643300 0.191817 -0.645053
N10   N     N_3   0.734522 0.897767 0.381634 -0.606742
N11   N     N_3   0.739298 0.102740 0.391319 -0.599417
N12   N     N_3   0.358775 0.099323 0.784950 -0.613752
N13   N     N_3   0.350648 0.893007 0.775457 -0.581433
O1    O     O_R   0.370250 0.582280 0.500040 -0.482376
O2    O     O_R   0.370250 0.417720 0.500040 -0.490476
O3    O     O_R   0.499970 0.582270 0.317700 -0.490388
O4    O     O_R   0.499970 0.417730 0.317700 -0.496771
O5    O     O_R   0.629730 0.582260 0.499980 -0.459611
O6    O     O_R   0.629730 0.417740 0.499980 -0.455963
O7    O     O_R   0.500000 0.582270 0.682320 -0.443963
O8    O     O_R   0.500000 0.417730 0.682320 -0.478083

loop_
_geom_bond_atom_site_label_1
_geom_bond_atom_site_label_2
_ccdc_geom_bond_type
C26   N11   S    
C4    C36   S    
C35   H30   S    
C25   N10   S    
C18   C21   A    
C19   O5    A    
C30   H1    S    
C27   N12   S    
C35   C36   S    
C18   C26   A    
C24   C27   A    
H14   N12   S    
C7    H26   S    
C9    H23   S    
C30   H27   S    
Cu2   O8    S    
C7    C8    A    
C13   N1    A    
C42   H31   S    
Cu1   O3    S    
C38   C39   A    
C19   O6    A    
C15   I3    S    
C17   C20   A    
C29   O7    A    
C14   I2    S    
C14   C24   A    
C12   C37   S    
C2    N7    S    
Cu2   O2    S    
C35   H29   S    
H4    N8    S    
C31   C33   S    
C8    N9    S    
C31   H12   S    
C9    C10   A    
C16   N6    A    
C22   C28   A    
Cu1   N1    S    
H5    N8    S    
H11   N11   S    
H20   N3    S    
H21   N4    S    
C39   C42   A    
H18   N2    S    
H9    N10   S    
C8    C41   A    
C1    O1    A    
C6    C11   A    
Cu2   O6    S    
C25   C26   A    
C33   C37   S    
C12   I8    S    
C38   N5    S    
Cu1   Cu2   S    
Cu1   O5    S    
C14   N6    A    
C3    C9    A    
H7    N9    S    
C32   I5    S    
C13   I1    S    
C23   C34   A    
C12   I7    S    
H8    N10   S    
C32   C37   S    
C12   C35   S    
C15   N1    A    
H25   N5    S    
H17   N2    S    
H16   N13   S    
H6    N9    S    
C40   C41   A    
C20   C22   A    
C4    O4    A    
H19   N3    S    
H24   N5    S    
H3    N7    S    
C5    C40   A    
H15   N13   S    
C21   C24   A    
H22   N4    S    
C15   C17   A    
C31   H28   S    
C34   C38   A    
C1    C10   S    
Cu1   O1    S    
C3    C5    A    
C19   C34   S    
C1    O2    A    
C6    C7    A    
H2    N7    S    
C23   C41   A    
C30   C36   S    
C28   N13   S    
C16   I4    S    
C17   C25   A    
C2    C3    A    
C30   C32   S    
Cu2   O4    S    
C5    C6    A    
C2    C42   A    
C32   N2    S    
C13   C22   A    
Cu1   O7    S    
H10   N11   S    
C10   C11   A    
C39   C40   A    
C11   N8    S    
C20   C21   A    
C29   O8    A    
C16   C18   A    
H13   N12   S    
C4    O3    A    
C29   C37   S    
C27   C28   A    
C31   C36   S    
C23   N4    S    
C33   I6    S    
C33   N3    S    
Cu2   N6    S    
