data_mof_unit_61426.cif
_audit_creation_date              2012-12-10T19:09:03-0500
_audit_creation_method            fapswitch 2.2
_symmetry_space_group_name_H-M    P1
_symmetry_Int_Tables_number       1
_space_group_crystal_system       triclinic
_cell_length_a                    30.250354
_cell_length_b                    30.250699
_cell_length_c                    18.247292
_cell_angle_alpha                 90.003907
_cell_angle_beta                  89.998892
_cell_angle_gamma                 89.967244
_cell_volume                      16697.9911051

loop_
_atom_site_label
_atom_site_type_symbol
_atom_type_description
_atom_site_fract_x
_atom_site_fract_y
_atom_site_fract_z
_atom_type_partial_charge
Br1   Br    Br    0.267578 0.084490 0.578061 -0.430499
Br2   Br    Br    0.415835 0.767572 0.078392 -0.437433
Br3   Br    Br    0.232570 0.416255 0.079593 -0.435294
Br4   Br    Br    0.583882 0.232525 0.078892 -0.435577
Br5   Br    Br    0.232356 0.584103 0.921101 -0.430445
Br6   Br    Br    0.584287 0.767505 0.921692 -0.437339
Br7   Br    Br    0.767499 0.416266 0.920547 -0.435571
Br8   Br    Br    0.415542 0.232412 0.921828 -0.430476
Br9   Br    Br    0.126635 0.077204 0.403713 -0.375337
Br10  Br    Br    0.922412 0.126871 0.404879 -0.376109
Br11  Br    Br    0.873168 0.923020 0.403352 -0.376605
Br12  Br    Br    0.916202 0.267571 0.579524 -0.428707
Br13  Br    Br    0.077205 0.872886 0.404187 -0.376151
Br14  Br    Br    0.873016 0.076917 0.596704 -0.375852
Br15  Br    Br    0.077605 0.126738 0.595181 -0.376213
Br16  Br    Br    0.127109 0.922990 0.596294 -0.375899
Br17  Br    Br    0.922536 0.873422 0.595727 -0.376321
Br18  Br    Br    0.626582 0.577451 0.904251 -0.376313
Br19  Br    Br    0.423047 0.626976 0.903393 -0.376431
Br20  Br    Br    0.373053 0.422678 0.904363 -0.376757
Br21  Br    Br    0.577052 0.372888 0.903786 -0.375951
Br22  Br    Br    0.373268 0.577497 0.095564 -0.376173
Br23  Br    Br    0.732487 0.915693 0.578256 -0.437333
Br24  Br    Br    0.576997 0.626835 0.096601 -0.376600
Br25  Br    Br    0.627112 0.422804 0.095818 -0.376112
Br26  Br    Br    0.422726 0.373379 0.096134 -0.375327
Br27  Br    Br    0.083727 0.732508 0.579444 -0.435585
Br28  Br    Br    0.732438 0.084178 0.421687 -0.437491
Br29  Br    Br    0.083912 0.267500 0.420549 -0.428429
Br30  Br    Br    0.267483 0.916073 0.421208 -0.435564
Br31  Br    Br    0.915677 0.732425 0.421524 -0.430311
Br32  Br    Br    0.767567 0.584327 0.078450 -0.430313
C1    C     C_R   0.225953 0.000257 0.499792 -0.175127
C2    C     C_R   0.969969 0.203140 0.455195 0.445129
C3    C     C_R   0.035353 0.657067 0.531313 -0.255216
C4    C     C_R   0.657040 0.035499 0.469087 -0.265443
C5    C     C_R   0.035546 0.342929 0.469010 -0.241864
C6    C     C_R   0.342929 0.964569 0.468973 -0.254996
C7    C     C_R   0.964326 0.657044 0.469341 -0.251433
C8    C     C_R   0.842953 0.535676 0.030646 -0.251463
C9    C     C_R   0.464506 0.842963 0.030945 -0.265448
C10   C     C_R   0.157089 0.464600 0.031324 -0.255426
C11   C     C_R   0.535414 0.157074 0.031066 -0.255004
C12   C     C_R   0.157015 0.535551 0.969122 -0.251505
C13   C     C_R   0.796865 0.970284 0.454460 0.444886
C14   C     C_R   0.535580 0.842938 0.969129 -0.265471
C15   C     C_R   0.842937 0.464644 0.968680 -0.255156
C16   C     C_R   0.464278 0.157038 0.969436 -0.251493
C17   C     C_R   0.365863 0.000088 0.499865 -0.140639
C18   C     C_R   0.000034 0.365862 0.500025 -0.141377
C19   C     C_R   0.634132 0.999965 0.499976 -0.139795
C20   C     C_R   0.999908 0.634136 0.500184 -0.140355
C21   C     C_R   0.865864 0.500091 0.999809 -0.140444
C22   C     C_R   0.500035 0.865868 0.000029 -0.139787
C23   C     C_R   0.134134 0.500024 0.000107 -0.140499
C24   C     C_R   0.029637 0.796753 0.455044 0.446401
C25   C     C_R   0.499911 0.134137 0.000133 -0.140627
C26   C     C_R   0.274051 0.000271 0.499635 0.043966
C27   C     C_R   0.000054 0.274043 0.500028 0.028722
C28   C     C_R   0.725939 0.999938 0.499977 0.058672
C29   C     C_R   0.999713 0.725951 0.500482 0.043805
C30   C     C_R   0.774049 0.500285 0.999500 0.043808
C31   C     C_R   0.500058 0.774061 0.000036 0.058651
C32   C     C_R   0.225949 0.500176 0.000365 0.043621
C33   C     C_R   0.499723 0.225949 0.000359 0.043938
C34   C     C_3   0.234149 0.041658 0.342854 0.106682
C35   C     C_R   0.796807 0.029604 0.545565 0.444741
C36   C     C_3   0.263284 0.073224 0.298933 -0.296923
C37   C     C_3   0.273916 0.054532 0.223281 -0.917519
C38   C     C_3   0.957651 0.234536 0.343918 0.107179
C39   C     C_3   0.925937 0.264043 0.300910 -0.297557
C40   C     C_3   0.944183 0.274912 0.225064 -0.920691
C41   C     C_3   0.765787 0.959237 0.342515 0.125713
C42   C     C_3   0.733258 0.930377 0.299876 -0.329637
C43   C     C_3   0.687899 0.928942 0.336632 -0.749836
C44   C     C_3   0.041067 0.765472 0.343353 0.124953
C45   C     C_3   0.070124 0.732920 0.301065 -0.328323
C46   C     C_R   0.030120 0.203090 0.544818 0.445161
C47   C     C_3   0.071563 0.687618 0.338008 -0.750059
C48   C     C_3   0.765684 0.040623 0.657495 0.125789
C49   C     C_3   0.733108 0.069468 0.700133 -0.329730
C50   C     C_3   0.687753 0.070896 0.663361 -0.749798
C51   C     C_3   0.042458 0.234465 0.656102 0.107100
C52   C     C_3   0.074197 0.263906 0.699124 -0.297440
C53   C     C_3   0.055957 0.274808 0.774972 -0.920747
C54   C     C_3   0.234457 0.959344 0.657057 0.125494
C55   C     C_3   0.266977 0.930401 0.699622 -0.328634
C56   C     C_3   0.312326 0.928905 0.662833 -0.751406
C57   C     C_R   0.203240 0.970473 0.545239 0.446246
C58   C     C_3   0.957932 0.765914 0.656953 0.106759
C59   C     C_3   0.926243 0.736817 0.700699 -0.297118
C60   C     C_3   0.944744 0.726210 0.776485 -0.917341
C61   C     C_3   0.734092 0.542047 0.843023 0.106754
C62   C     C_3   0.763189 0.573732 0.799269 -0.297099
C63   C     C_3   0.773799 0.555223 0.723486 -0.917366
C64   C     C_3   0.459327 0.734304 0.842557 0.125773
C65   C     C_3   0.430470 0.766876 0.799943 -0.329769
C66   C     C_3   0.429053 0.812234 0.836713 -0.749746
C67   C     C_3   0.265584 0.458637 0.843433 0.124918
C68   C     C_R   0.969865 0.796981 0.545342 0.443805
C69   C     C_3   0.233084 0.429515 0.801228 -0.328356
C70   C     C_3   0.187777 0.428104 0.838159 -0.750015
C71   C     C_3   0.540735 0.265532 0.842991 0.125450
C72   C     C_3   0.569703 0.233010 0.800466 -0.328617
C73   C     C_3   0.571183 0.187665 0.837259 -0.751377
C74   C     C_3   0.265648 0.542257 0.156640 0.107571
C75   C     C_3   0.236210 0.573919 0.199891 -0.297523
C76   C     C_3   0.225409 0.555551 0.275682 -0.920276
C77   C     C_3   0.540797 0.734221 0.157466 0.125719
C78   C     C_3   0.569667 0.766751 0.200082 -0.329639
C79   C     C_R   0.703021 0.530127 0.954636 0.443803
C80   C     C_3   0.571095 0.812107 0.163324 -0.749824
C81   C     C_3   0.734525 0.458946 0.156634 0.124996
C82   C     C_3   0.767074 0.429891 0.198925 -0.328366
C83   C     C_3   0.812378 0.428445 0.161981 -0.750154
C84   C     C_3   0.458241 0.265868 0.157075 0.106685
C85   C     C_3   0.426649 0.236737 0.200953 -0.296891
C86   C     C_3   0.445296 0.226114 0.276633 -0.917523
C87   C     C_R   0.470377 0.703190 0.954478 0.444801
C88   C     C_R   0.296817 0.470219 0.955107 0.446589
C89   C     C_R   0.000052 0.225937 0.500007 -0.173275
C90   C     C_R   0.529546 0.296758 0.954791 0.446255
C91   C     C_R   0.296915 0.530104 0.045210 0.443563
C92   C     C_R   0.529723 0.703136 0.045531 0.444889
C93   C     C_R   0.703246 0.470365 0.044945 0.446388
C94   C     C_R   0.469958 0.296963 0.045421 0.443696
C95   C     C_R   0.157009 0.031202 0.456934 0.169330
C96   C     C_R   0.968720 0.157108 0.457493 0.168537
C97   C     C_R   0.842900 0.968996 0.456793 0.166012
C98   C     C_R   0.030995 0.842786 0.457234 0.165228
C99   C     C_R   0.842838 0.030929 0.543234 0.166097
C100  C     C_R   0.774033 0.999938 0.500007 -0.176850
C101  C     C_R   0.031333 0.157055 0.542528 0.168769
C102  C     C_R   0.157209 0.969096 0.542999 0.165378
C103  C     C_R   0.968673 0.843013 0.542873 0.168913
C104  C     C_R   0.656988 0.531320 0.957110 0.168925
C105  C     C_R   0.469053 0.657158 0.956810 0.166044
C106  C     C_R   0.342852 0.468901 0.957314 0.165409
C107  C     C_R   0.530922 0.342789 0.957030 0.165372
C108  C     C_R   0.342947 0.531306 0.042791 0.169038
C109  C     C_R   0.531011 0.657102 0.043195 0.166012
C110  C     C_R   0.657213 0.469008 0.042759 0.165255
C111  C     C_R   0.999737 0.774053 0.500307 -0.175166
C112  C     C_R   0.468765 0.342996 0.043003 0.169105
C113  C     C_R   0.134128 0.000093 0.499976 -0.307939
C114  C     C_R   0.000018 0.134111 0.500009 -0.308670
C115  C     C_R   0.865857 0.999976 0.500006 -0.306852
C116  C     C_R   0.999890 0.865877 0.500025 -0.307857
C117  C     C_R   0.634123 0.500108 0.999965 -0.307871
C118  C     C_R   0.500021 0.634143 0.000005 -0.306782
C119  C     C_R   0.365876 0.500064 0.000033 -0.307727
C120  C     C_R   0.499902 0.365872 0.000011 -0.307983
C121  C     C_R   0.413748 0.000016 0.499998 0.907834
C122  C     C_R   0.725948 0.500260 0.999676 -0.175173
C123  C     C_R   0.000011 0.413748 0.500004 0.906606
C124  C     C_R   0.586251 0.999989 0.499995 0.907824
C125  C     C_R   0.999983 0.586252 0.500013 0.907176
C126  C     C_R   0.913748 0.500017 0.999986 0.907459
C127  C     C_R   0.500011 0.913748 0.000005 0.907820
C128  C     C_R   0.086251 0.499994 0.999997 0.907247
C129  C     C_R   0.499983 0.086252 0.000002 0.907822
C130  C     C_R   0.500008 0.999998 0.358955 0.927073
C131  C     C_R   0.000000 0.500007 0.358955 0.925786
C132  C     C_R   0.500001 0.000001 0.641045 0.925394
C133  C     C_R   0.500056 0.725967 0.000009 -0.176861
C134  C     C_R   1.000000 0.499999 0.641045 0.927410
C135  C     C_R   0.000006 0.499998 0.858955 0.926416
C136  C     C_R   0.500000 0.000000 0.858955 0.925398
C137  C     C_R   0.999995 0.500001 0.141045 0.926346
C138  C     C_R   0.500000 0.999991 0.141045 0.927077
C139  C     C_R   0.999997 0.913703 0.500000 1.035694
C140  C     C_R   0.086299 0.999998 0.499997 1.035844
C141  C     C_R   0.000003 0.086293 0.500003 1.035711
C142  C     C_R   0.913695 0.999997 0.500001 1.036049
C143  C     C_R   0.500002 0.413701 0.999999 1.035776
C144  C     C_R   0.274051 0.500161 0.000255 -0.175170
C145  C     C_R   0.586297 0.500003 0.999997 1.035722
C146  C     C_R   0.500003 0.586304 0.000002 1.036056
C147  C     C_R   0.413702 0.499998 0.000003 1.035846
C148  C     C_1   0.500008 0.999992 0.282421 -0.177580
C149  C     C_1   0.999999 0.500007 0.282420 -0.177652
C150  C     C_1   0.500001 0.000003 0.717579 -0.179575
C151  C     C_1   0.000002 0.499996 0.717580 -0.176341
C152  C     C_1   0.000005 0.499995 0.782421 -0.176936
C153  C     C_1   0.500001 0.000002 0.782420 -0.179579
C154  C     C_1   0.999997 0.500005 0.217579 -0.177706
C155  C     C_R   0.499736 0.274048 0.000198 -0.175139
C156  C     C_1   0.500004 0.999989 0.217579 -0.177584
C157  C     C_R   0.297122 0.035852 0.531222 0.281107
C158  C     C_R   0.964538 0.297118 0.531921 0.280701
C159  C     C_R   0.702896 0.964376 0.531667 0.270001
C160  C     C_R   0.035265 0.702907 0.532315 0.269985
C161  C     C_R   0.702876 0.035510 0.468274 0.270041
C162  C     C_R   0.035565 0.297089 0.468147 0.280723
C163  C     C_R   0.297090 0.964647 0.468013 0.269905
C164  C     C_R   0.964206 0.702881 0.468666 0.281065
C165  C     C_R   0.797116 0.535796 0.031316 0.281081
C166  C     C_R   0.203042 0.030008 0.454521 0.443659
C167  C     C_R   0.464494 0.797128 0.031764 0.270047
C168  C     C_R   0.202931 0.464668 0.032308 0.269971
C169  C     C_R   0.535333 0.202913 0.032026 0.269937
C170  C     C_R   0.202851 0.535648 0.968424 0.281056
C171  C     C_R   0.535615 0.797100 0.968317 0.270011
C172  C     C_R   0.797097 0.464732 0.967673 0.269987
C173  C     C_R   0.464159 0.202875 0.968731 0.281102
C174  C     C_R   0.342958 0.035734 0.530520 -0.251502
C175  C     C_R   0.964536 0.342956 0.531053 -0.241855
C176  C     C_R   0.657059 0.964412 0.530853 -0.265473
H1    H     H_    0.360672 0.063068 0.555184 0.198216
H2    H     H_    0.437139 0.860674 0.055573 0.200608
H3    H     H_    0.537291 0.173960 0.842940 0.241886
H4    H     H_    0.297214 0.537403 0.187046 0.174750
H5    H     H_    0.248252 0.509922 0.152050 0.151864
H6    H     H_    0.253297 0.606231 0.206055 0.257344
H7    H     H_    0.204887 0.579403 0.169316 0.235165
H8    H     H_    0.207479 0.523649 0.270725 0.271980
H9    H     H_    0.204073 0.579352 0.305630 0.272767
H10   H     H_    0.256231 0.550389 0.307657 0.277554
H11   H     H_    0.538896 0.702872 0.189219 0.148705
H12   H     H_    0.506858 0.748363 0.153217 0.144126
H13   H     H_    0.139414 0.437271 0.056071 0.199015
H14   H     H_    0.556111 0.770547 0.256348 0.180407
H15   H     H_    0.603800 0.753398 0.204613 0.252823
H16   H     H_    0.586630 0.809660 0.108342 0.300264
H17   H     H_    0.590993 0.835151 0.197284 0.234130
H18   H     H_    0.537184 0.825795 0.157593 0.242825
H19   H     H_    0.703205 0.460809 0.188489 0.148648
H20   H     H_    0.748687 0.492870 0.152618 0.143138
H21   H     H_    0.770961 0.443296 0.255270 0.180817
H22   H     H_    0.753682 0.395780 0.203267 0.252796
H23   H     H_    0.809839 0.413033 0.106918 0.299665
H24   H     H_    0.562827 0.139388 0.055598 0.199126
H25   H     H_    0.835447 0.408422 0.195726 0.236315
H26   H     H_    0.826093 0.462338 0.156402 0.241803
H27   H     H_    0.463365 0.297494 0.187178 0.174596
H28   H     H_    0.490479 0.248283 0.152222 0.152056
H29   H     H_    0.394429 0.254006 0.207324 0.257505
H30   H     H_    0.420919 0.205337 0.170735 0.235563
H31   H     H_    0.477109 0.208010 0.271482 0.271701
H32   H     H_    0.421543 0.205005 0.307061 0.274251
H33   H     H_    0.450710 0.257022 0.308252 0.276995
H34   H     H_    0.139280 0.562805 0.944202 0.198231
H35   H     H_    0.562936 0.860629 0.944497 0.200605
H36   H     H_    0.860633 0.437273 0.944035 0.199052
H37   H     H_    0.436957 0.139321 0.944741 0.198203
H38   H     H_    0.202526 0.036516 0.312754 0.174598
H39   H     H_    0.251734 0.009424 0.347756 0.152073
H40   H     H_    0.246015 0.105440 0.292511 0.257482
H41   H     H_    0.937237 0.360673 0.555884 0.196835
H42   H     H_    0.294681 0.078972 0.329146 0.235562
H43   H     H_    0.292020 0.022723 0.228482 0.271714
H44   H     H_    0.295028 0.078267 0.192820 0.274235
H45   H     H_    0.243010 0.049099 0.191667 0.276999
H46   H     H_    0.962430 0.203000 0.313391 0.174760
H47   H     H_    0.990007 0.251904 0.348409 0.150810
H48   H     H_    0.893602 0.246986 0.294849 0.257426
H49   H     H_    0.920527 0.295336 0.331609 0.234771
H50   H     H_    0.976107 0.292814 0.229923 0.271669
H51   H     H_    0.920347 0.296296 0.195296 0.272799
H52   H     H_    0.639365 0.937052 0.555463 0.200619
H53   H     H_    0.949269 0.244121 0.192969 0.277648
H54   H     H_    0.797138 0.961143 0.310764 0.148698
H55   H     H_    0.751645 0.993174 0.346790 0.144126
H56   H     H_    0.729466 0.943946 0.243620 0.180406
H57   H     H_    0.746611 0.896245 0.295318 0.252819
H58   H     H_    0.690342 0.913395 0.391601 0.300263
H59   H     H_    0.664857 0.909052 0.302656 0.234129
H60   H     H_    0.674211 0.962852 0.342388 0.242827
H61   H     H_    0.039209 0.796790 0.311500 0.148668
H62   H     H_    0.007141 0.751312 0.347365 0.143145
H63   H     H_    0.062722 0.639373 0.555962 0.199044
H64   H     H_    0.056723 0.729031 0.244719 0.180862
H65   H     H_    0.104237 0.746309 0.296727 0.252814
H66   H     H_    0.086971 0.690157 0.393073 0.299638
H67   H     H_    0.091587 0.664546 0.304265 0.236395
H68   H     H_    0.037668 0.673905 0.343583 0.241798
H69   H     H_    0.797033 0.038719 0.689258 0.148699
H70   H     H_    0.751590 0.006683 0.653199 0.144157
H71   H     H_    0.729326 0.055891 0.756382 0.180398
H72   H     H_    0.746413 0.103603 0.704709 0.252817
H73   H     H_    0.690184 0.086448 0.608395 0.300247
H74   H     H_    0.639332 0.062871 0.444478 0.200617
H75   H     H_    0.664678 0.090778 0.697333 0.234112
H76   H     H_    0.674113 0.036984 0.657592 0.242859
H77   H     H_    0.037650 0.202938 0.686618 0.174735
H78   H     H_    0.010118 0.251898 0.651617 0.150778
H79   H     H_    0.106516 0.246783 0.705181 0.257468
H80   H     H_    0.079636 0.295190 0.668436 0.234767
H81   H     H_    0.024051 0.292776 0.770117 0.271624
H82   H     H_    0.079813 0.296142 0.804750 0.272823
H83   H     H_    0.050842 0.244026 0.807054 0.277667
H84   H     H_    0.203113 0.961283 0.688834 0.148515
H85   H     H_    0.062836 0.360625 0.444178 0.196846
H86   H     H_    0.248617 0.993260 0.652832 0.143182
H87   H     H_    0.270792 0.943930 0.755899 0.180357
H88   H     H_    0.253602 0.896291 0.704126 0.252788
H89   H     H_    0.309860 0.913383 0.607845 0.300071
H90   H     H_    0.335366 0.908963 0.696768 0.234411
H91   H     H_    0.326030 0.962794 0.657112 0.241897
H92   H     H_    0.963017 0.797548 0.687052 0.174562
H93   H     H_    0.990169 0.748309 0.652279 0.152088
H94   H     H_    0.894021 0.754106 0.706889 0.257440
H95   H     H_    0.920551 0.705409 0.670484 0.235574
H96   H     H_    0.360617 0.937146 0.444474 0.199146
H97   H     H_    0.976557 0.708087 0.771513 0.271747
H98   H     H_    0.920923 0.705125 0.806813 0.274228
H99   H     H_    0.950116 0.757127 0.808100 0.277004
H100  H     H_    0.702459 0.536957 0.812926 0.174551
H101  H     H_    0.751698 0.509812 0.847701 0.152094
H102  H     H_    0.745899 0.605953 0.793075 0.257435
H103  H     H_    0.794596 0.579429 0.829481 0.235579
H104  H     H_    0.791924 0.523412 0.728462 0.271758
H105  H     H_    0.794884 0.579041 0.693152 0.274225
H106  H     H_    0.742883 0.549846 0.691874 0.276994
H107  H     H_    0.937050 0.639330 0.444501 0.198168
H108  H     H_    0.461223 0.702953 0.810795 0.148681
H109  H     H_    0.493270 0.748398 0.846822 0.144155
H110  H     H_    0.444033 0.770654 0.743681 0.180392
H111  H     H_    0.396334 0.753572 0.795398 0.252796
H112  H     H_    0.413515 0.809808 0.891692 0.300248
H113  H     H_    0.409162 0.835306 0.802757 0.234114
H114  H     H_    0.462967 0.825874 0.842453 0.242851
H115  H     H_    0.296905 0.460468 0.811585 0.148651
H116  H     H_    0.251372 0.492562 0.847325 0.143120
H117  H     H_    0.229185 0.442846 0.744836 0.180781
H118  H     H_    0.860665 0.562954 0.055486 0.198166
H119  H     H_    0.246527 0.395403 0.797007 0.252837
H120  H     H_    0.190329 0.412763 0.893274 0.299709
H121  H     H_    0.164741 0.408031 0.804471 0.236299
H122  H     H_    0.174012 0.462001 0.843621 0.241793
H123  H     H_    0.538810 0.296872 0.811208 0.148482
H124  H     H_    0.506818 0.251370 0.847174 0.143154
H125  H     H_    0.556203 0.229190 0.744171 0.180335
H126  H     H_    0.603815 0.246387 0.796003 0.252800
H127  H     H_    0.586677 0.190136 0.892267 0.300077
H128  H     H_    0.591144 0.164624 0.803352 0.234409
O1    O     O_R   0.434530 0.036970 0.500000 -0.619598
O2    O     O_R   0.463030 0.934530 0.000000 -0.621174
O3    O     O_R   0.065470 0.463030 0.000000 -0.621682
O4    O     O_R   0.536970 0.065470 0.000000 -0.621658
O5    O     O_R   0.065470 0.536970 0.000000 -0.619750
O6    O     O_R   0.536970 0.934530 0.000000 -0.621116
O7    O     O_R   0.934530 0.463030 0.000000 -0.621714
O8    O     O_R   0.463030 0.065470 0.000000 -0.619587
O9    O     O_R   0.500010 0.036970 0.392670 -0.615293
O10   O     O_R   0.963030 0.500010 0.392670 -0.616220
O11   O     O_R   0.499990 0.963030 0.392670 -0.616792
O12   O     O_R   0.963030 0.434530 0.500000 -0.620413
O13   O     O_R   0.036970 0.499990 0.392670 -0.616472
O14   O     O_R   0.499990 0.036970 0.607330 -0.616649
O15   O     O_R   0.036970 0.500010 0.607330 -0.616218
O16   O     O_R   0.500010 0.963030 0.607330 -0.616512
O17   O     O_R   0.963030 0.499990 0.607330 -0.615620
O18   O     O_R   0.000010 0.536970 0.892670 -0.615613
O19   O     O_R   0.463030 0.000010 0.892670 -0.616649
O20   O     O_R   0.999990 0.463030 0.892670 -0.616601
O21   O     O_R   0.536970 0.999990 0.892670 -0.616518
O22   O     O_R   0.999990 0.536970 0.107330 -0.616067
O23   O     O_R   0.565470 0.963030 0.500000 -0.621121
O24   O     O_R   0.536970 0.000010 0.107330 -0.616794
O25   O     O_R   0.000010 0.463030 0.107330 -0.616377
O26   O     O_R   0.463030 0.999990 0.107330 -0.615301
O27   O     O_R   0.999990 0.934550 0.439420 -0.594167
O28   O     O_R   0.065450 0.999990 0.439420 -0.594396
O29   O     O_R   0.000010 0.065450 0.439420 -0.594264
O30   O     O_R   0.934550 0.000010 0.439420 -0.594270
O31   O     O_R   0.000010 0.934550 0.560580 -0.594464
O32   O     O_R   0.934550 0.999990 0.560580 -0.594109
O33   O     O_R   0.999990 0.065450 0.560580 -0.594396
O34   O     O_R   0.036970 0.565470 0.500000 -0.621856
O35   O     O_R   0.065450 0.000010 0.560580 -0.594163
O36   O     O_R   0.499990 0.434550 0.939420 -0.594236
O37   O     O_R   0.565450 0.499990 0.939420 -0.594474
O38   O     O_R   0.500010 0.565450 0.939420 -0.594138
O39   O     O_R   0.434550 0.500010 0.939420 -0.594295
O40   O     O_R   0.500010 0.434550 0.060580 -0.594388
O41   O     O_R   0.434550 0.499990 0.060580 -0.594281
O42   O     O_R   0.499990 0.565450 0.060580 -0.594208
O43   O     O_R   0.565450 0.500010 0.060580 -0.594162
O44   O     O_3   0.225904 0.060381 0.412411 -0.571289
O45   O     O_R   0.565470 0.036970 0.500000 -0.621177
O46   O     O_3   0.939340 0.226114 0.413710 -0.571294
O47   O     O_3   0.773870 0.940206 0.411968 -0.552432
O48   O     O_3   0.059852 0.773633 0.412959 -0.552416
O49   O     O_3   0.773753 0.059666 0.588054 -0.552481
O50   O     O_3   0.060762 0.226012 0.586308 -0.571227
O51   O     O_3   0.226352 0.940377 0.587566 -0.552448
O52   O     O_3   0.939384 0.774137 0.587265 -0.571285
O53   O     O_3   0.725866 0.560603 0.912708 -0.571284
O54   O     O_3   0.440303 0.726241 0.912016 -0.552474
O55   O     O_3   0.273760 0.439940 0.913103 -0.552326
O56   O     O_R   0.036970 0.434530 0.500000 -0.620334
O57   O     O_3   0.559666 0.273644 0.912505 -0.552425
O58   O     O_3   0.274005 0.560677 0.086910 -0.571325
O59   O     O_3   0.559811 0.726133 0.087998 -0.552431
O60   O     O_3   0.726366 0.440154 0.087031 -0.552415
O61   O     O_3   0.439559 0.274105 0.087489 -0.571279
O62   O     O_R   0.434530 0.963030 0.500000 -0.621666
O63   O     O_R   0.963030 0.565470 0.500000 -0.619787
O64   O     O_R   0.934530 0.536970 0.000000 -0.619715
Zn1   Zn    Zn3+2 0.500000 0.049360 0.500000 0.991467
Zn2   Zn    Zn3+2 0.000000 1.000000 0.580910 1.105339
Zn3   Zn    Zn3+2 0.500000 0.500000 0.919090 1.105228
Zn4   Zn    Zn3+2 0.500000 0.500000 0.080910 1.105416
Zn5   Zn    Zn3+2 0.950640 0.500000 0.500000 0.993592
Zn6   Zn    Zn3+2 0.500000 0.950640 0.500000 0.989201
Zn7   Zn    Zn3+2 0.049360 0.500000 0.500000 0.991556
Zn8   Zn    Zn3+2 1.000000 0.549360 0.000000 0.993640
Zn9   Zn    Zn3+2 0.450640 0.000000 0.000000 0.991469
Zn10  Zn    Zn3+2 1.000000 0.450640 0.000000 0.989643
Zn11  Zn    Zn3+2 0.549360 0.000000 0.000000 0.989198
Zn12  Zn    Zn3+2 1.000000 0.000000 0.419090 1.105361

loop_
_geom_bond_atom_site_label_1
_geom_bond_atom_site_label_2
_ccdc_geom_bond_type
C86   H31   S    
C33   C155  S    
C47   H68   S    
C176  H52   S    
C34   H39   S    
C2    O46   S    
C28   C100  S    
C69   H119  S    
C91   C144  A    
C43   H59   S    
C40   H53   S    
C69   C70   S    
C17   C121  S    
C94   C155  A    
C90   C107  A    
C44   O48   S    
C8    C165  A    
O39   Zn3   S    
C166  O44   S    
C107  C120  A    
C6    C163  A    
C48   O49   S    
C126  O7    A    
C67   H116  S    
C59   H94   S    
C28   C161  A    
Br13  C98   S    
C10   H13   S    
O27   Zn12  S    
C68   C103  A    
C15   C21   A    
O25   Zn10  S    
C52   H80   S    
C85   H29   S    
C80   H16   S    
C137  O25   A    
C14   H35   S    
O10   Zn5   S    
C78   H15   S    
Br11  C97   S    
C72   C73   S    
C129  O8    A    
C82   C83   S    
C69   H117  S    
C45   C47   S    
C130  O9    A    
C45   H65   S    
C80   H18   S    
C11   H24   S    
C84   O61   S    
C150  C153  T    
C134  O15   A    
C38   H47   S    
C151  C152  T    
Br32  C165  S    
C10   C23   A    
C119  C147  S    
Br30  C163  S    
O35   Zn2   S    
C157  C174  A    
C44   H61   S    
C135  O20   A    
C45   H64   S    
C56   H91   S    
C121  O1    A    
C29   C164  A    
C51   H78   S    
C95   C113  A    
C76   H9    S    
C14   C171  A    
C67   C69   S    
C47   H66   S    
O1    Zn1   S    
C32   C168  A    
C143  O36   A    
C71   H123  S    
C54   O51   S    
O13   Zn7   S    
O15   Zn7   S    
Br21  C107  S    
C95   C166  A    
C34   H38   S    
C58   H92   S    
C135  O18   A    
C5    H85   S    
C49   H71   S    
C54   H86   S    
C60   H99   S    
C106  C119  A    
O37   Zn3   S    
C58   O52   S    
O8    Zn9   S    
O5    Zn8   S    
Br6   C171  S    
C77   H12   S    
C5    C18   A    
C138  O26   A    
C58   H93   S    
Br4   C169  S    
C84   H27   S    
C15   C172  A    
Br8   C173  S    
C147  O41   A    
C97   C115  A    
O30   Zn12  S    
C37   H43   S    
C25   C129  S    
C17   C174  A    
C13   C100  A    
C74   C75   S    
C128  O3    A    
C79   O53   S    
C41   O47   S    
C83   H26   S    
C141  O33   A    
C131  C149  S    
C26   C163  A    
Br25  C110  S    
C12   C23   A    
C7    H107  S    
C38   H46   S    
C65   C66   S    
C58   C59   S    
C115  C142  S    
C12   H34   S    
C16   C25   A    
O3    Zn10  S    
O18   Zn8   S    
C36   H40   S    
C53   H82   S    
C31   C171  A    
C110  C117  A    
C1    C57   A    
C15   H36   S    
O4    Zn11  S    
C79   C104  A    
C81   H19   S    
C33   C173  A    
C65   H111  S    
C66   H112  S    
C22   C127  S    
C24   C111  A    
C135  C152  S    
Br17  C103  S    
C75   C76   S    
C99   C115  A    
O42   Zn4   S    
C32   C144  S    
C87   C133  A    
C130  C148  S    
C77   O59   S    
C113  C140  S    
C59   H95   S    
O24   Zn11  S    
C12   C170  A    
C13   O47   S    
Br10  C96   S    
C88   C144  A    
C109  C118  A    
O41   Zn4   S    
C62   H103  S    
Br2   C167  S    
C137  O22   A    
C59   C60   S    
C130  O11   A    
C136  O21   A    
C145  O37   A    
O33   Zn2   S    
C147  O39   A    
C11   C169  A    
C72   H126  S    
C51   C52   S    
C18   C123  S    
Br19  C105  S    
O26   Zn9   S    
O16   Zn6   S    
Br3   C168  S    
C75   H7    S    
C30   C172  A    
C139  O31   A    
C73   H128  S    
C9    H2    S    
C71   O57   S    
C92   C109  A    
C74   O58   S    
C56   H90   S    
Br27  C160  S    
O12   Zn5   S    
C132  O14   A    
C93   C122  A    
C86   H32   S    
C47   H67   S    
C80   H17   S    
C63   H106  S    
C146  O42   A    
O36   Zn3   S    
C149  C154  T    
C86   H33   S    
C39   H49   S    
C55   H88   S    
C38   O46   S    
C39   C40   S    
C112  C120  A    
C85   C86   S    
C96   C114  A    
C35   O49   S    
C60   H98   S    
C1    C166  A    
C123  O56   A    
C94   C112  A    
C143  O40   A    
C70   H121  S    
C105  C118  A    
C78   C80   S    
C11   C25   A    
C92   C133  A    
C67   H115  S    
C158  C175  A    
O63   Zn5   S    
C51   O50   S    
C2    C96   A    
C138  C156  S    
C146  O38   A    
C24   C98   A    
C41   H55   S    
Br1   C157  S    
C55   C56   S    
C13   C97   A    
C1    C26   S    
C41   C42   S    
C35   C100  A    
C9    C167  A    
C82   H21   S    
C104  C117  A    
C81   O60   S    
C6    C17   A    
O9    Zn1   S    
C63   H104  S    
C124  O23   A    
C21   C126  S    
Br9   C95   S    
C137  C154  S    
C42   H57   S    
C34   O44   S    
O21   Zn11  S    
C36   H42   S    
C131  O10   A    
Br22  C108  S    
C116  C139  S    
Br20  C106  S    
C46   C89   A    
C148  C156  T    
C120  C143  S    
C29   C111  S    
C66   H113  S    
C36   C37   S    
C44   H62   S    
C16   C173  A    
C125  O34   A    
C68   O52   S    
C38   C39   S    
C136  C153  S    
C64   H108  S    
C94   O61   S    
C51   H77   S    
Br14  C99   S    
C88   O55   S    
C76   H10   S    
O14   Zn1   S    
C50   H76   S    
C48   H70   S    
C127  O2    A    
C43   H60   S    
C67   O55   S    
C145  O43   A    
C52   C53   S    
C30   C165  A    
C54   C55   S    
C61   H101  S    
C140  O35   A    
Br7   C172  S    
C77   H11   S    
C14   C22   A    
C175  H41   S    
C108  C119  A    
C76   H8    S    
C134  O17   A    
C61   H100  S    
C85   H30   S    
C73   H127  S    
C61   O53   S    
C140  O28   A    
C78   H14   S    
C83   H25   S    
C81   C82   S    
C20   C125  S    
C102  C113  A    
C3    C20   A    
C134  C151  S    
C68   C111  A    
C64   H109  S    
C131  O13   A    
C53   H81   S    
C7    C164  A    
C132  O16   A    
C121  O62   A    
C73   H3    S    
C5    C162  A    
C4    H74   S    
C123  O12   A    
O64   Zn8   S    
C139  O27   A    
C77   C78   S    
C90   C155  A    
C3    C160  A    
C65   H110  S    
Br16  C102  S    
C93   O60   S    
C62   C63   S    
C46   C101  A    
C87   O54   S    
C132  C150  S    
C125  O63   A    
C126  O64   A    
O43   Zn4   S    
C71   C72   S    
O17   Zn5   S    
C71   H124  S    
C27   C158  A    
C101  C114  A    
C43   H58   S    
C138  O24   A    
C27   C89   S    
C34   C36   S    
C40   H50   S    
C61   C62   S    
C49   H72   S    
O6    Zn11  S    
Br23  C159  S    
C49   C50   S    
C37   H45   S    
C16   H37   S    
C128  O5    A    
O38   Zn3   S    
Br31  C164  S    
C129  O4    A    
Br29  C162  S    
C114  C141  S    
C84   C85   S    
O29   Zn12  S    
C4    C161  A    
C37   H44   S    
O2    Zn9   S    
C90   O57   S    
C31   C167  A    
C29   C160  A    
C70   H120  S    
Br24  C109  S    
C83   H23   S    
O23   Zn6   S    
C118  C146  S    
C18   C175  A    
C136  O19   A    
C7    C20   A    
C46   O50   S    
C84   H28   S    
O34   Zn7   S    
Br26  C112  S    
C50   H75   S    
C24   O48   S    
C27   C162  A    
C53   H83   S    
C141  O29   A    
C19   C124  S    
C54   H84   S    
C42   C43   S    
C98   C116  A    
C87   C105  A    
C44   C45   S    
C63   H105  S    
O31   Zn2   S    
Br5   C170  S    
C19   C176  A    
C81   H20   S    
C91   C108  A    
C55   H87   S    
C30   C122  S    
C92   O59   S    
O28   Zn12  S    
C31   C133  S    
C93   C110  A    
C74   H4    S    
C64   C65   S    
C26   C157  A    
C117  C145  S    
Br28  C161  S    
C70   H122  S    
O7    Zn10  S    
C127  O6    A    
Br18  C104  S    
C9    C22   A    
C4    C19   A    
C8    H118  S    
C40   H51   S    
C8    C21   A    
C2    C89   A    
C142  O32   A    
C88   C106  A    
O56   Zn7   S    
C41   H54   S    
O20   Zn10  S    
C74   H5    S    
C32   C170  A    
C60   H97   S    
C23   C128  S    
C57   C102  A    
C62   H102  S    
C52   H79   S    
C35   C99   A    
C3    H63   S    
C48   C49   S    
C57   O51   S    
C82   H22   S    
O11   Zn6   S    
O40   Zn4   S    
Br15  C101  S    
Br12  C158  S    
C6    H96   S    
O62   Zn6   S    
C10   C168  A    
O45   Zn1   S    
C72   H125  S    
C174  H1    S    
C48   H69   S    
C75   H6    S    
C28   C159  A    
O19   Zn9   S    
O32   Zn2   S    
C159  C176  A    
C142  O30   A    
C79   C122  A    
C39   H48   S    
C91   O58   S    
C33   C169  A    
C124  O45   A    
C66   H114  S    
C103  C116  A    
O22   Zn8   S    
C64   O54   S    
C56   H89   S    
C50   H73   S    
C42   H56   S    
