data_mof_unit_46980.cif
_audit_creation_date              2012-12-10T20:44:00-0500
_audit_creation_method            fapswitch 2.2
_symmetry_space_group_name_H-M    P1
_symmetry_Int_Tables_number       1
_space_group_crystal_system       triclinic
_cell_length_a                    17.446519
_cell_length_b                    10.679076
_cell_length_c                    9.851135
_cell_angle_alpha                 89.825592
_cell_angle_beta                  89.82914
_cell_angle_gamma                 89.916258
_cell_volume                      1835.37298275

loop_
_atom_site_label
_atom_site_type_symbol
_atom_type_description
_atom_site_fract_x
_atom_site_fract_y
_atom_site_fract_z
_atom_type_partial_charge
C1    C     C_R   0.502387 0.259843 0.500105 0.870253
C2    C     C_R   0.886010 0.431365 0.498089 0.073306
C3    C     C_1   0.966891 0.424864 0.503565 -0.063496
C4    C     C_1   0.034894 0.428773 0.507613 -0.015962
C5    C     C_R   0.145574 0.544715 0.582480 -0.219820
C6    C     C_R   0.223990 0.568401 0.577835 0.453089
C7    C     C_R   0.271252 0.487796 0.501146 -0.181403
C8    C     C_R   0.239834 0.387692 0.428518 -0.269531
C9    C     C_R   0.161639 0.365845 0.433152 -0.134107
C10   C     C_R   0.115128 0.443998 0.510666 0.067085
C11   C     C_R   0.519527 0.063371 0.622333 0.137038
C12   C     C_R   0.353570 0.500643 0.500279 0.967801
C13   C     C_R   0.515158 0.128489 0.499985 -0.090764
C14   C     C_R   0.526286 0.064997 0.376959 -0.218405
C15   C     C_R   0.526441 0.935568 0.376823 -0.214250
C16   C     C_R   0.515529 0.871299 0.499711 -0.090153
C17   C     C_R   0.519901 0.935591 0.622250 0.104955
C18   C     C_3   0.470613 0.927816 0.746430 -0.411912
C19   C     C_3   0.469784 0.069740 0.745914 -0.503645
C20   C     C_R   0.433082 0.486545 0.071688 0.240021
C21   C     C_R   0.565068 0.524717 0.071513 -0.147949
C22   C     C_R   0.565064 0.524754 0.927595 -0.155103
C23   C     C_R   0.502629 0.740084 0.499820 0.942121
C24   C     C_R   0.433074 0.486650 0.929110 0.310062
C25   C     C_3   0.379752 0.377897 0.923976 -0.504534
C26   C     C_3   0.379844 0.377667 0.078174 -0.523362
C27   C     C_R   0.646866 0.497433 0.499724 0.865018
C28   C     C_R   0.846795 0.441718 0.621111 -0.184885
C29   C     C_R   0.768900 0.465587 0.621789 -0.202102
C30   C     C_R   0.729704 0.479934 0.498970 -0.082969
C31   C     C_R   0.769097 0.468913 0.375071 -0.218151
C32   C     C_R   0.847971 0.443188 0.372534 0.257386
H1    H     H_    0.876924 0.434001 0.716912 0.150100
H2    H     H_    0.529358 0.887075 0.280504 0.173502
H3    H     H_    0.413476 0.886025 0.726700 0.267463
H4    H     H_    0.501867 0.887218 0.834393 0.198343
H5    H     H_    0.412219 0.109948 0.724446 0.211050
H6    H     H_    0.500229 0.111126 0.833983 0.203861
H7    H     H_    0.617851 0.542871 0.125073 0.149524
H8    H     H_    0.617846 0.542966 0.873398 0.151320
H9    H     H_    0.323300 0.403679 0.879864 0.233845
H10   H     H_    0.406865 0.293456 0.879206 0.201345
H11   H     H_    0.323426 0.403469 0.122802 0.220705
H12   H     H_    0.739525 0.472847 0.718469 0.156672
H13   H     H_    0.407019 0.292937 0.123117 0.212781
H14   H     H_    0.737730 0.479604 0.281374 0.160494
H15   H     H_    0.107816 0.605944 0.639376 0.196927
H16   H     H_    0.276116 0.325419 0.369913 0.164514
H17   H     H_    0.137454 0.288993 0.375930 0.152991
H18   H     H_    0.529152 0.114093 0.280675 0.171175
N1    N     N_R   0.499490 0.499140 0.142800 -0.113327
N2    N     N_R   0.499490 0.499180 0.857150 -0.116842
O1    O     O_R   0.500010 0.316790 0.614690 -0.622322
O2    O     O_R   0.500000 0.316760 0.385350 -0.627799
O3    O     O_R   0.389120 0.500020 0.614710 -0.576231
O4    O     O_R   0.389110 0.499990 0.385370 -0.615339
O5    O     O_R   0.500000 0.683240 0.614650 -0.599185
O6    O     O_R   0.499990 0.683210 0.385310 -0.620401
O7    O     O_R   0.610890 0.500010 0.614630 -0.632468
O8    O     O_R   0.610880 0.499980 0.385290 -0.633486
Zn1   Zn    Zn3+2 0.500010 0.500020 0.653130 0.978833
Zn2   Zn    Zn3+2 0.499990 0.499980 0.346870 0.953237
N3    N     N_2   0.890081 0.433666 0.247362 -0.297572
H19   H     H_    0.940198 0.382529 0.251569 0.232858
C33   C     C_3   0.849319 0.420317 0.120305 -0.807652
H20   H     H_    0.891071 0.408516 0.035933 0.243160
H21   H     H_    0.815299 0.505928 0.098401 0.241409
H22   H     H_    0.811606 0.336609 0.123842 0.240408
S1    S     S_3+6 0.260017 0.703240 0.659885 -0.006686
O9    O     O_2   0.302488 0.664633 0.785741 -0.325980
O10   O     O_2   0.313781 0.770956 0.565545 -0.349388
O11   O     O_3   0.187779 0.799750 0.703277 -0.560832
H23   H     H_    0.212951 0.872498 0.746443 0.383358

loop_
_geom_bond_atom_site_label_1
_geom_bond_atom_site_label_2
_ccdc_geom_bond_type
C25   H10   S    
O6    Zn2   S    
S1    O11   S    
C2    C28   A    
C1    O2    A    
C8    H16   S    
O5    Zn1   S    
C29   C30   A    
C19   H5    S    
C19   H6    S    
C6    S1    S    
C5    H15   S    
C9    C10   A    
C15   H2    S    
C31   C32   A    
C21   H7    S    
C21   N1    A    
C30   C31   A    
C27   O8    A    
C33   H22   S    
C22   H8    S    
C16   C23   S    
N3    C33   S    
C17   C18   S    
S1    O10   D    
C7    C8    A    
C27   O7    A    
C21   C22   A    
C27   C30   S    
C11   C13   A    
C11   C19   S    
C6    C7    A    
N1    Zn2   S    
C20   C26   S    
O11   H23   S    
O3    Zn1   S    
S1    O9    D    
C28   C29   A    
C12   O4    A    
C26   H11   S    
C2    C3    S    
C20   N1    A    
C24   N2    A    
C33   H20   S    
C29   H12   S    
O8    Zn2   S    
C5    C6    A    
O4    Zn2   S    
C7    C12   S    
O7    Zn1   S    
C12   O3    A    
C1    C13   S    
C28   H1    S    
C14   H18   S    
C4    C10   S    
C15   C16   A    
C16   C17   A    
C20   C24   A    
C5    C10   A    
C9    H17   S    
C24   C25   S    
O1    Zn1   S    
C2    C32   A    
C18   C19   S    
C18   H3    S    
C25   H9    S    
C23   O5    A    
C1    O1    A    
C14   C15   A    
C11   C17   A    
N2    Zn1   S    
O2    Zn2   S    
C26   H13   S    
C22   N2    A    
C25   C26   S    
C13   C14   A    
C18   H4    S    
C23   O6    A    
C3    C4    T    
N3    H19   S    
C32   N3    S    
C8    C9    A    
C33   H21   S    
C31   H14   S    
