data_mof_unit_64305.cif
_audit_creation_date              2012-12-10T17:22:15-0500
_audit_creation_method            fapswitch 2.2
_symmetry_space_group_name_H-M    P1
_symmetry_Int_Tables_number       1
_space_group_crystal_system       triclinic
_cell_length_a                    21.68902
_cell_length_b                    21.689022
_cell_length_c                    55.788104
_cell_angle_alpha                 89.999989
_cell_angle_beta                  89.999989
_cell_angle_gamma                 90.0
_cell_volume                      26243.4846216

loop_
_atom_site_label
_atom_site_type_symbol
_atom_type_description
_atom_site_fract_x
_atom_site_fract_y
_atom_site_fract_z
_atom_type_partial_charge
C1    C     C_R   0.000000 0.500000 0.123275 0.267758
C2    C     C_R   0.500000 0.000000 0.123275 0.267757
C3    C     C_R   1.000000 0.500000 0.876725 0.267757
C4    C     C_R   0.500000 1.000000 0.876725 0.267758
C5    C     C_R   0.500000 1.000000 0.623275 0.267758
C6    C     C_R   1.000000 0.500000 0.623275 0.267759
C7    C     C_R   0.500000 0.000000 0.376725 0.267758
C8    C     C_R   0.000000 0.500000 0.376725 0.267758
C9    C     C_R   1.000000 0.500000 0.224665 0.071820
C10   C     C_R   0.500000 0.000000 0.224665 0.071820
C11   C     C_R   1.000000 0.500000 0.775335 0.071820
C12   C     C_R   0.500000 1.000000 0.775335 0.071820
C13   C     C_R   0.500000 1.000000 0.724665 0.071820
C14   C     C_R   1.000000 0.500000 0.724665 0.071820
C15   C     C_R   0.500000 0.000000 0.275335 0.071820
C16   C     C_R   0.000000 0.500000 0.275335 0.071820
C17   C     C_R   0.915205 0.573528 0.223864 -0.197230
C18   C     C_R   0.426471 0.915206 0.223864 -0.197231
C19   C     C_R   0.084795 0.426472 0.223864 -0.197230
C20   C     C_R   0.573529 0.084794 0.223864 -0.197231
C21   C     C_R   0.915208 0.426468 0.776136 -0.197230
C22   C     C_R   0.426472 0.084795 0.776136 -0.197231
C23   C     C_R   0.084791 0.573532 0.776136 -0.197230
C24   C     C_R   0.573528 0.915205 0.776136 -0.197230
C25   C     C_R   0.415205 0.073528 0.723864 -0.197230
C26   C     C_R   0.926475 0.415203 0.723864 -0.197231
C27   C     C_R   0.584795 0.926472 0.723864 -0.197230
C28   C     C_R   0.073525 0.584797 0.723864 -0.197230
C29   C     C_R   0.415204 0.926473 0.276136 -0.197231
C30   C     C_R   0.926472 0.584795 0.276136 -0.197230
C31   C     C_R   0.584795 0.073527 0.276136 -0.197230
C32   C     C_R   0.073528 0.415205 0.276136 -0.197230
C33   C     C_R   0.914508 0.571840 0.198952 -0.133964
C34   C     C_R   0.428158 0.914509 0.198952 -0.133964
C35   C     C_R   0.085492 0.428160 0.198952 -0.133964
C36   C     C_R   0.571841 0.085491 0.198952 -0.133964
C37   C     C_R   0.914511 0.428156 0.801048 -0.133963
C38   C     C_R   0.428160 0.085492 0.801048 -0.133964
C39   C     C_R   0.085489 0.571844 0.801048 -0.133964
C40   C     C_R   0.571840 0.914508 0.801048 -0.133964
C41   C     C_R   0.414508 0.071841 0.698952 -0.133964
C42   C     C_R   0.928162 0.414506 0.698952 -0.133963
C43   C     C_R   0.585492 0.928159 0.698952 -0.133964
C44   C     C_R   0.071837 0.585494 0.698952 -0.133964
C45   C     C_R   0.414507 0.928161 0.301048 -0.133964
C46   C     C_R   0.928160 0.585492 0.301048 -0.133964
C47   C     C_R   0.585493 0.071840 0.301048 -0.133964
C48   C     C_R   0.071841 0.414508 0.301048 -0.133964
C49   C     C_R   0.957022 0.535875 0.186374 -0.020365
C50   C     C_R   0.464124 0.957023 0.186374 -0.020365
C51   C     C_R   0.042978 0.464125 0.186374 -0.020365
C52   C     C_R   0.535875 0.042977 0.186374 -0.020365
C53   C     C_R   0.957024 0.464123 0.813626 -0.020365
C54   C     C_R   0.464125 0.042978 0.813626 -0.020365
C55   C     C_R   0.042976 0.535877 0.813626 -0.020365
C56   C     C_R   0.535875 0.957022 0.813626 -0.020365
C57   C     C_R   0.457022 0.035875 0.686374 -0.020365
C58   C     C_R   0.964126 0.457021 0.686374 -0.020365
C59   C     C_R   0.542978 0.964125 0.686374 -0.020365
C60   C     C_R   0.035874 0.542979 0.686374 -0.020365
C61   C     C_R   0.457022 0.964125 0.313626 -0.020365
C62   C     C_R   0.964125 0.542978 0.313626 -0.020365
C63   C     C_R   0.542978 0.035874 0.313626 -0.020365
C64   C     C_R   0.035875 0.457022 0.313626 -0.020365
C65   C     C_R   1.000000 0.500000 0.199156 -0.042632
C66   C     C_R   0.500000 0.000000 0.199156 -0.042632
C67   C     C_R   1.000000 0.500000 0.800844 -0.042632
C68   C     C_R   0.500000 1.000000 0.800844 -0.042632
C69   C     C_R   0.500000 1.000000 0.699156 -0.042632
C70   C     C_R   1.000000 0.500000 0.699156 -0.042632
C71   C     C_R   0.500000 0.000000 0.300844 -0.042632
C72   C     C_R   1.000000 0.500000 0.300844 -0.042632
C73   C     C_R   0.957294 0.534592 0.161181 0.551382
C74   C     C_R   0.465408 0.957295 0.161181 0.551382
C75   C     C_R   0.042706 0.465408 0.161181 0.551383
C76   C     C_R   0.534592 0.042706 0.161181 0.551383
C77   C     C_R   0.957295 0.465407 0.838819 0.551382
C78   C     C_R   0.465408 0.042706 0.838819 0.551383
C79   C     C_R   0.042704 0.534593 0.838819 0.551382
C80   C     C_R   0.534592 0.957294 0.838819 0.551382
C81   C     C_R   0.457294 0.034592 0.661181 0.551383
C82   C     C_R   0.965410 0.457293 0.661181 0.551383
C83   C     C_R   0.542706 0.965408 0.661181 0.551383
C84   C     C_R   0.034590 0.542707 0.661181 0.551383
C85   C     C_R   0.457294 0.965409 0.338819 0.551382
C86   C     C_R   0.965408 0.542706 0.338819 0.551383
C87   C     C_R   0.542706 0.034591 0.338819 0.551383
C88   C     C_R   0.034592 0.457294 0.338819 0.551383
C89   C     C_R   0.978164 0.448292 0.110537 0.011146
C90   C     C_R   0.448292 0.021836 0.110537 0.011146
C91   C     C_R   0.021836 0.551708 0.110537 0.011146
C92   C     C_R   0.551708 0.978164 0.110537 0.011146
C93   C     C_R   0.021837 0.448292 0.889462 0.011147
C94   C     C_R   0.551708 0.021836 0.889462 0.011146
C95   C     C_R   0.978163 0.551708 0.889462 0.011147
C96   C     C_R   0.448292 0.978164 0.889462 0.011146
C97   C     C_R   0.478164 0.948292 0.610537 0.011146
C98   C     C_R   0.948292 0.521836 0.610537 0.011146
C99   C     C_R   0.521836 0.051708 0.610537 0.011146
C100  C     C_R   0.051708 0.478164 0.610537 0.011146
C101  C     C_R   0.521835 0.948292 0.389462 0.011146
C102  C     C_R   0.051708 0.521836 0.389462 0.011146
C103  C     C_R   0.478164 0.051709 0.389462 0.011146
C104  C     C_R   0.948292 0.478164 0.389462 0.011146
C105  C     C_R   0.978802 0.448317 0.085462 -0.245015
C106  C     C_R   0.448317 0.021198 0.085462 -0.245016
C107  C     C_R   0.021198 0.551683 0.085462 -0.245016
C108  C     C_R   0.551683 0.978802 0.085462 -0.245016
C109  C     C_R   0.021199 0.448317 0.914537 -0.245015
C110  C     C_R   0.551683 0.021198 0.914537 -0.245016
C111  C     C_R   0.978801 0.551682 0.914537 -0.245015
C112  C     C_R   0.448317 0.978802 0.914537 -0.245015
C113  C     C_R   0.478802 0.948317 0.585463 -0.245016
C114  C     C_R   0.948317 0.521198 0.585463 -0.245015
C115  C     C_R   0.521198 0.051683 0.585463 -0.245016
C116  C     C_R   0.051683 0.478802 0.585463 -0.245015
C117  C     C_R   0.521197 0.948317 0.414537 -0.245015
C118  C     C_R   0.051683 0.521198 0.414537 -0.245015
C119  C     C_R   0.478803 0.051683 0.414537 -0.245016
C120  C     C_R   0.948317 0.478802 0.414537 -0.245015
C121  C     C_R   1.000000 0.500000 0.072767 -0.053948
C122  C     C_R   0.500000 0.000000 0.072767 -0.053948
C123  C     C_R   1.000000 0.500000 0.927233 -0.053948
C124  C     C_R   0.500000 0.000000 0.927233 -0.053948
C125  C     C_R   0.500000 1.000000 0.572767 -0.053948
C126  C     C_R   1.000000 0.500000 0.572767 -0.053948
C127  C     C_R   0.500000 0.000000 0.427233 -0.053948
C128  C     C_R   1.000000 0.500000 0.427233 -0.053948
C129  C     C_R   0.500000 0.381012 0.000000 0.778611
C130  C     C_R   0.618988 0.500000 0.000000 0.778611
C131  C     C_R   0.500000 0.618988 0.000000 0.778611
C132  C     C_R   0.381012 0.500000 0.000000 0.778611
C133  C     C_R   1.000000 0.881012 0.500000 0.778611
C134  C     C_R   0.118988 0.000000 0.500000 0.778611
C135  C     C_R   1.000000 0.118988 0.500000 0.778611
C136  C     C_R   0.881012 0.000000 0.500000 0.778611
C137  C     C_R   0.282019 0.460869 0.984419 -0.166581
C138  C     C_R   0.539131 0.282019 0.984419 -0.166581
C139  C     C_R   0.717981 0.539131 0.984419 -0.166581
C140  C     C_R   0.460869 0.717981 0.984419 -0.166580
C141  C     C_R   0.282019 0.539131 0.015581 -0.166580
C142  C     C_R   0.539131 0.717981 0.015581 -0.166581
C143  C     C_R   0.717981 0.460869 0.015581 -0.166581
C144  C     C_R   0.460869 0.282019 0.015581 -0.166580
C145  C     C_R   0.782019 0.960869 0.484419 -0.166580
C146  C     C_R   0.039131 0.782019 0.484419 -0.166581
C147  C     C_R   0.217981 0.039131 0.484419 -0.166580
C148  C     C_R   0.960869 0.217981 0.484419 -0.166580
C149  C     C_R   0.782019 0.039131 0.515581 -0.166580
C150  C     C_R   0.039131 0.217981 0.515581 -0.166581
C151  C     C_R   0.217981 0.960869 0.515581 -0.166581
C152  C     C_R   0.960869 0.782019 0.515581 -0.166580
C153  C     C_R   0.217911 0.460106 0.984714 -0.164648
C154  C     C_R   0.539893 0.217911 0.984714 -0.164648
C155  C     C_R   0.782089 0.539894 0.984714 -0.164647
C156  C     C_R   0.460106 0.782089 0.984714 -0.164648
C157  C     C_R   0.217911 0.539893 0.015286 -0.164647
C158  C     C_R   0.539894 0.782089 0.015286 -0.164649
C159  C     C_R   0.782089 0.460106 0.015286 -0.164648
C160  C     C_R   0.460106 0.217911 0.015286 -0.164647
C161  C     C_R   0.717911 0.960106 0.484714 -0.164648
C162  C     C_R   0.039893 0.717911 0.484714 -0.164648
C163  C     C_R   0.282089 0.039893 0.484714 -0.164647
C164  C     C_R   0.960106 0.282089 0.484714 -0.164648
C165  C     C_R   0.717911 0.039893 0.515286 -0.164648
C166  C     C_R   0.039893 0.282089 0.515286 -0.164648
C167  C     C_R   0.282089 0.960106 0.515286 -0.164649
C168  C     C_R   0.960106 0.717911 0.515286 -0.164647
C169  C     C_R   0.185820 0.500000 0.000000 -0.011939
C170  C     C_R   0.500000 0.185820 0.000000 -0.011939
C171  C     C_R   0.814180 0.500000 0.000000 -0.011939
C172  C     C_R   0.500000 0.814180 0.000000 -0.011939
C173  C     C_R   0.685820 0.000000 0.500000 -0.011939
C174  C     C_R   0.000000 0.685820 0.500000 -0.011939
C175  C     C_R   0.314180 0.000000 0.500000 -0.011939
C176  C     C_R   0.000000 0.314180 0.500000 -0.011939
C177  C     C_R   0.314115 0.500000 0.000000 -0.016373
C178  C     C_R   0.500000 0.314115 0.000000 -0.016373
C179  C     C_R   0.685885 0.500000 0.000000 -0.016373
C180  C     C_R   0.500000 0.685885 0.000000 -0.016373
C181  C     C_R   0.814115 0.000000 0.500000 -0.016373
C182  C     C_R   0.000000 0.814115 0.500000 -0.016373
C183  C     C_R   0.185885 0.000000 0.500000 -0.016373
C184  C     C_R   1.000000 0.185885 0.500000 -0.016373
C185  C     C_R   0.000000 0.500000 0.046332 0.808209
C186  C     C_R   0.500000 0.000000 0.046332 0.808209
C187  C     C_R   1.000000 0.500000 0.953668 0.808210
C188  C     C_R   0.500000 0.000000 0.953668 0.808210
C189  C     C_R   0.500000 0.000000 0.546332 0.808209
C190  C     C_R   0.000000 0.500000 0.546332 0.808209
C191  C     C_R   0.500000 0.000000 0.453668 0.808211
C192  C     C_R   0.000000 0.500000 0.453668 0.808210
C193  C     C_R   0.118929 0.500000 0.000000 0.781968
C194  C     C_R   0.500000 0.118929 0.000000 0.781968
C195  C     C_R   0.881070 0.500000 0.000000 0.781968
C196  C     C_R   0.500000 0.881070 0.000000 0.781968
C197  C     C_R   0.618929 0.000000 0.500000 0.781968
C198  C     C_R   0.000000 0.618929 0.500000 0.781968
C199  C     C_R   0.381070 0.000000 0.500000 0.781968
C200  C     C_R   1.000000 0.381070 0.500000 0.781968
C201  C     C_R   0.958460 0.538904 0.237271 0.042106
C202  C     C_R   0.461095 0.958461 0.237271 0.042106
C203  C     C_R   0.041540 0.461096 0.237271 0.042106
C204  C     C_R   0.538904 0.041539 0.237271 0.042106
C205  C     C_R   0.958462 0.461094 0.762729 0.042106
C206  C     C_R   0.461096 0.041540 0.762729 0.042106
C207  C     C_R   0.041538 0.538906 0.762729 0.042106
C208  C     C_R   0.538904 0.958460 0.762729 0.042106
C209  C     C_R   0.458460 0.038904 0.737271 0.042106
C210  C     C_R   0.961098 0.458459 0.737271 0.042106
C211  C     C_R   0.541540 0.961096 0.737271 0.042106
C212  C     C_R   0.038902 0.541541 0.737271 0.042106
C213  C     C_R   0.458460 0.961097 0.262729 0.042106
C214  C     C_R   0.961096 0.541540 0.262729 0.042106
C215  C     C_R   0.541540 0.038904 0.262729 0.042106
C216  C     C_R   0.038904 0.458460 0.262729 0.042106
Cu1   Cu    Cu3+1 0.500000 0.500000 0.023920 0.975492
Cu2   Cu    Cu3+1 0.500000 0.500000 0.976080 0.975491
Cu3   Cu    Cu3+1 1.000000 0.000000 0.523920 0.975492
Cu4   Cu    Cu3+1 1.000000 0.000000 0.476080 0.975491
Cu5   Cu    Cu3+1 1.000000 0.438240 0.000000 0.973071
Cu6   Cu    Cu3+1 0.561760 0.000000 0.000000 0.973071
Cu7   Cu    Cu3+1 0.000000 0.561760 0.000000 0.973071
Cu8   Cu    Cu3+1 0.438240 0.000000 0.000000 0.973071
Cu9   Cu    Cu3+1 0.500000 0.938240 0.500000 0.973071
Cu10  Cu    Cu3+1 0.061760 0.500000 0.500000 0.973071
Cu11  Cu    Cu3+1 0.500000 0.061760 0.500000 0.973071
Cu12  Cu    Cu3+1 0.938240 0.500000 0.500000 0.973071
H1    H     H_    0.306568 0.430299 0.972383 0.145674
H2    H     H_    0.569701 0.306568 0.972383 0.145674
H3    H     H_    0.693432 0.569701 0.972383 0.145674
H4    H     H_    0.430299 0.693432 0.972383 0.145674
H5    H     H_    0.306568 0.569701 0.027617 0.145674
H6    H     H_    0.569701 0.693432 0.027617 0.145674
H7    H     H_    0.693432 0.430299 0.027617 0.145674
H8    H     H_    0.430299 0.306568 0.027617 0.145674
H9    H     H_    0.806568 0.930299 0.472383 0.145674
H10   H     H_    0.069701 0.806568 0.472383 0.145674
H11   H     H_    0.193432 0.069701 0.472383 0.145674
H12   H     H_    0.930299 0.193432 0.472383 0.145674
H13   H     H_    0.806568 0.069701 0.527617 0.145674
H14   H     H_    0.069701 0.193432 0.527617 0.145674
H15   H     H_    0.193432 0.930299 0.527617 0.145674
H16   H     H_    0.930299 0.806568 0.527617 0.145674
H17   H     H_    0.193356 0.429292 0.972774 0.143175
H18   H     H_    0.570708 0.193356 0.972774 0.143175
H19   H     H_    0.806644 0.570708 0.972774 0.143175
H20   H     H_    0.429292 0.806644 0.972774 0.143175
H21   H     H_    0.193356 0.570708 0.027226 0.143175
H22   H     H_    0.570708 0.806643 0.027226 0.143175
H23   H     H_    0.806643 0.429292 0.027226 0.143175
H24   H     H_    0.429292 0.193356 0.027226 0.143175
H25   H     H_    0.693356 0.929292 0.472774 0.143176
H26   H     H_    0.070708 0.693356 0.472774 0.143175
H27   H     H_    0.306644 0.070708 0.472774 0.143175
H28   H     H_    0.929292 0.306644 0.472774 0.143175
H29   H     H_    0.693356 0.070708 0.527226 0.143175
H30   H     H_    0.070708 0.306644 0.527226 0.143175
H31   H     H_    0.306643 0.929292 0.527226 0.143175
H32   H     H_    0.929292 0.693356 0.527226 0.143175
H33   H     H_    0.880019 0.601425 0.232104 0.144632
H34   H     H_    0.398573 0.880020 0.232104 0.144632
H35   H     H_    0.119981 0.398574 0.232104 0.144632
H36   H     H_    0.601427 0.119980 0.232104 0.144632
H37   H     H_    0.880023 0.398570 0.767895 0.144632
H38   H     H_    0.398575 0.119981 0.767895 0.144632
H39   H     H_    0.119977 0.601430 0.767895 0.144632
H40   H     H_    0.601425 0.880019 0.767895 0.144632
H41   H     H_    0.380019 0.101426 0.732104 0.144632
H42   H     H_    0.898579 0.380015 0.732104 0.144632
H43   H     H_    0.619981 0.898574 0.732104 0.144632
H44   H     H_    0.101421 0.619985 0.732104 0.144632
H45   H     H_    0.380018 0.898576 0.267896 0.144632
H46   H     H_    0.898574 0.619981 0.267896 0.144632
H47   H     H_    0.619982 0.101424 0.267896 0.144632
H48   H     H_    0.101425 0.380019 0.267896 0.144632
H49   H     H_    0.880383 0.599189 0.189566 0.189926
H50   H     H_    0.400810 0.880384 0.189566 0.189926
H51   H     H_    0.119617 0.400811 0.189566 0.189926
H52   H     H_    0.599190 0.119616 0.189566 0.189926
H53   H     H_    0.880387 0.400806 0.810434 0.189926
H54   H     H_    0.400811 0.119617 0.810434 0.189926
H55   H     H_    0.119613 0.599194 0.810434 0.189926
H56   H     H_    0.599189 0.880383 0.810434 0.189926
H57   H     H_    0.380383 0.099189 0.689566 0.189926
H58   H     H_    0.900815 0.380379 0.689566 0.189926
H59   H     H_    0.619617 0.900811 0.689566 0.189926
H60   H     H_    0.099184 0.619621 0.689566 0.189926
H61   H     H_    0.380381 0.900813 0.310434 0.189926
H62   H     H_    0.900811 0.619617 0.310434 0.189926
H63   H     H_    0.619618 0.099187 0.310434 0.189926
H64   H     H_    0.099189 0.380383 0.310434 0.189926
H65   H     H_    0.961832 0.408324 0.075844 0.162831
H66   H     H_    0.408324 0.038167 0.075844 0.162831
H67   H     H_    0.038168 0.591675 0.075844 0.162831
H68   H     H_    0.591675 0.961833 0.075844 0.162831
H69   H     H_    0.038169 0.408325 0.924156 0.162830
H70   H     H_    0.591675 0.038168 0.924156 0.162831
H71   H     H_    0.961830 0.591675 0.924156 0.162830
H72   H     H_    0.408324 0.961832 0.924156 0.162831
H73   H     H_    0.461832 0.908325 0.575844 0.162831
H74   H     H_    0.908324 0.538167 0.575844 0.162831
H75   H     H_    0.538168 0.091675 0.575844 0.162831
H76   H     H_    0.091675 0.461833 0.575844 0.162831
H77   H     H_    0.538166 0.908324 0.424156 0.162831
H78   H     H_    0.091675 0.538168 0.424156 0.162831
H79   H     H_    0.461833 0.091676 0.424156 0.162831
H80   H     H_    0.908325 0.461832 0.424156 0.162831
N1    N     N_R   0.000000 0.500000 0.149124 -0.468140
N2    N     N_R   0.500000 0.000000 0.149124 -0.468140
N3    N     N_R   1.000000 0.500000 0.850876 -0.468140
N4    N     N_R   0.500000 0.000000 0.850876 -0.468140
N5    N     N_R   0.500000 1.000000 0.649124 -0.468140
N6    N     N_R   1.000000 0.500000 0.649124 -0.468140
N7    N     N_R   0.500000 0.000000 0.350876 -0.468140
N8    N     N_R   1.000000 0.500000 0.350876 -0.468140
O1    O     O_R   0.499970 0.409850 0.020200 -0.582296
O2    O     O_R   0.590150 0.499970 0.020200 -0.582296
O3    O     O_R   0.500030 0.590150 0.020200 -0.582296
O4    O     O_R   0.409850 0.500030 0.020200 -0.582296
O5    O     O_R   0.499970 0.590150 0.979800 -0.582297
O6    O     O_R   0.590150 0.500030 0.979800 -0.582297
O7    O     O_R   0.500030 0.409850 0.979800 -0.582296
O8    O     O_R   0.409850 0.499970 0.979800 -0.582296
O9    O     O_R   0.999970 0.909850 0.520200 -0.582296
O10   O     O_R   0.090150 0.999970 0.520200 -0.582296
O11   O     O_R   0.000030 0.090150 0.520200 -0.582296
O12   O     O_R   0.909850 0.000030 0.520200 -0.582296
O13   O     O_R   0.999970 0.090150 0.479800 -0.582297
O14   O     O_R   0.090150 0.000030 0.479800 -0.582297
O15   O     O_R   0.000030 0.909850 0.479800 -0.582296
O16   O     O_R   0.909850 0.999970 0.479800 -0.582296
O17   O     O_R   0.999960 0.447860 0.034930 -0.584374
O18   O     O_R   0.552140 0.999960 0.034930 -0.584375
O19   O     O_R   0.000040 0.552140 0.034930 -0.584375
O20   O     O_R   0.447860 0.000040 0.034930 -0.584374
O21   O     O_R   0.999960 0.552140 0.965070 -0.584374
O22   O     O_R   0.552140 0.000040 0.965070 -0.584374
O23   O     O_R   0.000040 0.447860 0.965070 -0.584374
O24   O     O_R   0.447860 0.999960 0.965070 -0.584374
O25   O     O_R   0.499960 0.947860 0.534930 -0.584374
O26   O     O_R   0.052140 0.499960 0.534930 -0.584375
O27   O     O_R   0.500040 0.052140 0.534930 -0.584375
O28   O     O_R   0.947860 0.500040 0.534930 -0.584374
O29   O     O_R   0.499960 0.052140 0.465070 -0.584375
O30   O     O_R   0.052140 0.500040 0.465070 -0.584374
O31   O     O_R   0.500040 0.947860 0.465070 -0.584374
O32   O     O_R   0.947860 0.499960 0.465070 -0.584374
O33   O     O_R   0.090160 0.447860 0.000070 -0.582417
O34   O     O_R   0.552140 0.090160 0.000070 -0.582418
O35   O     O_R   0.909840 0.552140 0.000070 -0.582418
O36   O     O_R   0.447860 0.909840 0.000070 -0.582417
O37   O     O_R   0.090160 0.552140 0.999930 -0.582417
O38   O     O_R   0.552140 0.909840 0.999930 -0.582417
O39   O     O_R   0.909840 0.447860 0.999930 -0.582417
O40   O     O_R   0.447860 0.090160 0.999930 -0.582417
O41   O     O_R   0.590160 0.947860 0.500070 -0.582417
O42   O     O_R   0.052140 0.590160 0.500070 -0.582418
O43   O     O_R   0.409840 0.052140 0.500070 -0.582417
O44   O     O_R   0.947860 0.409840 0.500070 -0.582417
O45   O     O_R   0.590160 0.052140 0.499930 -0.582418
O46   O     O_R   0.052140 0.409840 0.499930 -0.582417
O47   O     O_R   0.409840 0.947860 0.499930 -0.582417
O48   O     O_R   0.947860 0.590160 0.499930 -0.582417
O49   O     O_2   0.915216 0.567595 0.148815 -0.532508
O50   O     O_2   0.432404 0.915217 0.148815 -0.532508
O51   O     O_2   0.084783 0.432405 0.148815 -0.532508
O52   O     O_2   0.567596 0.084783 0.148815 -0.532508
O53   O     O_2   0.915219 0.432401 0.851185 -0.532508
O54   O     O_2   0.432405 0.084783 0.851185 -0.532508
O55   O     O_2   0.084781 0.567599 0.851185 -0.532508
O56   O     O_2   0.567595 0.915217 0.851185 -0.532508
O57   O     O_2   0.415217 0.067595 0.648815 -0.532508
O58   O     O_2   0.932407 0.415215 0.648815 -0.532508
O59   O     O_2   0.584783 0.932405 0.648815 -0.532508
O60   O     O_2   0.067593 0.584785 0.648815 -0.532508
O61   O     O_2   0.415216 0.932406 0.351185 -0.532508
O62   O     O_2   0.932405 0.584783 0.351185 -0.532508
O63   O     O_2   0.584784 0.067594 0.351185 -0.532508
O64   O     O_2   0.067595 0.415216 0.351185 -0.532508
C217  C     C_1   0.954228 0.395159 0.123009 0.286367
N9    N     N_1   0.935046 0.352572 0.133035 -0.255916
C218  C     C_1   0.395159 0.045772 0.123009 0.286369
N10   N     N_1   0.352572 0.064953 0.133035 -0.255917
C219  C     C_1   0.045772 0.604841 0.123009 0.286367
N11   N     N_1   0.064953 0.647428 0.133035 -0.255916
C220  C     C_1   0.604840 0.954228 0.123009 0.286368
N12   N     N_1   0.647427 0.935047 0.133035 -0.255917
C221  C     C_1   0.045774 0.395160 0.876991 0.286369
N13   N     N_1   0.064957 0.352574 0.866965 -0.255917
C222  C     C_1   0.604841 0.045772 0.876991 0.286368
N14   N     N_1   0.647428 0.064953 0.866965 -0.255917
C223  C     C_1   0.954226 0.604840 0.876991 0.286369
N15   N     N_1   0.935043 0.647426 0.866965 -0.255917
C224  C     C_1   0.395159 0.954228 0.876991 0.286367
N16   N     N_1   0.352572 0.935046 0.866965 -0.255916
C225  C     C_1   0.454228 0.895160 0.623009 0.286367
N17   N     N_1   0.435046 0.852573 0.633035 -0.255916
C226  C     C_1   0.895159 0.545771 0.623009 0.286366
N18   N     N_1   0.852572 0.564953 0.633035 -0.255917
C227  C     C_1   0.545772 0.104840 0.623009 0.286367
N19   N     N_1   0.564954 0.147427 0.633035 -0.255916
C228  C     C_1   0.104841 0.454229 0.623009 0.286367
N20   N     N_1   0.147428 0.435047 0.633035 -0.255917
C229  C     C_1   0.545770 0.895159 0.376991 0.286367
N21   N     N_1   0.564952 0.852572 0.366965 -0.255916
C230  C     C_1   0.104840 0.545772 0.376991 0.286367
N22   N     N_1   0.147427 0.564954 0.366965 -0.255916
C231  C     C_1   0.454229 0.104841 0.376991 0.286367
N23   N     N_1   0.435048 0.147428 0.366965 -0.255916
C232  C     C_1   0.895160 0.454228 0.376991 0.286367
N24   N     N_1   0.852572 0.435046 0.366965 -0.255916

loop_
_geom_bond_atom_site_label_1
_geom_bond_atom_site_label_2
_ccdc_geom_bond_type
Cu7   O37   S    
C197  O41   A    
C160  H24   S    
C84   O60   S    
C47   H63   S    
C42   C58   A    
C193  O37   A    
C194  O34   A    
C204  C215  A    
C118  C128  A    
C46   C62   A    
C112  C124  A    
Cu10  O30   S    
Cu8   O20   S    
C22   C38   A    
C114  H74   S    
C154  C170  A    
C191  O31   A    
C2    C90   A    
C13   C211  A    
C157  C169  A    
C4    C96   A    
C154  H18   S    
C100  C116  A    
C136  C181  S    
Cu11  O43   S    
C144  C160  A    
C75   O51   S    
C139  C179  A    
C23   C207  A    
C61   C71   A    
C34   H50   S    
Cu5   O17   S    
C1    C91   A    
C148  H12   S    
C8    N8    S    
C87   O63   S    
C190  O26   A    
Cu2   O5    S    
C167  H31   S    
C142  C158  A    
C41   H57   S    
C104  C232  S    
C2    C92   A    
C174  C198  S    
C91   C107  A    
Cu12  O44   S    
C171  C195  S    
C25   C41   A    
Cu6   O34   S    
C58   C70   A    
C169  C193  S    
C189  O27   A    
Cu6   Cu8   S    
C28   C44   A    
C29   C45   A    
C32   H48   S    
C22   H38   S    
C29   C213  A    
C136  O16   A    
C19   C203  A    
Cu2   O8    S    
C17   C201  A    
C8    C104  A    
C42   H58   S    
C61   C85   A    
C140  C156  A    
C141  C157  A    
C144  C178  A    
C35   C51   A    
C217  N9    T    
C49   C73   A    
C172  C196  S    
C218  N10   T    
C6    C98   A    
C129  C178  S    
C132  O8    A    
C87   N7    A    
C88   O64   S    
C40   H56   S    
Cu10  O42   S    
C103  C231  S    
C105  H65   S    
C157  H21   S    
C133  O9    A    
C90   C218  S    
C152  H16   S    
C93   C221  S    
C155  H19   S    
C223  N15   T    
C191  O29   A    
C58   C82   A    
C99   C227  S    
Cu3   O11   S    
C19   C35   A    
C229  N21   T    
C20   H36   S    
C47   C63   A    
C158  C172  A    
C145  C161  A    
C151  C167  A    
C110  H70   S    
C23   H39   S    
C140  C180  A    
C3    C95   A    
C165  H29   S    
C221  N13   T    
Cu7   O19   S    
C9    C65   A    
C201  C214  A    
C98   C114  A    
C159  H23   S    
Cu7   O21   S    
C92   C220  S    
C141  H5    S    
C185  O17   A    
C105  C121  A    
C45   H61   S    
Cu5   O33   S    
C231  N23   T    
C25   H41   S    
Cu4   O13   S    
C130  O6    A    
Cu9   O47   S    
C27   H43   S    
C28   H44   S    
C35   H51   S    
C21   C205  A    
Cu10  O46   S    
C162  H26   S    
C163  C175  A    
C227  N19   T    
C198  O48   A    
C168  C174  A    
C12   C68   A    
C97   C225  S    
C119  H79   S    
Cu3   O12   S    
Cu8   O40   S    
C79   N3    A    
C50   C74   A    
C114  C126  A    
C196  O38   A    
C122  C186  S    
C31   C215  A    
C116  H76   S    
C226  N18   T    
C150  C166  A    
C145  C181  A    
C147  C183  A    
C22   C206  A    
C7    N7    S    
C126  C190  S    
C92   C108  A    
C142  C180  A    
C146  H10   S    
Cu5   O23   S    
Cu1   O2    S    
C73   O49   S    
C143  C179  A    
C36   C52   A    
C43   C59   A    
C37   C53   A    
C7    C103  A    
C11   C207  A    
C101  C229  S    
C10   C66   A    
Cu1   O3    S    
Cu6   O38   S    
C173  C197  S    
C148  C164  A    
C13   C209  A    
C138  H2    S    
C149  C165  A    
C3    C93   A    
C194  O40   A    
C124  C188  S    
C192  O32   A    
C109  C123  A    
C150  C184  A    
Cu1   Cu2   S    
C56   C68   A    
C151  H15   S    
C156  C172  A    
C127  C191  S    
C128  C192  S    
C6    C100  A    
C16   C214  A    
C98   C226  S    
C18   C34   A    
C139  C155  A    
Cu4   O14   S    
Cu2   O6    S    
C106  C122  A    
C193  O33   A    
C26   C210  A    
C163  H27   S    
C175  C199  S    
Cu4   O15   S    
C76   N2    A    
C77   N3    A    
C5    C97   A    
C78   N4    A    
Cu12  O48   S    
C37   H53   S    
C26   C42   A    
C167  C175  A    
C18   H34   S    
C83   N5    A    
C199  O43   A    
C200  O44   A    
Cu3   O10   S    
C84   N6    A    
C30   C46   A    
C52   C76   A    
C133  O15   A    
C139  H3    S    
C131  C180  S    
C85   O61   S    
C15   C213  A    
C147  H11   S    
Cu10  Cu12  S    
C56   C80   A    
C102  C230  S    
C158  H22   S    
C147  C163  A    
C225  N17   T    
C138  C154  A    
C13   C69   A    
C205  C210  A    
C77   O53   S    
Cu9   Cu11  S    
Cu1   O4    S    
C53   C67   A    
C32   C216  A    
C135  O13   A    
C7    C101  A    
C89   C105  A    
C31   C47   A    
C11   C205  A    
C54   C78   A    
C93   C109  A    
C119  C127  A    
C198  O42   A    
Cu8   O24   S    
C131  O3    A    
C14   C70   A    
C132  O4    A    
C16   C72   A    
C31   H47   S    
C164  H28   S    
C146  C162  A    
C112  H72   S    
C159  C171  A    
C141  C177  A    
C166  H30   S    
C129  O7    A    
C59   C83   A    
C99   C115  A    
C107  H67   S    
C48   C64   A    
C33   C49   A    
C51   C65   A    
C16   C216  A    
C36   H52   S    
C10   C204  A    
C110  C124  A    
C26   H42   S    
C39   C55   A    
C5    C99   A    
C40   C56   A    
C153  H17   S    
C73   N1    A    
C192  O30   A    
Cu9   O25   S    
C24   H40   S    
C149  C181  A    
C32   C48   A    
Cu12  O28   S    
C196  O36   A    
C17   C33   A    
C176  C200  S    
C152  C168  A    
C187  O23   A    
C146  C182  A    
C111  C123  A    
C203  C216  A    
C20   C204  A    
C137  H1    S    
C156  H20   S    
Cu3   Cu4   S    
C170  C194  S    
C144  H8    S    
C188  O22   A    
C94   C110  A    
C12   C206  A    
C53   C77   A    
C48   H64   S    
C30   C214  A    
C140  H4    S    
C161  C173  A    
C6    N6    S    
C38   C54   A    
C195  O39   A    
C54   C68   A    
C96   C224  S    
C18   C202  A    
C89   C217  S    
C151  C183  A    
C117  C127  A    
C90   C106  A    
C63   C71   A    
C9    C201  A    
C15   C215  A    
C117  H77   S    
C30   H46   S    
C111  H71   S    
C59   C69   A    
C136  O12   A    
C107  C121  A    
C152  C182  A    
C81   O57   S    
C52   C66   A    
Cu11  O29   S    
C219  N11   T    
C83   O59   S    
C1    N1    S    
C3    N3    S    
C80   O56   S    
C85   N7    A    
C224  N16   T    
C120  C128  A    
C86   N8    A    
C28   C212  A    
C15   C71   A    
C14   C212  A    
C101  C117  A    
C195  O35   A    
C80   N4    A    
C168  H32   S    
C41   C57   A    
C4    N4    S    
C44   C60   A    
C208  C211  A    
C45   C61   A    
C24   C208  A    
C164  C176  A    
C76   O52   S    
C202  C213  A    
C17   H33   S    
C95   C223  S    
C38   H54   S    
C19   H35   S    
C20   C36   A    
C27   C43   A    
C150  H14   S    
C21   C37   A    
Cu12  O32   S    
C113  H73   S    
C153  C169  A    
C232  N24   T    
C134  O10   A    
Cu1   O1    S    
C115  H75   S    
C64   C88   A    
C187  O21   A    
C104  C120  A    
C129  O1    A    
C228  N20   T    
C134  C183  S    
C161  H25   S    
C94   C222  S    
C108  H68   S    
C222  N14   T    
C33   H49   S    
C96   C112  A    
C49   C65   A    
C12   C208  A    
C51   C75   A    
C188  O24   A    
C113  C125  A    
C186  O18   A    
C165  C173  A    
C88   N8    A    
C55   C79   A    
C46   H62   S    
C143  H7    S    
Cu5   O39   S    
C9    C203  A    
Cu9   O41   S    
C130  O2    A    
C39   H55   S    
Cu8   O36   S    
C145  H9    S    
C74   O50   S    
C230  N22   T    
Cu9   O31   S    
C91   C219  S    
C186  O20   A    
C185  O19   A    
Cu4   O16   S    
C21   H37   S    
C132  C177  S    
Cu6   O22   S    
C116  C126  A    
Cu11  O27   S    
C135  C184  S    
C106  H66   S    
C11   C67   A    
C43   H59   S    
C135  O11   A    
C44   H60   S    
C34   C50   A    
C14   C210  A    
C137  C153  A    
Cu3   O9    S    
C75   N1    A    
C74   N2    A    
C79   O55   S    
C10   C202  A    
Cu6   O18   S    
C60   C70   A    
C148  C184  A    
C27   C211  A    
C120  H80   S    
C62   C72   A    
C25   C209  A    
C50   C66   A    
C131  O5    A    
C82   O58   S    
C4    C94   A    
C109  H69   S    
C199  O47   A    
C207  C212  A    
Cu11  O45   S    
C57   C81   A    
C100  C228  S    
C97   C113  A    
C138  C178  A    
C62   C86   A    
C81   N5    A    
C197  O45   A    
C1    C89   A    
C29   H45   S    
C63   C87   A    
C190  O28   A    
C103  C119  A    
Cu2   O7    S    
C108  C122  A    
C102  C118  A    
C86   O62   S    
C55   C67   A    
C134  O14   A    
C162  C174  A    
C5    N5    S    
C166  C176  A    
C115  C125  A    
Cu10  O26   S    
Cu5   Cu7   S    
C95   C111  A    
C60   C84   A    
C206  C209  A    
C78   O54   S    
C189  O25   A    
C82   N6    A    
C23   C39   A    
C118  H78   S    
C24   C40   A    
C200  O46   A    
C143  C159  A    
C64   C72   A    
C123  C187  S    
C130  C179  S    
C121  C185  S    
C155  C171  A    
C133  C182  S    
C142  H6    S    
C137  C177  A    
C149  H13   S    
C2    N2    S    
C160  C170  A    
C125  C189  S    
C57   C69   A    
C8    C102  A    
Cu7   O35   S    
C220  N12   T    
