data_mof_unit_59769.cif
_audit_creation_date              2012-12-11T14:52:23-0500
_audit_creation_method            fapswitch 2.2
_symmetry_space_group_name_H-M    P1
_symmetry_Int_Tables_number       1
_space_group_crystal_system       triclinic
_cell_length_a                    19.196366
_cell_length_b                    11.001319
_cell_length_c                    18.706424
_cell_angle_alpha                 90.000058
_cell_angle_beta                  89.947637
_cell_angle_gamma                 89.999579
_cell_volume                      3950.52097509

loop_
_atom_site_label
_atom_site_type_symbol
_atom_type_description
_atom_site_fract_x
_atom_site_fract_y
_atom_site_fract_z
_atom_type_partial_charge
C1    C     C_R   0.271268 0.045362 0.852794 0.521634
C2    C     C_R   0.728731 0.045360 0.147203 0.521654
C3    C     C_R   0.771268 0.545362 0.852795 0.521651
C4    C     C_R   0.228732 0.545363 0.147204 0.521631
C5    C     C_3   0.518028 0.725436 0.963161 -0.108064
C6    C     C_3   0.481946 0.725441 0.036846 -0.108018
C7    C     C_3   0.018042 0.225430 0.963160 -0.108004
C8    C     C_3   0.981958 0.225432 0.036842 -0.108073
C9    C     C_R   0.302297 0.529639 0.961039 -0.148986
C10   C     C_R   0.697693 0.529675 0.038956 -0.148963
C11   C     C_R   0.802300 0.029650 0.961041 -0.148955
C12   C     C_R   0.197701 0.029647 0.038960 -0.148973
C13   C     C_R   0.301301 0.529212 0.035964 -0.159309
C14   C     C_R   0.698695 0.529224 0.964032 -0.159313
C15   C     C_R   0.801300 0.029209 0.035965 -0.159316
C16   C     C_R   0.198702 0.029199 0.964036 -0.159322
C17   C     C_R   0.244796 0.581051 0.073044 0.010558
C18   C     C_R   0.755204 0.581051 0.926953 0.010488
C19   C     C_R   0.744795 0.081048 0.073045 0.010476
C20   C     C_R   0.255208 0.081034 0.926956 0.010582
C21   C     C_R   0.190444 0.634947 0.033665 -0.143392
C22   C     C_R   0.809559 0.634941 0.966333 -0.143384
C23   C     C_R   0.690445 0.134951 0.033667 -0.143382
C24   C     C_R   0.309561 0.134928 0.966333 -0.143374
C25   C     C_R   0.189847 0.630106 0.959996 -0.154486
C26   C     C_R   0.810152 0.630119 0.040002 -0.154466
C27   C     C_R   0.689851 0.130126 0.959998 -0.154464
C28   C     C_R   0.310146 0.130132 0.040001 -0.154504
C29   C     C_R   0.247340 0.583915 0.922455 0.009825
C30   C     C_R   0.752655 0.583935 0.077541 0.009796
C31   C     C_R   0.747344 0.083929 0.922458 0.009797
C32   C     C_R   0.252654 0.083938 0.077541 0.009831
C33   C     C_R   0.512528 0.722159 0.540825 -0.138346
C34   C     C_R   0.514892 0.719995 0.467818 -0.134169
C35   C     C_R   0.984918 0.220028 0.532130 -0.134095
C36   C     C_R   0.987309 0.222220 0.459120 -0.138347
C37   C     C_R   0.511285 0.828535 0.428602 0.036055
C38   C     C_R   0.500204 0.831623 0.576546 0.033409
C39   C     C_R   0.999749 0.331659 0.423428 0.033376
C40   C     C_R   0.988641 0.328528 0.571370 0.036051
C41   C     C_R   0.503918 0.939887 0.464205 -0.148396
C42   C     C_R   0.498313 0.941431 0.538352 -0.145340
C43   C     C_R   0.001710 0.441440 0.461643 -0.145331
C44   C     C_R   0.996099 0.439873 0.535789 -0.148458
C45   C     C_R   0.441179 0.817530 0.863386 0.540993
C46   C     C_R   0.558799 0.817532 0.136616 0.541540
C47   C     C_R   0.941194 0.317531 0.863386 0.541529
C48   C     C_R   0.058801 0.317531 0.136621 0.541055
C49   C     C_R   0.184640 0.588406 0.545388 -0.132930
C50   C     C_R   0.816028 0.588566 0.454345 -0.131554
C51   C     C_R   0.683960 0.088656 0.545650 -0.131525
C52   C     C_R   0.315365 0.088356 0.454603 -0.132931
C53   C     C_R   0.178303 0.584394 0.472623 -0.122618
C54   C     C_R   0.822225 0.584296 0.527167 -0.122671
C55   C     C_R   0.677777 0.084409 0.472826 -0.122679
C56   C     C_R   0.321709 0.084322 0.527368 -0.122614
C57   C     C_R   0.237396 0.566360 0.429765 0.040831
C58   C     C_R   0.763098 0.564772 0.569782 0.040697
C59   C     C_R   0.736899 0.064756 0.430226 0.040680
C60   C     C_R   0.262612 0.066335 0.570230 0.040835
C61   C     C_R   0.302793 0.547793 0.460443 -0.134457
C62   C     C_R   0.698095 0.543591 0.538739 -0.133765
C63   C     C_R   0.801878 0.043420 0.461290 -0.133746
C64   C     C_R   0.197208 0.047806 0.539558 -0.134462
C65   C     C_R   0.309580 0.555544 0.533773 -0.129132
C66   C     C_R   0.691564 0.550738 0.465371 -0.129168
C67   C     C_R   0.808397 0.050548 0.534661 -0.129190
C68   C     C_R   0.190418 0.055562 0.466229 -0.129133
C69   C     C_R   0.250705 0.581484 0.575792 0.033685
C70   C     C_R   0.750093 0.579798 0.423678 0.033841
C71   C     C_R   0.749882 0.079757 0.576335 0.033831
C72   C     C_R   0.249295 0.081475 0.424205 0.033680
C73   C     C_R   0.259144 0.631705 0.849889 0.521936
C74   C     C_R   0.740855 0.631710 0.150109 0.521891
C75   C     C_R   0.759145 0.131709 0.849891 0.521885
C76   C     C_R   0.240855 0.131712 0.150108 0.521941
C77   C     C_R   0.273802 0.041732 0.644429 0.550462
C78   C     C_R   0.725987 0.041164 0.355821 0.550100
C79   C     C_R   0.774011 0.541170 0.644183 0.550090
C80   C     C_R   0.226201 0.541741 0.355569 0.550457
C81   C     C_R   0.471172 0.823755 0.647837 0.555567
C82   C     C_R   0.531531 0.823121 0.354042 0.555326
C83   C     C_R   0.968448 0.323117 0.645945 0.555330
C84   C     C_R   0.028820 0.323760 0.352156 0.555567
C85   C     C_R   0.260213 0.634691 0.644926 0.550639
C86   C     C_R   0.739963 0.634282 0.354896 0.550190
C87   C     C_R   0.760032 0.134270 0.645109 0.550190
C88   C     C_R   0.239787 0.134691 0.355074 0.550639
C89   C     C_3   0.482219 0.925058 0.037342 -0.108973
C90   C     C_3   0.517761 0.925053 0.962659 -0.109020
C91   C     C_3   0.982229 0.425050 0.037342 -0.109039
C92   C     C_3   0.017775 0.425048 0.962662 -0.108966
C93   C     C_3   0.432437 0.825232 0.011887 -0.007162
C94   C     C_3   0.567540 0.825223 0.988117 -0.007258
C95   C     C_3   0.932450 0.325223 0.011884 -0.007272
C96   C     C_3   0.067553 0.325216 0.988120 -0.007148
C97   C     C_3   0.467967 0.824990 0.937517 0.050026
C98   C     C_3   0.532010 0.824992 0.062487 0.049675
C99   C     C_3   0.967982 0.324987 0.937516 0.049673
C100  C     C_3   0.032019 0.324984 0.062487 0.050036
Cr1   Cr    Cr6+3 0.229630 0.835900 0.747350 1.007882
Cr2   Cr    Cr6+3 0.770370 0.835900 0.252650 1.006367
Cr3   Cr    Cr6+3 0.729630 0.335900 0.747350 1.006368
Cr4   Cr    Cr6+3 0.270370 0.335900 0.252650 1.007878
Cr5   Cr    Cr6+3 0.387410 0.989850 0.750850 1.006000
Cr6   Cr    Cr6+3 0.612590 0.989850 0.249150 1.006873
Cr7   Cr    Cr6+3 0.887410 0.489850 0.750850 1.006874
Cr8   Cr    Cr6+3 0.112590 0.489850 0.249150 1.005998
Cr9   Cr    Cr6+3 0.385800 0.677120 0.749340 1.003882
Cr10  Cr    Cr6+3 0.614200 0.677120 0.250660 1.003413
Cr11  Cr    Cr6+3 0.885800 0.177120 0.749340 1.003416
Cr12  Cr    Cr6+3 0.114200 0.177120 0.250660 1.003891
H1    H     H_    0.138652 0.606577 0.577341 0.127348
H2    H     H_    0.861909 0.608475 0.422595 0.129002
H3    H     H_    0.638083 0.108663 0.577385 0.129009
H4    H     H_    0.361354 0.106504 0.422646 0.127347
H5    H     H_    0.126721 0.593909 0.450157 0.134235
H6    H     H_    0.873708 0.594977 0.549847 0.136877
H7    H     H_    0.626306 0.095210 0.450136 0.136832
H8    H     H_    0.373297 0.093790 0.549832 0.134262
H9    H     H_    0.348242 0.529149 0.427834 0.123546
H10   H     H_    0.652712 0.523213 0.571081 0.119810
H11   H     H_    0.847254 0.022930 0.428962 0.119823
H12   H     H_    0.151756 0.029192 0.572169 0.123567
H13   H     H_    0.361281 0.549892 0.556723 0.136755
H14   H     H_    0.640199 0.542221 0.442084 0.128502
H15   H     H_    0.859746 0.041895 0.557965 0.128412
H16   H     H_    0.138712 0.049938 0.443283 0.136794
H17   H     H_    0.467176 0.007632 0.067822 0.115751
H18   H     H_    0.532807 0.007620 0.932176 0.115675
H19   H     H_    0.967183 0.507621 0.067822 0.115667
H20   H     H_    0.032823 0.507617 0.932182 0.115753
H21   H     H_    0.534168 0.641892 0.934180 0.124808
H22   H     H_    0.465802 0.641904 0.065830 0.124919
H23   H     H_    0.034184 0.141888 0.934179 0.124917
H24   H     H_    0.965814 0.141893 0.065824 0.124801
H25   H     H_    0.347802 0.494773 0.933622 0.128580
H26   H     H_    0.652185 0.494819 0.066372 0.128589
H27   H     H_    0.847805 0.994783 0.933624 0.128585
H28   H     H_    0.152198 0.994779 0.066378 0.128584
H29   H     H_    0.342867 0.483980 0.064625 0.122653
H30   H     H_    0.657128 0.483995 0.935371 0.122572
H31   H     H_    0.842865 0.983971 0.064626 0.122577
H32   H     H_    0.157138 0.983962 0.935376 0.122656
H33   H     H_    0.145361 0.674602 0.059549 0.138869
H34   H     H_    0.854647 0.674584 0.940450 0.138857
H35   H     H_    0.645361 0.174606 0.059552 0.138854
H36   H     H_    0.354647 0.174575 0.940449 0.138874
H37   H     H_    0.146492 0.672504 0.932605 0.131701
H38   H     H_    0.853508 0.672513 0.067393 0.131649
H39   H     H_    0.646498 0.172529 0.932609 0.131654
H40   H     H_    0.353497 0.172543 0.067390 0.131707
H41   H     H_    0.515280 0.635965 0.568752 0.126550
H42   H     H_    0.521885 0.632257 0.442555 0.127737
H43   H     H_    0.977838 0.132306 0.557376 0.127757
H44   H     H_    0.984493 0.136059 0.431169 0.126537
H45   H     H_    0.502919 0.024851 0.434985 0.112734
H46   H     H_    0.489820 0.027171 0.565362 0.114926
H47   H     H_    0.010277 0.527170 0.434652 0.114965
H48   H     H_    0.997177 0.524813 0.565027 0.112725
O1    O     O_R   0.214270 0.709000 0.827470 -0.523721
O2    O     O_R   0.785730 0.709000 0.172530 -0.523744
O3    O     O_R   0.714270 0.209000 0.827470 -0.523747
O4    O     O_R   0.285730 0.209000 0.172530 -0.523727
O5    O     O_R   0.445950 0.919440 0.676520 -0.503898
O6    O     O_R   0.554050 0.919440 0.323480 -0.502807
O7    O     O_R   0.945950 0.419440 0.676520 -0.502806
O8    O     O_R   0.054050 0.419440 0.323480 -0.503907
O9    O     O_R   0.456730 0.717630 0.669840 -0.523997
O10   O     O_R   0.543270 0.717630 0.330160 -0.525365
O11   O     O_R   0.956730 0.217630 0.669840 -0.525355
O12   O     O_R   0.043270 0.217630 0.330160 -0.523980
O13   O     O_R   0.320620 0.625640 0.672920 -0.508889
O14   O     O_R   0.679380 0.625640 0.327080 -0.510377
O15   O     O_R   0.820620 0.125640 0.672920 -0.510382
O16   O     O_R   0.179380 0.125640 0.327080 -0.508883
O17   O     O_3   0.334280 0.834290 0.749180 -0.266146
O18   O     O_3   0.665720 0.834290 0.250820 -0.266998
O19   O     O_3   0.834280 0.334290 0.749180 -0.267009
O20   O     O_3   0.165720 0.334290 0.250820 -0.266132
O21   O     O_R   0.236160 0.958490 0.823130 -0.503589
O22   O     O_R   0.763840 0.958490 0.176870 -0.503507
O23   O     O_R   0.736160 0.458490 0.823130 -0.503509
O24   O     O_R   0.263840 0.458490 0.176870 -0.503583
O25   O     O_R   0.332080 0.075470 0.831280 -0.532683
O26   O     O_R   0.667920 0.075470 0.168720 -0.532605
O27   O     O_R   0.832080 0.575470 0.831280 -0.532613
O28   O     O_R   0.167920 0.575470 0.168720 -0.532672
O29   O     O_R   0.446300 0.918110 0.826620 -0.504415
O30   O     O_R   0.553700 0.918110 0.173380 -0.503292
O31   O     O_R   0.946300 0.418110 0.826620 -0.503277
O32   O     O_R   0.053700 0.418110 0.173380 -0.504446
O33   O     O_R   0.457110 0.716200 0.831760 -0.523763
O34   O     O_R   0.542890 0.716200 0.168240 -0.522342
O35   O     O_R   0.957110 0.216200 0.831760 -0.522321
O36   O     O_R   0.042890 0.216200 0.168240 -0.523796
O37   O     O_R   0.320980 0.624310 0.823030 -0.522295
O38   O     O_R   0.679020 0.624310 0.176970 -0.522249
O39   O     O_R   0.820980 0.124310 0.823030 -0.522252
O40   O     O_R   0.179020 0.124310 0.176970 -0.522286
O41   O     O_R   0.213890 0.710430 0.665540 -0.519233
O42   O     O_R   0.786110 0.710430 0.334460 -0.519857
O43   O     O_R   0.713890 0.210430 0.665540 -0.519863
O44   O     O_R   0.286110 0.210430 0.334460 -0.519230
O45   O     O_R   0.235810 0.959820 0.673020 -0.499802
O46   O     O_R   0.764190 0.959820 0.326980 -0.500594
O47   O     O_R   0.735810 0.459820 0.673020 -0.500577
O48   O     O_R   0.264190 0.459820 0.326980 -0.499804
O49   O     O_R   0.331700 0.076900 0.669350 -0.528615
O50   O     O_R   0.668300 0.076900 0.330650 -0.528668
O51   O     O_R   0.831700 0.576900 0.669350 -0.528673
O52   O     O_R   0.168300 0.576900 0.330650 -0.528619
C101  C     C_3   0.357861 0.826045 0.035881 -0.294328
C102  C     C_3   0.314895 0.827510 0.970029 -0.385562
H49   H     H_    0.330695 0.905034 0.937808 0.162522
H50   H     H_    0.330314 0.750536 0.937358 0.160474
H51   H     H_    0.259104 0.827138 0.982854 0.173435
H52   H     H_    0.346763 0.745289 0.068936 0.157902
H53   H     H_    0.347316 0.906389 0.069498 0.160169
C103  C     C_3   0.642112 0.826032 0.964108 -0.294440
C104  C     C_3   0.685096 0.827522 0.029947 -0.385502
H54   H     H_    0.669309 0.905068 0.062157 0.162496
H55   H     H_    0.669688 0.750568 0.062638 0.160463
H56   H     H_    0.740883 0.827146 0.017099 0.173461
H57   H     H_    0.653207 0.745262 0.931064 0.157771
H58   H     H_    0.652649 0.906355 0.930475 0.160037
C105  C     C_3   0.857878 0.326026 0.035887 -0.294457
C106  C     C_3   0.814899 0.327539 0.970048 -0.385502
H59   H     H_    0.830698 0.405078 0.937844 0.162498
H60   H     H_    0.830300 0.250586 0.937355 0.160455
H61   H     H_    0.759111 0.327169 0.982892 0.173462
H62   H     H_    0.846781 0.245249 0.068923 0.157779
H63   H     H_    0.847341 0.406344 0.069526 0.160042
C107  C     C_3   0.142125 0.326024 0.964120 -0.294361
C108  C     C_3   0.185097 0.327546 0.029959 -0.385617
H64   H     H_    0.169299 0.405090 0.062155 0.162561
H65   H     H_    0.169695 0.250599 0.062655 0.160477
H66   H     H_    0.240882 0.327174 0.017125 0.173435
H67   H     H_    0.153223 0.245245 0.931093 0.157925
H68   H     H_    0.152664 0.406336 0.930478 0.160166

loop_
_geom_bond_atom_site_label_1
_geom_bond_atom_site_label_2
_ccdc_geom_bond_type
C58   C62   A    
C49   H1    S    
C82   O10   A    
C48   O36   A    
C55   C59   A    
C81   O5    A    
Cr10  O38   S    
C34   C37   A    
C56   H8    S    
C41   C42   A    
C14   C18   A    
Cr9   O13   S    
Cr9   O37   S    
C35   C36   A    
C40   C83   S    
C83   O7    A    
C14   H30   S    
C5    C94   S    
C101  H53   S    
C89   H17   S    
C7    C8    S    
C55   H7    S    
C101  C102  S    
C79   O51   A    
C7    C96   S    
C50   C54   A    
C7    C99   S    
C37   C41   A    
Cr11  O15   S    
C64   C68   A    
C29   C73   S    
C25   H37   S    
C92   H20   S    
C35   H43   S    
C39   C84   S    
C38   C42   A    
C104  H56   S    
C43   H47   S    
C103  H57   S    
C54   C58   A    
C5    C6    S    
C30   C74   S    
C102  H50   S    
C79   O47   A    
Cr3   O19   S    
C8    H24   S    
C94   C98   S    
C95   C99   S    
C2    O26   A    
Cr6   O50   S    
Cr7   O27   S    
C92   C96   S    
C47   C99   S    
Cr8   O20   S    
C3    C18   S    
C61   H9    S    
C2    O22   A    
Cr5   O25   S    
C9    C13   A    
Cr12  O36   S    
C11   H27   S    
C75   O39   A    
Cr11  O39   S    
C9    H25   S    
C22   H34   S    
C83   O11   A    
C32   C76   S    
Cr10  O34   S    
C85   O13   A    
C108  H64   S    
C12   H28   S    
Cr9   O33   S    
C23   C27   A    
C91   C100  S    
Cr3   O43   S    
C86   O42   A    
C90   C97   S    
C67   C71   A    
C85   O41   A    
C77   O45   A    
C80   O52   A    
C68   H16   S    
C52   H4    S    
C105  H62   S    
Cr8   O8    S    
C11   C31   A    
C104  H55   S    
C49   C69   A    
C12   C32   A    
C25   C29   A    
C47   O35   A    
C108  H65   S    
C57   C80   S    
C42   H46   S    
C8    C95   S    
C11   C15   A    
C46   O30   A    
C105  H63   S    
Cr3   O47   S    
C59   C78   S    
C87   O43   A    
C106  H59   S    
Cr8   O52   S    
Cr9   O9    S    
C60   C64   A    
C90   C94   S    
C63   C67   A    
Cr10  O14   S    
C45   O33   A    
C48   C100  S    
Cr7   O7    S    
C60   C77   S    
C59   C63   A    
C62   C66   A    
C93   C101  S    
Cr2   O22   S    
C12   C16   A    
C28   C32   A    
Cr11  O19   S    
Cr6   O26   S    
C15   H31   S    
C76   O40   A    
C91   C92   S    
C74   O2    A    
C53   C57   A    
C102  H49   S    
C39   C43   A    
C51   C55   A    
C64   H12   S    
C27   C31   A    
C1    O21   A    
C89   C93   S    
C88   O44   A    
C74   O38   A    
C66   H14   S    
C46   O34   A    
C73   O37   A    
C68   C72   A    
C86   O14   A    
C65   H13   S    
C15   C19   A    
C43   C44   A    
C78   O46   A    
C7    H23   S    
Cr12  O20   S    
C52   C72   A    
C69   C85   S    
C67   H15   S    
C104  H54   S    
C10   C30   A    
C93   C97   S    
C73   O1    A    
C105  C106  S    
C26   H38   S    
C16   C20   A    
C6    C93   S    
C96   C107  S    
C94   C103  S    
C33   C34   A    
C5    H21   S    
C103  H58   S    
C107  H68   S    
C4    O24   A    
C57   C61   A    
Cr12  O12   S    
Cr2   O46   S    
Cr1   O45   S    
C58   C79   S    
C41   H45   S    
C4    C17   S    
Cr10  O10   S    
C75   O3    A    
C6    C98   S    
C80   O48   A    
C5    C97   S    
C26   C30   A    
C34   H42   S    
C81   O9    A    
C54   H6    S    
C38   C81   S    
C71   C87   S    
C106  H60   S    
C44   H48   S    
C108  H66   S    
Cr3   O23   S    
C37   C82   S    
C76   O4    A    
C21   H33   S    
C107  C108  S    
Cr6   O30   S    
Cr5   O49   S    
Cr12  O16   S    
C70   C86   S    
Cr4   O44   S    
C31   C75   S    
C62   H10   S    
Cr1   O21   S    
Cr2   O2    S    
C36   H44   S    
C82   O6    A    
C45   O29   A    
C65   C69   A    
C21   C25   A    
C1    C20   S    
C27   H39   S    
C16   H32   S    
C2    C19   S    
C18   C22   A    
Cr3   O3    S    
C13   H29   S    
Cr8   O28   S    
C36   C39   A    
C24   C28   A    
Cr5   O17   S    
C84   O12   A    
C102  H51   S    
C3    O27   A    
Cr4   O4    S    
C63   H11   S    
C101  H52   S    
C51   C71   A    
C47   O31   A    
C28   H40   S    
C77   O49   A    
Cr12  O40   S    
C87   O15   A    
C66   C70   A    
Cr7   O19   S    
C33   C38   A    
C88   O16   A    
C13   C17   A    
C89   C98   S    
C72   C88   S    
C1    O25   A    
C4    O28   A    
Cr1   O1    S    
C35   C40   A    
C50   C70   A    
C33   H41   S    
C78   O50   A    
C45   C97   S    
C56   C60   A    
Cr7   O51   S    
C9    C29   A    
C8    C100  S    
Cr4   O20   S    
C23   H35   S    
Cr6   O6    S    
Cr2   O18   S    
C96   C100  S    
Cr5   O29   S    
Cr5   O5    S    
C103  C104  S    
C53   H5    S    
C107  H67   S    
Cr4   O48   S    
C46   C98   S    
C20   C24   A    
C95   C105  S    
C48   O32   A    
C49   C53   A    
Cr1   O17   S    
C51   H3    S    
C91   C95   S    
C10   C14   A    
C90   H18   S    
C61   C65   A    
C19   C23   A    
C40   C44   A    
C91   H19   S    
C84   O8    A    
Cr2   O42   S    
C6    H22   S    
C22   C26   A    
Cr7   O31   S    
Cr9   O17   S    
Cr10  O18   S    
Cr8   O32   S    
Cr4   O24   S    
Cr1   O41   S    
C10   H26   S    
C50   H2    S    
C89   C90   S    
C3    O23   A    
Cr6   O18   S    
C106  H61   S    
C24   H36   S    
C52   C56   A    
C92   C99   S    
Cr11  O35   S    
Cr11  O11   S    
C17   C21   A    
