data_mof_unit_41484.cif
_audit_creation_date              2013-03-05T15:40:48-0500
_audit_creation_method            fapswitch 2.2
_symmetry_space_group_name_H-M    P1
_symmetry_Int_Tables_number       1
_space_group_crystal_system       triclinic
_cell_length_a                    7.872126
_cell_length_b                    8.536537
_cell_length_c                    14.874451
_cell_angle_alpha                 92.499006
_cell_angle_beta                  84.534996
_cell_angle_gamma                 93.767068
_cell_volume                      992.178100559

loop_
_atom_site_label
_atom_site_type_symbol
_atom_site_description
_atom_site_fract_x
_atom_site_fract_y
_atom_site_fract_z
_atom_type_partial_charge
O1    O     O_R   0.389250 0.738570 0.505970 -0.615594
O2    O     O_R   0.610750 0.261430 0.494030 -0.615597
O3    O     O_R   0.678390 0.711620 0.490370 -0.651966
O4    O     O_R   0.321610 0.288380 0.509630 -0.651968
C1    C     C_R   0.545435 0.794291 0.497561 0.993352
C2    C     C_R   0.454565 0.205708 0.502437 0.993328
O5    O     O_R   0.355420 0.513510 0.639950 -0.595086
O6    O     O_R   0.644580 0.486490 0.360050 -0.595089
O7    O     O_R   0.644560 0.486560 0.624350 -0.628526
O8    O     O_R   0.355440 0.513440 0.375650 -0.628524
C3    C     C_R   0.500440 0.501944 0.672481 0.954243
C4    C     C_R   0.499560 0.498056 0.327519 0.954219
Zn1   Zn    Zn3+2 0.306940 0.517990 0.510420 0.986804
Zn2   Zn    Zn3+2 0.693060 0.482010 0.489580 0.986804
C5    C     C_R   0.454569 0.354308 0.185292 0.259947
C6    C     C_R   0.545434 0.645698 0.814708 0.259922
C7    C     C_R   0.499138 0.494630 0.232181 -0.164439
C8    C     C_R   0.500861 0.505375 0.767819 -0.164452
C9    C     C_R   0.541162 0.634765 0.189087 -0.275568
C10   C     C_R   0.458828 0.365243 0.810915 -0.275566
C11   C     C_R   0.540496 0.638156 0.096444 0.136182
C12   C     C_R   0.459490 0.361853 0.903557 0.136186
C13   C     C_R   0.498838 0.498343 0.046934 0.037229
C14   C     C_R   0.501151 0.501666 0.953067 0.037224
C15   C     C_R   0.455525 0.355323 0.091227 0.009884
C16   C     C_R   0.544467 0.644686 0.908774 0.009896
C17   C     C_R   0.580845 0.779316 0.052891 -0.192643
C18   C     C_R   0.419134 0.220694 0.947111 -0.192627
C19   C     C_R   0.582003 0.782958 0.959733 -0.161900
C20   C     C_R   0.417978 0.217053 0.040269 -0.161921
H1    H     H_    0.573390 0.741190 0.228201 0.175746
H2    H     H_    0.426596 0.258817 0.771801 0.175738
H3    H     H_    0.611251 0.887067 0.090968 0.173287
H4    H     H_    0.388721 0.112945 0.909035 0.173273
H5    H     H_    0.611552 0.894678 0.928387 0.196697
H6    H     H_    0.388419 0.105336 0.071618 0.196674
C21   C     C_2   0.569167 0.958100 0.496326 -0.285785
C22   C     C_2   0.430833 0.041900 0.503670 -0.285792
H7    H     H_    0.699871 0.009096 0.489504 0.163106
H8    H     H_    0.300129 0.990904 0.510491 0.163107
N1    N     N_2   0.950330 0.457950 0.475660 -0.026532
N2    N     N_2   0.049670 0.542050 0.524340 -0.026530
N3    N     N_R   0.409525 0.212850 0.233350 0.171157
O9    O     O_R   0.518402 0.155958 0.281794 -0.432679
O10   O     O_R   0.256398 0.145661 0.232701 -0.418800
N4    N     N_R   0.590495 0.787152 0.766647 0.171157
O11   O     O_R   0.481658 0.844013 0.718165 -0.432694
O12   O     O_R   0.743594 0.854397 0.767355 -0.418787
C23   C     C_3   0.004640 0.307083 0.441586 -0.421783
H9    H     H_    0.906774 0.251773 0.399385 0.198472
H10   H     H_    0.124231 0.318940 0.396722 0.237760
H11   H     H_    0.014126 0.228917 0.498376 0.177521
C24   C     C_3   0.995359 0.692916 0.558415 -0.421801
H12   H     H_    0.093226 0.748227 0.600615 0.198467
H13   H     H_    0.985872 0.771082 0.501625 0.177526
H14   H     H_    0.875769 0.681059 0.603280 0.237742

loop_
_geom_bond_atom_site_label_1
_geom_bond_atom_site_label_2
_geom_bond_distance
_ccdc_geom_bond_type
C4    C7    1.417446 S    
O5    C3    1.292815 A    
O7    Zn2   2.003795 S    
C2    C22   1.399251 S    
C3    C8    1.417449 S    
C21   C22   1.335077 D    
C1    C21   1.399252 S    
C17   C19   1.386521 A    
N3    O10   1.301160 A    
N1    N2    1.280631 D    
C19   H5    1.081675 S    
O6    C4    1.292816 A    
N3    O9    1.300986 A    
C23   H11   1.109993 S    
C9    H1    1.086266 S    
C23   H10   1.102537 S    
C18   C20   1.386520 A    
C11   C17   1.396870 A    
C18   H4    1.084249 S    
C21   H7    1.087929 S    
C6    C8    1.401057 A    
C12   C18   1.396872 A    
C24   H12   1.108592 S    
C17   H3    1.084249 S    
C22   H8    1.087929 S    
O7    C3    1.293681 A    
O2    C2    1.285551 A    
O3    Zn2   1.970492 S    
O8    C4    1.293680 A    
Zn2   N1    2.039073 S    
O1    C1    1.285550 A    
N1    C23   1.439602 S    
Zn1   N2    2.039073 S    
C7    C9    1.387752 A    
C10   C12   1.380084 A    
C8    C10   1.387751 A    
C24   H13   1.109991 S    
C11   C13   1.411489 A    
C6    C16   1.398881 A    
O2    Zn2   1.952500 S    
C12   C14   1.411489 A    
N2    C24   1.439603 S    
C5    C15   1.398870 A    
O1    Zn1   1.952499 S    
C13   C14   1.396094 A    
C5    N3    1.437248 S    
N4    O12   1.301219 A    
O5    Zn1   2.001909 S    
C13   C15   1.418999 A    
C16   C19   1.404970 A    
O4    C2    1.293868 A    
C23   H9    1.108591 S    
C10   H2    1.086267 S    
C24   H14   1.102538 S    
C6    N4    1.437258 S    
C15   C20   1.404963 A    
C5    C7    1.401048 A    
N4    O11   1.300986 A    
O6    Zn2   2.001910 S    
C9    C11   1.380087 A    
O4    Zn1   1.970494 S    
C14   C16   1.419002 A    
O3    C1    1.293869 A    
O8    Zn1   2.003796 S    
C20   H6    1.081675 S    
