data_mof_unit_16977.cif
_audit_creation_date              2012-12-10T19:47:53-0500
_audit_creation_method            fapswitch 2.2
_symmetry_space_group_name_H-M    P1
_symmetry_Int_Tables_number       1
_space_group_crystal_system       triclinic
_cell_length_a                    18.235173
_cell_length_b                    18.235171
_cell_length_c                    21.706868
_cell_angle_alpha                 90.000081
_cell_angle_beta                  90.000035
_cell_angle_gamma                 89.999989
_cell_volume                      7218.00026141

loop_
_atom_site_label
_atom_site_type_symbol
_atom_type_description
_atom_site_fract_x
_atom_site_fract_y
_atom_site_fract_z
_atom_type_partial_charge
C1    C     C_R   0.000000 0.358710 0.000000 0.916574
C2    C     C_1   0.282222 0.000000 0.000000 -0.221980
C3    C     C_3   0.285408 0.174702 0.813718 -0.454571
C4    C     C_3   0.261635 0.142610 0.876201 -0.350977
C5    C     C_3   0.192394 0.180081 0.900199 -0.824353
C6    C     C_3   0.174702 0.714592 0.813718 -0.454571
C7    C     C_3   0.142610 0.738364 0.876202 -0.350978
C8    C     C_3   0.180082 0.807605 0.900200 -0.824351
C9    C     C_3   0.714591 0.825298 0.813718 -0.454574
C10   C     C_3   0.738365 0.857390 0.876201 -0.350980
C11   C     C_3   0.807606 0.819919 0.900200 -0.824354
C12   C     C_3   0.825297 0.714591 0.186282 -0.454573
C13   C     C_1   1.000000 0.717778 1.000000 -0.221980
C14   C     C_3   0.857391 0.738365 0.123799 -0.350980
C15   C     C_3   0.819919 0.807606 0.099802 -0.824355
C16   C     C_3   0.285408 0.825298 0.186282 -0.454573
C17   C     C_3   0.261632 0.857393 0.123800 -0.350980
C18   C     C_3   0.192390 0.819922 0.099803 -0.824349
C19   C     C_3   0.174702 0.285408 0.186282 -0.454572
C20   C     C_3   0.142608 0.261634 0.123799 -0.350978
C21   C     C_3   0.180080 0.192392 0.099801 -0.824352
C22   C     C_3   0.714591 0.174704 0.186283 -0.454567
C23   C     C_3   0.738349 0.142626 0.123790 -0.350974
C24   C     C_1   0.717778 0.000000 1.000000 -0.221982
C25   C     C_3   0.807586 0.180102 0.099788 -0.824368
C26   C     C_3   0.325298 0.785408 0.313718 -0.454572
C27   C     C_3   0.357393 0.761633 0.376200 -0.350979
C28   C     C_3   0.319922 0.692391 0.400197 -0.824349
C29   C     C_3   0.785408 0.674702 0.313718 -0.454574
C30   C     C_3   0.761633 0.642608 0.376200 -0.350980
C31   C     C_3   0.692392 0.680079 0.400198 -0.824352
C32   C     C_3   0.674701 0.214593 0.313717 -0.454568
C33   C     C_3   0.642626 0.238348 0.376212 -0.350974
C34   C     C_3   0.680100 0.307586 0.400214 -0.824367
C35   C     C_1   0.500000 0.782222 0.500000 -0.221980
C36   C     C_3   0.214592 0.325298 0.313718 -0.454571
C37   C     C_3   0.238366 0.357392 0.376201 -0.350979
C38   C     C_3   0.307608 0.319921 0.400198 -0.824349
C39   C     C_3   0.325298 0.214592 0.686282 -0.454571
C40   C     C_3   0.357391 0.238365 0.623799 -0.350977
C41   C     C_3   0.319920 0.307606 0.599801 -0.824351
C42   C     C_3   0.785410 0.325297 0.686281 -0.454579
C43   C     C_3   0.761616 0.357409 0.623810 -0.350986
C44   C     C_3   0.692371 0.319941 0.599817 -0.824340
C45   C     C_3   0.674703 0.785409 0.686282 -0.454572
C46   C     C_1   0.782222 0.500000 0.500000 -0.221978
C47   C     C_3   0.642610 0.761635 0.623799 -0.350979
C48   C     C_3   0.680082 0.692394 0.599801 -0.824353
C49   C     C_3   0.214591 0.674702 0.686282 -0.454571
C50   C     C_3   0.238363 0.642611 0.623798 -0.350978
C51   C     C_3   0.307604 0.680083 0.599800 -0.824352
C52   C     C_1   0.500000 0.217778 0.500000 -0.221982
C53   C     C_1   0.217778 0.500000 0.500000 -0.221981
C54   C     C_R   1.000000 0.500000 0.879818 0.872972
C55   C     C_R   0.500000 1.000000 0.879818 0.872972
C56   C     C_R   0.000000 0.500000 0.120182 0.872972
C57   C     C_R   0.358710 0.000000 0.000000 0.916577
C58   C     C_R   0.500000 0.000000 0.120182 0.872972
C59   C     C_R   0.500000 1.000000 0.379817 0.872973
C60   C     C_R   1.000000 0.500000 0.379817 0.872972
C61   C     C_R   0.500000 1.000000 0.620182 0.872972
C62   C     C_R   1.000000 0.500000 0.620182 0.872972
C63   C     C_R   0.083205 0.607851 0.812143 -0.190936
C64   C     C_R   0.607851 0.916794 0.812143 -0.190936
C65   C     C_R   0.916795 0.392149 0.812143 -0.190940
C66   C     C_R   0.392149 0.083205 0.812143 -0.190936
C67   C     C_R   0.083205 0.392149 0.187857 -0.190937
C68   C     C_R   1.000000 0.641290 1.000000 0.916577
C69   C     C_R   0.607850 0.083206 0.187857 -0.190932
C70   C     C_R   0.916794 0.607850 0.187857 -0.190936
C71   C     C_R   0.392149 0.916794 0.187857 -0.190937
C72   C     C_R   0.583205 0.107851 0.312143 -0.190931
C73   C     C_R   0.107851 0.416794 0.312143 -0.190937
C74   C     C_R   0.416795 0.892149 0.312143 -0.190937
C75   C     C_R   0.892149 0.583205 0.312143 -0.190936
C76   C     C_R   0.583206 0.892149 0.687857 -0.190936
C77   C     C_R   0.107851 0.583205 0.687857 -0.190935
C78   C     C_R   0.416795 0.107851 0.687857 -0.190936
C79   C     C_R   0.641290 0.000000 1.000000 0.916579
C80   C     C_R   0.892149 0.416794 0.687857 -0.190941
C81   C     C_R   0.135066 0.651684 0.781142 0.117007
C82   C     C_R   0.651684 0.864934 0.781142 0.117007
C83   C     C_R   0.864935 0.348315 0.781142 0.117011
C84   C     C_R   0.348316 0.135066 0.781142 0.117007
C85   C     C_R   0.135066 0.348315 0.218858 0.117007
C86   C     C_R   0.651683 0.135067 0.218858 0.117003
C87   C     C_R   0.864933 0.651684 0.218858 0.117007
C88   C     C_R   0.348315 0.864934 0.218858 0.117007
C89   C     C_R   0.635066 0.151684 0.281143 0.117004
C90   C     C_R   0.500000 0.858710 0.500000 0.916577
C91   C     C_R   0.151684 0.364934 0.281142 0.117007
C92   C     C_R   0.364934 0.848315 0.281142 0.117007
C93   C     C_R   0.848315 0.635066 0.281142 0.117007
C94   C     C_R   0.635066 0.848316 0.718858 0.117007
C95   C     C_R   0.151684 0.635066 0.718858 0.117006
C96   C     C_R   0.364934 0.151684 0.718858 0.117007
C97   C     C_R   0.848315 0.364934 0.718858 0.117011
C98   C     C_R   0.140913 0.000000 0.000000 0.916013
C99   C     C_R   0.000000 0.859086 1.000000 0.916014
C100  C     C_R   0.859086 0.000000 1.000000 0.916019
C101  C     C_R   0.858710 0.500000 0.500000 0.916574
C102  C     C_R   0.000000 0.140913 0.000000 0.916007
C103  C     C_R   0.640913 0.500000 0.500000 0.916007
C104  C     C_R   0.500000 0.359086 0.500000 0.916020
C105  C     C_R   0.359086 0.500000 0.500000 0.916014
C106  C     C_R   0.500000 0.640914 0.500000 0.916013
C107  C     C_R   0.050918 0.544756 0.718136 0.037287
C108  C     C_R   0.544757 0.949081 0.718136 0.037287
C109  C     C_R   0.949081 0.455243 0.718136 0.037288
C110  C     C_R   0.455243 0.050918 0.718136 0.037288
C111  C     C_R   0.050918 0.455243 0.281864 0.037288
C112  C     C_R   0.500000 0.141290 0.500000 0.916579
C113  C     C_R   0.544756 0.050919 0.281864 0.037287
C114  C     C_R   0.949081 0.544756 0.281864 0.037287
C115  C     C_R   0.455243 0.949081 0.281864 0.037288
C116  C     C_R   0.550918 0.044757 0.218136 0.037287
C117  C     C_R   0.044756 0.449081 0.218136 0.037288
C118  C     C_R   0.449081 0.955243 0.218136 0.037288
C119  C     C_R   0.955243 0.550918 0.218136 0.037288
C120  C     C_R   0.550919 0.955243 0.781864 0.037287
C121  C     C_R   0.044756 0.550918 0.781864 0.037287
C122  C     C_R   0.449081 0.044756 0.781864 0.037287
C123  C     C_R   0.141290 0.500000 0.500000 0.916577
C124  C     C_R   0.955243 0.449081 0.781864 0.037288
C125  C     C_R   1.000000 0.500000 0.686364 -0.167598
C126  C     C_R   0.500000 1.000000 0.686364 -0.167598
C127  C     C_R   1.000000 0.500000 0.313636 -0.167598
C128  C     C_R   0.500000 1.000000 0.313636 -0.167598
C129  C     C_R   0.500000 1.000000 0.186364 -0.167598
C130  C     C_R   0.000000 0.500000 0.186364 -0.167598
C131  C     C_R   0.500000 1.000000 0.813636 -0.167598
C132  C     C_R   1.000000 0.500000 0.813636 -0.167598
C133  C     C_1   0.000000 0.217399 0.000000 -0.204047
C134  C     C_1   0.000000 0.282222 0.000000 -0.221978
C135  C     C_1   0.217399 0.000000 0.000000 -0.204048
C136  C     C_1   0.000000 0.782601 1.000000 -0.204048
C137  C     C_1   0.782601 0.000000 1.000000 -0.204049
C138  C     C_1   0.500000 0.717399 0.500000 -0.204048
C139  C     C_1   0.717399 0.500000 0.500000 -0.204046
C140  C     C_1   0.500000 0.282601 0.500000 -0.204049
C141  C     C_1   0.282601 0.500000 0.500000 -0.204048
C142  C     C_3   0.825299 0.285408 0.813718 -0.454576
C143  C     C_3   0.857409 0.261618 0.876191 -0.350983
C144  C     C_3   0.819941 0.192372 0.900184 -0.824332
H1    H     H_    0.072057 0.618576 0.860008 0.149925
H2    H     H_    0.118576 0.427943 0.360008 0.149925
H3    H     H_    0.263297 0.326966 0.282974 0.206914
H4    H     H_    0.260299 0.297819 0.593279 0.256336
H5    H     H_    0.327901 0.353775 0.632506 0.261763
H6    H     H_    0.344239 0.323253 0.554844 0.242118
H7    H     H_    0.417006 0.249777 0.628750 0.231120
H8    H     H_    0.349338 0.194117 0.589238 0.233011
H9    H     H_    0.266952 0.198983 0.679478 0.200513
H10   H     H_    0.326968 0.263297 0.717026 0.206914
H11   H     H_    0.702161 0.260325 0.593276 0.256333
H12   H     H_    0.646212 0.327905 0.632534 0.261757
H13   H     H_    0.427943 0.881423 0.360008 0.149925
H14   H     H_    0.676707 0.344278 0.554870 0.242122
H15   H     H_    0.750202 0.417021 0.628779 0.231125
H16   H     H_    0.805854 0.349371 0.589239 0.233009
H17   H     H_    0.801029 0.266956 0.679459 0.200513
H18   H     H_    0.736710 0.326944 0.717032 0.206918
H19   H     H_    0.739702 0.702181 0.593279 0.256337
H20   H     H_    0.672100 0.646226 0.632506 0.261763
H21   H     H_    0.655762 0.676746 0.554843 0.242117
H22   H     H_    0.582995 0.750223 0.628750 0.231121
H23   H     H_    0.650663 0.805882 0.589238 0.233012
H24   H     H_    0.881423 0.572057 0.360008 0.149925
H25   H     H_    0.733049 0.801018 0.679477 0.200514
H26   H     H_    0.673033 0.736703 0.717026 0.206915
H27   H     H_    0.297817 0.739703 0.593279 0.256337
H28   H     H_    0.353773 0.672101 0.632504 0.261763
H29   H     H_    0.323250 0.655764 0.554842 0.242117
H30   H     H_    0.249776 0.582996 0.628749 0.231120
H31   H     H_    0.194115 0.650664 0.589238 0.233012
H32   H     H_    0.198983 0.733049 0.679479 0.200514
H33   H     H_    0.263297 0.673031 0.717025 0.206914
H34   H     H_    0.572057 0.881424 0.639992 0.149925
H35   H     H_    0.118576 0.572056 0.639992 0.149924
H36   H     H_    0.427943 0.118577 0.639992 0.149924
H37   H     H_    0.881424 0.427941 0.639992 0.149928
H38   H     H_    0.760324 0.202162 0.906723 0.256331
H39   H     H_    0.827909 0.146212 0.867468 0.261757
H40   H     H_    0.844276 0.176711 0.945133 0.242120
H41   H     H_    0.618576 0.927943 0.860008 0.149925
H42   H     H_    0.917022 0.250204 0.871225 0.231124
H43   H     H_    0.849368 0.305856 0.910761 0.233008
H44   H     H_    0.766957 0.301025 0.820538 0.200512
H45   H     H_    0.826950 0.236708 0.782968 0.206917
H46   H     H_    0.202181 0.239702 0.906721 0.256336
H47   H     H_    0.146226 0.172100 0.867494 0.261762
H48   H     H_    0.176747 0.155761 0.945156 0.242118
H49   H     H_    0.250223 0.082995 0.871250 0.231120
H50   H     H_    0.305883 0.150662 0.910762 0.233011
H51   H     H_    0.301017 0.233049 0.820523 0.200513
H52   H     H_    0.927942 0.381423 0.860008 0.149928
H53   H     H_    0.236703 0.173033 0.782974 0.206914
H54   H     H_    0.239703 0.797819 0.906721 0.256336
H55   H     H_    0.172098 0.853774 0.867496 0.261763
H56   H     H_    0.155763 0.823251 0.945159 0.242117
H57   H     H_    0.082995 0.749775 0.871252 0.231120
H58   H     H_    0.150665 0.694116 0.910762 0.233011
H59   H     H_    0.233049 0.698984 0.820521 0.200513
H60   H     H_    0.173030 0.763297 0.782975 0.206914
H61   H     H_    0.797818 0.760298 0.906722 0.256337
H62   H     H_    0.853774 0.827900 0.867495 0.261764
H63   H     H_    0.381423 0.072057 0.860008 0.149924
H64   H     H_    0.823252 0.844238 0.945157 0.242117
H65   H     H_    0.749777 0.917005 0.871250 0.231121
H66   H     H_    0.694117 0.849338 0.910762 0.233012
H67   H     H_    0.698983 0.766952 0.820523 0.200514
H68   H     H_    0.763297 0.826967 0.782975 0.206916
H69   H     H_    0.760299 0.797819 0.093279 0.256337
H70   H     H_    0.827899 0.853774 0.132507 0.261764
H71   H     H_    0.844239 0.823254 0.054845 0.242118
H72   H     H_    0.917005 0.749778 0.128752 0.231121
H73   H     H_    0.849339 0.694118 0.089239 0.233012
H74   H     H_    0.072057 0.381423 0.139992 0.149925
H75   H     H_    0.766951 0.698982 0.179477 0.200514
H76   H     H_    0.826966 0.763296 0.217026 0.206916
H77   H     H_    0.202177 0.760302 0.093278 0.256335
H78   H     H_    0.146224 0.827902 0.132509 0.261762
H79   H     H_    0.176741 0.844244 0.054847 0.242118
H80   H     H_    0.250220 0.917007 0.128753 0.231121
H81   H     H_    0.305879 0.849341 0.089238 0.233011
H82   H     H_    0.301018 0.766952 0.179476 0.200513
H83   H     H_    0.236704 0.826965 0.217027 0.206915
H84   H     H_    0.239700 0.202179 0.093278 0.256336
H85   H     H_    0.618576 0.072056 0.139993 0.149922
H86   H     H_    0.172099 0.146225 0.132507 0.261763
H87   H     H_    0.155759 0.176744 0.054845 0.242117
H88   H     H_    0.082994 0.250222 0.128751 0.231121
H89   H     H_    0.150661 0.305881 0.089238 0.233011
H90   H     H_    0.233048 0.301017 0.179477 0.200513
H91   H     H_    0.173033 0.236703 0.217026 0.206915
H92   H     H_    0.797800 0.239724 0.093280 0.256340
H93   H     H_    0.853762 0.172108 0.132483 0.261768
H94   H     H_    0.823221 0.155794 0.054823 0.242116
H95   H     H_    0.749761 0.083010 0.128729 0.231118
H96   H     H_    0.927943 0.618576 0.139992 0.149925
H97   H     H_    0.694093 0.150690 0.089238 0.233015
H98   H     H_    0.698989 0.233054 0.179492 0.200515
H99   H     H_    0.763301 0.173018 0.217021 0.206912
H100  H     H_    0.260302 0.702178 0.406721 0.256335
H101  H     H_    0.327902 0.646224 0.367491 0.261762
H102  H     H_    0.344244 0.676742 0.445153 0.242118
H103  H     H_    0.417007 0.750221 0.371246 0.231121
H104  H     H_    0.349341 0.805879 0.410761 0.233011
H105  H     H_    0.266952 0.801017 0.320524 0.200513
H106  H     H_    0.326966 0.736703 0.282973 0.206915
H107  H     H_    0.381423 0.927943 0.139992 0.149925
H108  H     H_    0.702178 0.739699 0.406720 0.256337
H109  H     H_    0.646224 0.672097 0.367493 0.261763
H110  H     H_    0.676744 0.655759 0.445155 0.242118
H111  H     H_    0.750222 0.582993 0.371248 0.231121
H112  H     H_    0.805880 0.650660 0.410761 0.233012
H113  H     H_    0.801017 0.733048 0.320523 0.200514
H114  H     H_    0.736703 0.673033 0.282974 0.206916
H115  H     H_    0.739724 0.297803 0.406718 0.256341
H116  H     H_    0.672101 0.353763 0.367522 0.261770
H117  H     H_    0.655797 0.323217 0.445182 0.242114
H118  H     H_    0.572055 0.118577 0.360008 0.149921
H119  H     H_    0.583009 0.249758 0.371275 0.231117
H120  H     H_    0.650692 0.194092 0.410762 0.233015
H121  H     H_    0.733052 0.198994 0.320506 0.200514
H122  H     H_    0.673012 0.263304 0.282980 0.206913
H123  H     H_    0.297821 0.260300 0.406721 0.256336
H124  H     H_    0.353775 0.327901 0.367492 0.261763
H125  H     H_    0.323256 0.344242 0.445155 0.242117
H126  H     H_    0.249778 0.417006 0.371248 0.231121
H127  H     H_    0.194119 0.349340 0.410762 0.233011
H128  H     H_    0.198983 0.266952 0.320523 0.200513
O1    O     O_R   0.939380 0.392670 0.000020 -0.628740
O2    O     O_R   0.892670 0.560620 0.500020 -0.628741
O3    O     O_R   0.560620 0.107330 0.500020 -0.628742
O4    O     O_R   0.107330 0.439380 0.500020 -0.628740
O5    O     O_R   0.439380 0.107330 0.499980 -0.628741
O6    O     O_R   0.892670 0.439380 0.499980 -0.628740
O7    O     O_R   0.560620 0.892670 0.499980 -0.628741
O8    O     O_R   0.107330 0.560620 0.499980 -0.628741
O9    O     O_R   0.939380 0.500000 0.908420 -0.623294
O10   O     O_R   0.500000 0.060620 0.908420 -0.623295
O11   O     O_R   0.060620 0.500000 0.908420 -0.623295
O12   O     O_R   0.392670 0.060620 0.000020 -0.628741
O13   O     O_R   0.500000 0.939380 0.908420 -0.623295
O14   O     O_R   0.939380 0.500000 0.091580 -0.623295
O15   O     O_R   0.500000 0.939380 0.091580 -0.623295
O16   O     O_R   0.060620 0.500000 0.091580 -0.623295
O17   O     O_R   0.500000 0.060620 0.091580 -0.623296
O18   O     O_R   0.439380 1.000000 0.408420 -0.623295
O19   O     O_R   1.000000 0.560620 0.408420 -0.623295
O20   O     O_R   0.560620 1.000000 0.408420 -0.623296
O21   O     O_R   1.000000 0.439380 0.408420 -0.623295
O22   O     O_R   0.439380 0.000000 0.591580 -0.623295
O23   O     O_R   0.060620 0.607330 0.000020 -0.628741
O24   O     O_R   0.000000 0.439380 0.591580 -0.623294
O25   O     O_R   0.560620 0.000000 0.591580 -0.623295
O26   O     O_R   0.000000 0.560620 0.591580 -0.623296
O27   O     O_R   0.107300 0.999970 0.948290 -0.619485
O28   O     O_R   0.999970 0.892700 0.948290 -0.619485
O29   O     O_R   0.892700 0.000030 0.948290 -0.619487
O30   O     O_R   0.000030 0.107300 0.948290 -0.619488
O31   O     O_R   0.107300 0.000030 0.051710 -0.619486
O32   O     O_R   0.999970 0.107300 0.051710 -0.619484
O33   O     O_R   0.892700 0.999970 0.051710 -0.619482
O34   O     O_R   0.607330 0.939380 0.000020 -0.628741
O35   O     O_R   0.000030 0.892700 0.051710 -0.619486
O36   O     O_R   0.607300 0.499970 0.448290 -0.619484
O37   O     O_R   0.499970 0.392700 0.448290 -0.619482
O38   O     O_R   0.392700 0.500030 0.448290 -0.619487
O39   O     O_R   0.500030 0.607300 0.448290 -0.619486
O40   O     O_R   0.607300 0.500030 0.551710 -0.619489
O41   O     O_R   0.499970 0.607300 0.551710 -0.619485
O42   O     O_R   0.392700 0.499970 0.551710 -0.619485
O43   O     O_R   0.500030 0.392700 0.551710 -0.619487
O44   O     O_R   0.939380 0.607330 0.999980 -0.628740
O45   O     O_R   0.392670 0.939380 0.999980 -0.628741
O46   O     O_R   0.060620 0.392670 0.999980 -0.628741
O47   O     O_R   0.607330 0.060620 0.999980 -0.628742
O48   O     O_R   0.439380 0.892670 0.500020 -0.628740
Zn1   Zn    Zn3+2 0.919060 0.500000 0.000000 0.934177
Zn2   Zn    Zn3+2 0.000000 1.000000 0.069040 0.933236
Zn3   Zn    Zn3+2 0.500000 0.500000 0.430960 0.933234
Zn4   Zn    Zn3+2 0.500000 0.500000 0.569040 0.933233
Zn5   Zn    Zn3+2 0.500000 0.080940 0.000000 0.934171
Zn6   Zn    Zn3+2 0.080940 0.500000 0.000000 0.934174
Zn7   Zn    Zn3+2 0.500000 0.919060 0.000000 0.934175
Zn8   Zn    Zn3+2 0.419060 0.000000 0.500000 0.934175
Zn9   Zn    Zn3+2 0.000000 0.580940 0.500000 0.934174
Zn10  Zn    Zn3+2 0.580940 0.000000 0.500000 0.934171
Zn11  Zn    Zn3+2 0.000000 0.419060 0.500000 0.934178
Zn12  Zn    Zn3+2 1.000000 0.000000 0.930960 0.933233

loop_
_geom_bond_atom_site_label_1
_geom_bond_atom_site_label_2
_ccdc_geom_bond_type
C144  H40   S    
C69   C116  A    
C82   C94   A    
C108  C120  A    
C19   C20   S    
C45   H26   S    
O30   Zn12  S    
C42   H17   S    
C4    H50   S    
C16   H82   S    
O29   Zn12  S    
C81   C95   A    
C106  O39   A    
C41   H5    S    
C98   O27   A    
C26   C92   S    
C143  C144  S    
C119  C130  A    
C68   O44   A    
C74   C92   A    
C76   C94   A    
C78   C96   A    
C62   O24   A    
C66   C122  A    
C99   O35   A    
C11   H62   S    
C74   H13   S    
O6    Zn11  S    
C71   H107  S    
C22   H99   S    
C49   H33   S    
O3    Zn10  S    
C67   C85   A    
C39   H10   S    
C101  O6    A    
C15   H71   S    
C42   C97   S    
O38   Zn3   S    
C142  H45   S    
C72   C113  A    
C29   H113  S    
C104  C140  S    
C90   O7    A    
O34   Zn7   S    
C37   C38   S    
C26   H105  S    
C27   H103  S    
C102  O30   A    
C25   H93   S    
C115  C118  A    
C18   H79   S    
C5    H47   S    
O20   Zn10  S    
C36   C91   S    
O42   Zn4   S    
C75   C93   A    
O27   Zn12  S    
C31   H110  S    
C67   H74   S    
C4    C5    S    
C19   C85   S    
C105  O42   A    
O39   Zn3   S    
C6    C7    S    
C48   H20   S    
C54   C132  S    
C64   C120  A    
C6    H59   S    
C7    H57   S    
C118  C129  A    
C66   H63   S    
C21   H86   S    
O23   Zn6   S    
C99   C136  S    
O48   Zn8   S    
O8    Zn9   S    
C38   H125  S    
C100  C137  S    
C71   C88   A    
C60   O19   A    
C20   C21   S    
C61   O22   A    
C22   C23   S    
C56   O14   A    
C28   H100  S    
C108  C126  A    
C12   H76   S    
C46   C139  T    
C80   C97   A    
C8    H54   S    
C112  O3    A    
C15   H69   S    
C2    C57   S    
C7    C8    S    
C33   H120  S    
C36   C37   S    
C43   H15   S    
C52   C112  S    
C58   C129  S    
O46   Zn6   S    
C65   C124  A    
C18   H77   S    
O25   Zn10  S    
C58   O17   A    
C17   H81   S    
C10   H66   S    
C48   H21   S    
C23   H97   S    
C9    C10   S    
C114  C119  A    
C65   H52   S    
O21   Zn11  S    
C6    C81   S    
C70   H96   S    
C70   C87   A    
C104  O37   A    
C46   C101  S    
C61   O25   A    
O5    Zn8   S    
C14   H72   S    
C44   H12   S    
O9    Zn1   S    
C107  C125  A    
C39   C40   S    
C98   C135  S    
C115  C128  A    
C50   H31   S    
C38   H123  S    
C29   C30   S    
C69   H85   S    
O43   Zn4   S    
C24   C79   S    
C60   O21   A    
C17   C18   S    
C36   H128  S    
C34   H116  S    
C32   H121  S    
C56   O16   A    
C28   H102  S    
C49   C95   S    
C75   H24   S    
O11   Zn6   S    
C110  C126  A    
C100  O33   A    
C40   H8    S    
C30   H112  S    
C101  O2    A    
C8    H56   S    
C121  C132  A    
C3    C4    S    
C19   H90   S    
C122  C131  A    
C54   O11   A    
C104  O43   A    
O19   Zn9   S    
C34   H117  S    
C45   H25   S    
C42   H18   S    
C24   C137  T    
C72   H118  S    
C2    C135  T    
C111  C117  A    
C102  C133  S    
C41   H4    S    
C74   C115  A    
C87   C93   A    
C10   C11   S    
C49   C50   S    
C11   H64   S    
C14   C15   S    
C11   H61   S    
C63   H1    S    
C56   C130  S    
C106  O41   A    
O13   Zn7   S    
C13   C68   S    
C120  C131  A    
C44   H14   S    
O12   Zn5   S    
C113  C128  A    
C26   C27   S    
C77   H35   S    
C39   H9    S    
C78   H36   S    
C51   H28   S    
C76   H34   S    
C30   C31   S    
C9    H68   S    
C68   O23   A    
C55   O13   A    
C100  O29   A    
C26   H106  S    
O47   Zn5   S    
C25   H92   S    
C16   C17   S    
C80   C109  A    
C61   C126  S    
C71   C118  A    
O17   Zn5   S    
C9    C82   S    
O45   Zn7   S    
C54   O9    A    
O15   Zn7   S    
C144  H39   S    
C76   C108  A    
C4    H49   S    
O22   Zn8   S    
O33   Zn2   S    
C31   H109  S    
C59   O18   A    
C47   H22   S    
C123  O8    A    
O16   Zn6   S    
C59   O20   A    
O40   Zn4   S    
O4    Zn11  S    
O35   Zn2   S    
C6    H60   S    
C23   H95   S    
C36   H3    S    
C32   C89   S    
C1    O46   A    
C50   C51   S    
C98   O31   A    
C67   C117  A    
O44   Zn1   S    
C55   C131  S    
C133  C134  T    
C143  H42   S    
C42   C43   S    
C107  C121  A    
O41   Zn4   S    
C22   H98   S    
C21   H84   S    
O26   Zn9   S    
O1    Zn1   S    
C60   C127  S    
C86   C89   A    
C19   H91   S    
C62   C125  S    
C41   H6    S    
C142  H44   S    
C33   H119  S    
C29   H114  S    
C32   C33   S    
C79   O34   A    
C90   O48   A    
C27   H104  S    
C110  C122  A    
C29   C93   S    
C114  C127  A    
C25   H94   S    
C52   C140  T    
C31   H108  S    
C53   C141  T    
C22   C86   S    
C18   H78   S    
C3    H51   S    
O14   Zn1   S    
C106  C138  S    
C35   C90   S    
C83   C97   A    
C3    C84   S    
C16   C88   S    
O10   Zn5   S    
C142  C143  S    
O32   Zn2   S    
C49   H32   S    
C16   H83   S    
C20   H88   S    
C43   C44   S    
C85   C91   A    
C48   H19   S    
C124  C132  A    
C63   C81   A    
C5    H46   S    
C7    H58   S    
C35   C138  T    
C105  C141  S    
C57   O12   A    
C65   C83   A    
C103  O40   A    
C21   H87   S    
C51   H29   S    
C84   C96   A    
C45   C47   S    
O28   Zn12  S    
C38   H124  S    
C112  O5    A    
C99   O28   A    
C116  C129  A    
C88   C92   A    
C55   O10   A    
C14   H73   S    
C57   O45   A    
C12   H75   S    
C1    O1    A    
C64   H41   S    
C113  C116  A    
C15   H70   S    
C45   C94   S    
C63   C121  A    
C73   C111  A    
C58   O15   A    
C144  H38   S    
C77   C107  A    
C73   C91   A    
C43   H16   S    
C53   C123  S    
C59   C128  S    
C102  O32   A    
C77   C95   A    
C40   H7    S    
C103  C139  S    
C105  O38   A    
C47   H23   S    
C10   H65   S    
C47   C48   S    
C70   C119  A    
C33   C34   S    
C78   C110  A    
C75   C114  A    
C79   O47   A    
C80   H37   S    
C32   H122  S    
C117  C130  A    
C64   C82   A    
O36   Zn3   S    
C109  C125  A    
C40   C41   S    
C12   C14   S    
C103  O36   A    
O2    Zn9   S    
C111  C127  A    
C62   O26   A    
C13   C136  T    
C37   H126  S    
C1    C134  S    
O18   Zn8   S    
C123  O4    A    
O31   Zn2   S    
C12   C87   S    
C44   H11   S    
C143  H43   S    
C5    H48   S    
C83   C142  S    
C109  C124  A    
C37   H127  S    
O24   Zn11  S    
C73   H2    S    
C50   H30   S    
C51   H27   S    
C17   H80   S    
C72   C89   A    
C9    H67   S    
C3    H53   S    
C20   H89   S    
C34   H115  S    
C28   H101  S    
C23   C25   S    
O37   Zn3   S    
C39   C96   S    
C66   C84   A    
C27   C28   S    
C30   H111  S    
C8    H55   S    
O7    Zn10  S    
C69   C86   A    
