data_mof_unit_12247.cif
_audit_creation_date              2012-12-10T19:01:19-0500
_audit_creation_method            fapswitch 2.2
_symmetry_space_group_name_H-M    P1
_symmetry_Int_Tables_number       1
_space_group_crystal_system       triclinic
_cell_length_a                    9.543993
_cell_length_b                    10.822055
_cell_length_c                    15.462972
_cell_angle_alpha                 89.874367
_cell_angle_beta                  74.308248
_cell_angle_gamma                 89.935642
_cell_volume                      1537.57576567

loop_
_atom_site_label
_atom_site_type_symbol
_atom_type_description
_atom_site_fract_x
_atom_site_fract_y
_atom_site_fract_z
_atom_type_partial_charge
C1    C     C_R   0.000712 0.262295 0.498398 0.806848
C2    C     C_R   0.668878 0.460668 0.904976 0.086233
C3    C     C_R   0.766967 0.413183 0.951035 0.064476
C4    C     C_R   0.517790 0.468837 0.949851 0.000727
C5    C     C_R   0.469513 0.443509 0.043682 -0.066712
C6    C     C_R   0.569872 0.390203 0.086280 0.560298
C7    C     C_R   0.715821 0.376688 0.040361 -0.292023
C8    C     C_R   0.412817 0.497173 0.903286 -0.181932
C9    C     C_R   0.266571 0.508794 0.948080 -0.235073
C10   C     C_R   0.220086 0.497732 0.041053 0.159666
C11   C     C_R   0.321654 0.469083 0.090231 0.111356
C12   C     C_R   0.918093 0.497456 0.672180 0.790324
C13   C     C_R   0.073117 0.517918 0.085654 -0.211756
C14   C     C_R   0.026281 0.514628 0.178993 -0.176593
C15   C     C_R   0.273312 0.475093 0.184385 -0.181359
C16   C     C_R   0.131306 0.063392 0.486588 0.156750
C17   C     C_R   0.004306 0.129209 0.489374 -0.100908
C18   C     C_R   0.882002 0.064595 0.479156 -0.209323
C19   C     C_R   0.881929 0.935787 0.479124 -0.215587
C20   C     C_R   0.004176 0.870771 0.489268 -0.101092
C21   C     C_R   0.131209 0.936216 0.486567 0.124576
C22   C     C_3   0.229474 0.929180 0.546987 -0.465691
C23   C     C_R   0.000622 0.737682 0.498304 0.801243
C24   C     C_3   0.229725 0.069498 0.546935 -0.482929
C25   C     C_R   0.587945 0.599111 0.467139 0.249087
C26   C     C_R   0.556386 0.408755 0.541425 -0.072336
C27   C     C_R   0.407453 0.408865 0.541555 -0.074097
C28   C     C_R   0.440692 0.599064 0.467071 0.251808
C29   C     C_3   0.475679 0.650024 0.374036 -0.483890
C30   C     C_3   0.634711 0.649919 0.374145 -0.495967
C31   C     C_R   0.081920 0.499510 0.327683 0.807416
C32   C     C_R   0.872124 0.479867 0.769914 -0.051888
C33   C     C_R   0.126823 0.496038 0.228973 -0.087456
C34   C     C_R   0.915090 0.399051 0.906334 -0.183221
C35   C     C_R   0.967330 0.431550 0.816107 -0.200498
C36   C     C_R   0.725722 0.498345 0.815264 -0.216918
Cu1   Cu    Cu3+1 0.140670 0.499980 0.500000 0.951619
Cu2   Cu    Cu3+1 0.859330 0.500020 0.500000 0.946006
H1    H     H_    0.789271 0.335570 0.074927 0.179500
H2    H     H_    0.994733 0.538537 0.048407 0.145971
H3    H     H_    0.784139 0.112811 0.475694 0.167101
H4    H     H_    0.783993 0.887888 0.475741 0.160009
H5    H     H_    0.175321 0.888277 0.613691 0.200473
H6    H     H_    0.337219 0.888678 0.512710 0.194499
H7    H     H_    0.175917 0.110307 0.613626 0.192418
H8    H     H_    0.337611 0.109590 0.512443 0.201753
H9    H     H_    0.597946 0.333727 0.573646 0.138316
H10   H     H_    0.337639 0.334196 0.574099 0.132575
H11   H     H_    0.452257 0.584074 0.324906 0.227218
H12   H     H_    0.349331 0.470036 0.224351 0.212911
H13   H     H_    0.430539 0.744390 0.372097 0.191156
H14   H     H_    0.701454 0.583456 0.325493 0.219595
H15   H     H_    0.681479 0.744212 0.372121 0.188703
H16   H     H_    0.912554 0.530802 0.211811 0.155270
H17   H     H_    0.190008 0.530519 0.909739 0.145862
H18   H     H_    0.989879 0.359880 0.940653 0.142595
H19   H     H_    0.080800 0.415336 0.781929 0.146647
H20   H     H_    0.658270 0.542556 0.778636 0.143315
H21   H     H_    0.439238 0.506696 0.831319 0.138064
N1    N     N_R   0.648210 0.500930 0.499430 -0.181690
N2    N     N_R   0.352300 0.500890 0.499430 -0.178598
O1    O     O_R   0.118810 0.319640 0.500000 -0.577472
O2    O     O_R   0.881230 0.319680 0.499990 -0.588308
O3    O     O_R   0.055580 0.499970 0.629840 -0.585963
O4    O     O_R   0.818000 0.500010 0.629830 -0.583543
O5    O     O_R   0.118770 0.680320 0.500010 -0.580233
O6    O     O_R   0.881190 0.680360 0.500000 -0.586059
O7    O     O_R   0.182000 0.499990 0.370170 -0.578779
O8    O     O_R   0.944420 0.500030 0.370160 -0.578338
F1    F     F_    0.527536 0.338602 0.169273 -0.686151

loop_
_geom_bond_atom_site_label_1
_geom_bond_atom_site_label_2
_ccdc_geom_bond_type
C27   H10   S    
C8    C9    A    
C2    C4    A    
C19   H4    S    
C34   H18   S    
C16   C21   A    
C9    H17   S    
C25   N1    A    
C9    C10   A    
C3    C7    A    
C19   C20   A    
C20   C23   S    
C35   H19   S    
C4    C8    A    
C24   H8    S    
Cu1   O5    S    
C14   C33   A    
C31   C33   S    
C2    C3    A    
Cu2   O8    S    
C16   C24   S    
C29   H11   S    
C13   C14   A    
C28   N2    A    
C25   C28   A    
C26   C27   A    
C29   C30   S    
C26   N1    A    
C30   H14   S    
C26   H9    S    
Cu2   N1    S    
C24   H7    S    
C1    O2    A    
C23   O5    A    
C28   C29   S    
C14   H16   S    
Cu1   Cu2   S    
C5    C11   A    
C6    C7    A    
C36   H20   S    
C8    H21   S    
C29   H13   S    
C5    C6    A    
C12   O3    A    
C30   H15   S    
Cu2   O2    S    
C15   H12   S    
C16   C17   A    
C10   C11   A    
C1    C17   S    
C2    C36   A    
Cu2   O6    S    
Cu1   O7    S    
C32   C36   A    
C31   O8    A    
Cu1   O3    S    
C20   C21   A    
C1    O1    A    
C17   C18   A    
C34   C35   A    
C12   O4    A    
C18   H3    S    
C23   O6    A    
C25   C30   S    
C6    F1    S    
Cu1   O1    S    
C22   H6    S    
C18   C19   A    
C13   H2    S    
C7    H1    S    
Cu1   N2    S    
C27   N2    A    
C3    C34   A    
C21   C22   S    
Cu2   O4    S    
C11   C15   A    
C31   O7    A    
C15   C33   A    
C12   C32   S    
C32   C35   A    
C22   H5    S    
C22   C24   S    
C4    C5    A    
C10   C13   A    
