data_mof_unit_35496.cif
_audit_creation_date              2012-12-10T18:51:35-0500
_audit_creation_method            fapswitch 2.2
_symmetry_space_group_name_H-M    P1
_symmetry_Int_Tables_number       1
_space_group_crystal_system       triclinic
_cell_length_a                    10.52776
_cell_length_b                    10.010127
_cell_length_c                    10.470491
_cell_angle_alpha                 90.004205
_cell_angle_beta                  92.811007
_cell_angle_gamma                 90.010979
_cell_volume                      1102.09673412

loop_
_atom_site_label
_atom_site_type_symbol
_atom_type_description
_atom_site_fract_x
_atom_site_fract_y
_atom_site_fract_z
_atom_type_partial_charge
C1    C     C_R   0.871614 0.500033 0.500009 0.022556
C2    C     C_3   0.560222 0.390046 0.044887 -0.170162
C3    C     C_3   0.439631 0.390122 0.955068 -0.170107
C4    C     C_3   0.560367 0.609879 0.044932 -0.170098
C5    C     C_3   0.500620 0.500014 0.877549 0.055584
C6    C     C_3   0.499379 0.499987 0.122451 0.055584
C7    C     C_R   0.589832 0.071735 0.571215 -0.023291
C8    C     C_R   0.410169 0.928265 0.428784 -0.023291
C9    C     C_R   0.410173 0.071693 0.428782 -0.023321
C10   C     C_R   0.589827 0.928307 0.571218 -0.023321
C11   C     C_R   0.071070 0.500193 0.616855 -0.248830
C12   C     C_R   0.128386 0.499968 0.499991 0.022558
C13   C     C_R   0.928930 0.499804 0.383145 -0.248825
C14   C     C_R   0.940583 0.500215 0.616744 -0.163710
C15   C     C_R   0.059417 0.499782 0.383256 -0.163705
C16   C     C_R   0.691077 0.141841 0.647720 0.195486
C17   C     C_R   0.675875 0.167949 0.777833 -0.118819
C18   C     C_R   0.780159 0.208052 0.856643 -0.165430
C19   C     C_R   0.900094 0.220939 0.806687 -0.134787
C20   C     C_R   0.916131 0.193799 0.677714 -0.134554
C21   C     C_R   0.812132 0.155068 0.598322 -0.121497
C22   C     C_R   0.308925 0.858158 0.352277 0.195487
C23   C     C_R   0.260807 0.499989 0.499694 0.860674
C24   C     C_R   0.324127 0.832057 0.222164 -0.118824
C25   C     C_R   0.219843 0.791958 0.143352 -0.165426
C26   C     C_R   0.099909 0.779065 0.193307 -0.134791
C27   C     C_R   0.083872 0.806196 0.322282 -0.134561
C28   C     C_R   0.187871 0.844925 0.401674 -0.121490
C29   C     C_R   0.308973 0.141751 0.352217 0.195507
C30   C     C_R   0.187903 0.155001 0.401568 -0.121516
C31   C     C_R   0.083914 0.193539 0.322089 -0.134823
C32   C     C_R   0.099977 0.220478 0.193073 -0.134808
C33   C     C_R   0.219932 0.207589 0.143167 -0.165185
C34   C     C_R   0.739193 0.500011 0.500306 0.860674
C35   C     C_R   0.324208 0.167680 0.222071 -0.119006
C36   C     C_R   0.691025 0.858248 0.647786 0.195508
C37   C     C_R   0.675788 0.832328 0.777934 -0.119011
C38   C     C_R   0.780063 0.792422 0.856843 -0.165175
C39   C     C_R   0.900018 0.779525 0.806938 -0.134804
C40   C     C_R   0.916084 0.806456 0.677920 -0.134828
C41   C     C_R   0.812095 0.844992 0.598437 -0.121514
C42   C     C_R   0.499176 0.499995 0.257734 0.851112
C43   C     C_R   0.500823 0.500004 0.742266 0.851111
C44   C     C_3   0.378774 0.500062 0.035418 -0.188244
C45   C     C_3   0.621224 0.499939 0.964582 -0.188243
C46   C     C_3   0.439777 0.609955 0.955113 -0.170152
H1    H     H_    0.392184 0.300770 0.911923 0.123416
H2    H     H_    0.106648 0.499628 0.293551 0.139393
H3    H     H_    0.584710 0.152174 0.819049 0.114771
H4    H     H_    0.769180 0.225762 0.957255 0.122088
H5    H     H_    0.980818 0.250829 0.868112 0.118025
H6    H     H_    0.009296 0.202316 0.639430 0.133684
H7    H     H_    0.826381 0.130504 0.499381 0.102793
H8    H     H_    0.415291 0.847837 0.180949 0.114768
H9    H     H_    0.230821 0.774256 0.042740 0.122089
H10   H     H_    0.019185 0.749180 0.131882 0.118027
H11   H     H_    0.990708 0.797673 0.360566 0.133686
H12   H     H_    0.607813 0.699231 0.088078 0.123415
H13   H     H_    0.173621 0.869484 0.500616 0.102796
H14   H     H_    0.173629 0.130562 0.500535 0.102833
H15   H     H_    0.990731 0.202045 0.360331 0.133704
H16   H     H_    0.019255 0.250198 0.131573 0.118053
H17   H     H_    0.230929 0.225108 0.042513 0.122048
H18   H     H_    0.415385 0.151875 0.180896 0.114702
H19   H     H_    0.584610 0.848138 0.819108 0.114698
H20   H     H_    0.769064 0.774911 0.957499 0.122044
H21   H     H_    0.980739 0.749809 0.868442 0.118051
H22   H     H_    0.009267 0.797947 0.639679 0.133705
H23   H     H_    0.280513 0.500097 0.069433 0.129311
H24   H     H_    0.826372 0.869425 0.499468 0.102837
H25   H     H_    0.719485 0.499904 0.930567 0.129312
H26   H     H_    0.392442 0.699377 0.912032 0.123437
H27   H     H_    0.607555 0.300624 0.087967 0.123439
H28   H     H_    0.126957 0.500348 0.706623 0.121773
H29   H     H_    0.873044 0.499644 0.293375 0.121771
H30   H     H_    0.893352 0.500363 0.706446 0.139396
N1    N     N_R   0.500000 0.857200 0.500000 -0.121887
N2    N     N_R   0.500000 0.142800 0.500000 -0.121887
O1    O     O_R   0.316770 0.614620 0.499990 -0.615420
O2    O     O_R   0.683230 0.385380 0.500010 -0.615417
O3    O     O_R   0.683230 0.614620 0.500010 -0.615498
O4    O     O_R   0.316770 0.385380 0.499990 -0.615496
O5    O     O_R   0.499970 0.614650 0.313950 -0.624840
O6    O     O_R   0.500030 0.385350 0.686050 -0.624842
O7    O     O_R   0.500030 0.614650 0.686050 -0.624810
O8    O     O_R   0.499970 0.385350 0.313950 -0.624812
Zn1   Zn    Zn3+2 0.500000 0.653120 0.500000 0.939575
Zn2   Zn    Zn3+2 0.500000 0.346880 0.500000 0.939575

loop_
_geom_bond_atom_site_label_1
_geom_bond_atom_site_label_2
_ccdc_geom_bond_type
C7    C10   A    
O5    Zn1   S    
C16   C21   A    
C23   O4    A    
C45   H25   S    
C31   H15   S    
C19   C20   A    
O1    Zn1   S    
C4    C46   S    
C12   C23   S    
C26   C27   A    
C29   C30   A    
C36   C37   A    
C30   C31   A    
C11   C14   A    
O8    Zn2   S    
C24   H8    S    
C18   C19   A    
C34   O2    A    
C38   H20   S    
C8    C9    A    
C30   H14   S    
C8    C22   S    
C35   H18   S    
C42   O8    A    
C34   O3    A    
C46   H26   S    
C9    C29   S    
C5    C43   S    
C22   C28   A    
C43   O6    A    
C36   C41   A    
C2    C6    S    
C15   H2    S    
C10   N1    A    
C44   C46   S    
C1    C34   S    
C4    C45   S    
O7    Zn1   S    
C2    C45   S    
C3    C44   S    
C43   O7    A    
C13   H29   S    
C24   C25   A    
C4    C6    S    
C27   H11   S    
C17   H3    S    
C39   C40   A    
C16   C17   A    
C25   C26   A    
C5    C45   S    
C37   H19   S    
C14   H30   S    
C37   C38   A    
C31   C32   A    
C12   C15   A    
C33   H17   S    
C17   C18   A    
C44   H23   S    
O3    Zn1   S    
C2    H27   S    
C7    N2    A    
C40   C41   A    
C13   C15   A    
C6    C42   S    
C8    N1    A    
C22   C24   A    
C1    C13   A    
C18   H4    S    
C28   H13   S    
N2    Zn2   S    
C7    C16   S    
C39   H21   S    
C42   O5    A    
O6    Zn2   S    
C3    C5    S    
C11   H28   S    
C26   H10   S    
C10   C36   S    
C11   C12   A    
C5    C46   S    
C29   C35   A    
C32   C33   A    
C2    C3    S    
C32   H16   S    
C20   H6    S    
C21   H7    S    
C38   C39   A    
O4    Zn2   S    
C3    H1    S    
C33   C35   A    
C25   H9    S    
C9    N2    A    
C19   H5    S    
C20   C21   A    
N1    Zn1   S    
O2    Zn2   S    
C40   H22   S    
C4    H12   S    
C27   C28   A    
C6    C44   S    
C1    C14   A    
C23   O1    A    
C41   H24   S    
