data_mof_unit_38928.cif
_audit_creation_date              2012-12-10T16:32:40-0500
_audit_creation_method            fapswitch 2.2
_symmetry_space_group_name_H-M    P1
_symmetry_Int_Tables_number       1
_space_group_crystal_system       triclinic
_cell_length_a                    16.959053
_cell_length_b                    16.959197
_cell_length_c                    16.959134
_cell_angle_alpha                 64.522766
_cell_angle_beta                  64.52249
_cell_angle_gamma                 64.522273
_cell_volume                      3791.0471068

loop_
_atom_site_label
_atom_site_type_symbol
_atom_type_description
_atom_site_fract_x
_atom_site_fract_y
_atom_site_fract_z
_atom_type_partial_charge
C1    C     C_R   0.585891 0.030915 0.599437 -0.140427
C2    C     C_R   0.821378 0.560490 0.042018 0.893024
C3    C     C_R   0.431144 0.975840 0.177215 0.947732
C4    C     C_R   0.560489 0.042018 0.821378 0.893160
C5    C     C_R   0.568859 0.822788 0.024151 0.947649
C6    C     C_R   0.439512 0.178621 0.957977 0.893197
C7    C     C_R   0.024157 0.568856 0.822785 0.947657
C8    C     C_R   0.957981 0.439511 0.178622 0.893317
C9    C     C_R   0.822788 0.024155 0.568857 0.947639
C10   C     C_R   0.178621 0.957978 0.439512 0.892932
C11   C     C_R   0.536578 0.015964 0.552842 0.153529
C12   C     C_R   0.400576 0.969031 0.414125 -0.140323
C13   C     C_R   0.447178 0.983963 0.463443 0.153547
C14   C     C_R   0.016064 0.552814 0.536547 0.153533
C15   C     C_R   0.984085 0.463403 0.447142 0.153500
C16   C     C_R   0.552855 0.536590 0.015942 0.153632
C17   C     C_R   0.463459 0.447187 0.983942 0.153159
C18   C     C_R   0.578124 0.011534 0.462180 -0.170161
C19   C     C_R   0.402614 0.995453 0.551509 -0.179372
C20   C     C_R   0.011659 0.462144 0.578085 -0.170229
C21   C     C_R   0.995564 0.551474 0.402581 -0.179578
C22   C     C_R   0.462190 0.578132 0.011518 -0.170089
C23   C     C_R   0.030986 0.599421 0.585868 -0.140419
C24   C     C_R   0.551532 0.402630 0.995420 -0.179425
C25   C     C_R   0.537850 0.988365 0.421908 -0.170287
C26   C     C_R   0.448501 0.004496 0.597398 -0.179551
C27   C     C_R   0.421917 0.537855 0.988354 -0.170612
C28   C     C_R   0.597418 0.448520 0.004462 -0.179416
C29   C     C_R   0.988505 0.421863 0.537808 -0.170270
C30   C     C_R   0.004594 0.597367 0.448471 -0.179453
C31   C     C_R   0.539015 0.067404 0.674505 0.407944
C32   C     C_R   0.428571 0.993941 0.316911 0.377846
C33   C     C_R   0.067471 0.674492 0.539001 0.408114
C34   C     C_R   0.969125 0.414094 0.400552 -0.140456
C35   C     C_R   0.994012 0.316882 0.428550 0.377996
C36   C     C_R   0.674496 0.539014 0.067419 0.408026
C37   C     C_R   0.316915 0.428584 0.993928 0.377962
C38   C     C_R   0.325510 0.932540 0.460999 0.408083
C39   C     C_R   0.683106 0.006011 0.571445 0.377897
C40   C     C_R   0.461000 0.325499 0.932555 0.408156
C41   C     C_R   0.571460 0.683110 0.005996 0.377834
C42   C     C_R   0.932638 0.460972 0.325485 0.407626
C43   C     C_R   0.006062 0.571431 0.683083 0.377852
C44   C     C_R   0.590830 0.065699 0.722785 -0.191084
C45   C     C_R   0.599447 0.585897 0.030903 -0.140298
C46   C     C_R   0.394249 0.965896 0.273404 -0.161934
C47   C     C_R   0.065730 0.722783 0.590826 -0.191309
C48   C     C_R   0.965931 0.273393 0.394242 -0.161941
C49   C     C_R   0.722781 0.590826 0.065715 -0.191307
C50   C     C_R   0.273408 0.394255 0.965893 -0.161598
C51   C     C_R   0.277219 0.934270 0.409177 -0.191370
C52   C     C_R   0.726603 0.034080 0.605757 -0.162032
C53   C     C_R   0.409175 0.277216 0.934282 -0.191156
C54   C     C_R   0.605762 0.726604 0.034075 -0.162021
C55   C     C_R   0.934319 0.409165 0.277214 -0.190928
C56   C     C_R   0.414134 0.400579 0.969026 -0.140801
C57   C     C_R   0.034104 0.605752 0.726595 -0.161934
C58   C     C_R   0.679543 0.065277 0.680361 -0.412152
C59   C     C_R   0.319638 0.934707 0.320460 -0.412040
C60   C     C_R   0.065291 0.680364 0.679542 -0.412134
C61   C     C_R   0.934732 0.320456 0.319639 -0.412205
C62   C     C_R   0.680360 0.679542 0.065284 -0.411944
C63   C     C_R   0.320461 0.319640 0.934712 -0.412304
C64   C     C_3   0.413815 0.191632 0.693840 0.119937
C65   C     C_3   0.309824 0.225148 0.719673 -0.815415
C66   C     C_3   0.433404 0.140565 0.244966 0.108004
C67   C     C_R   0.975851 0.177210 0.431142 0.947741
C68   C     C_3   0.496499 0.199891 0.182792 -0.800549
C69   C     C_3   0.191682 0.694047 0.413810 0.120068
C70   C     C_3   0.225281 0.719589 0.309836 -0.815469
C71   C     C_3   0.140661 0.244942 0.433300 0.108083
C72   C     C_3   0.200046 0.182891 0.496356 -0.800833
C73   C     C_3   0.694060 0.413828 0.191631 0.120148
C74   C     C_3   0.719356 0.309870 0.225291 -0.815613
C75   C     C_3   0.245533 0.433412 0.140583 0.107375
C76   C     C_3   0.182932 0.496411 0.199943 -0.800945
C77   C     C_3   0.305916 0.808330 0.586177 0.120138
C78   C     C_R   0.042023 0.821379 0.560489 0.892943
C79   C     C_3   0.280648 0.774654 0.690133 -0.815546
C80   C     C_3   0.755174 0.859377 0.566663 0.108170
C81   C     C_3   0.817139 0.800018 0.503569 -0.800600
C82   C     C_3   0.586187 0.306074 0.808328 0.119993
C83   C     C_3   0.690164 0.280486 0.774744 -0.815512
C84   C     C_3   0.566702 0.755127 0.859353 0.108043
C85   C     C_3   0.503628 0.817104 0.799976 -0.800607
C86   C     C_3   0.808376 0.586162 0.306362 0.119854
C87   C     C_3   0.774881 0.690156 0.280464 -0.815399
C88   C     C_3   0.859419 0.566653 0.754995 0.107989
C89   C     C_R   0.177213 0.431140 0.975853 0.948131
C90   C     C_3   0.800048 0.503589 0.817068 -0.800712
H1    H     H_    0.413205 0.001738 0.668168 0.205702
H2    H     H_    0.420786 0.642718 0.025206 0.197991
H3    H     H_    0.998336 0.586761 0.331807 0.205731
H4    H     H_    0.025343 0.420748 0.642674 0.197987
H5    H     H_    0.714920 0.077059 0.712611 0.220086
H6    H     H_    0.287382 0.922945 0.285075 0.220088
H7    H     H_    0.077048 0.712620 0.714928 0.220111
H8    H     H_    0.922938 0.285084 0.287394 0.220073
H9    H     H_    0.712608 0.714918 0.077068 0.220061
H10   H     H_    0.285075 0.287383 0.922954 0.220086
H11   H     H_    0.441424 0.230275 0.621048 0.128382
H12   H     H_    0.579255 0.974667 0.357327 0.198003
H13   H     H_    0.434386 0.206605 0.738828 0.119896
H14   H     H_    0.280182 0.188861 0.792458 0.257588
H15   H     H_    0.284894 0.299848 0.710414 0.203275
H16   H     H_    0.286770 0.212076 0.675453 0.250743
H17   H     H_    0.394657 0.160062 0.309334 0.129007
H18   H     H_    0.384546 0.154863 0.209302 0.122555
H19   H     H_    0.534941 0.183204 0.117119 0.280424
H20   H     H_    0.455608 0.273262 0.168214 0.191110
H21   H     H_    0.545825 0.187858 0.216549 0.248537
H22   H     H_    0.230461 0.621363 0.441598 0.128218
H23   H     H_    0.001821 0.668142 0.413181 0.205675
H24   H     H_    0.206416 0.739348 0.434196 0.119998
H25   H     H_    0.188836 0.792255 0.280012 0.257598
H26   H     H_    0.299932 0.710562 0.284912 0.203299
H27   H     H_    0.212481 0.675025 0.286974 0.250713
H28   H     H_    0.160121 0.309324 0.394457 0.129019
H29   H     H_    0.154938 0.209187 0.384531 0.122646
H30   H     H_    0.183463 0.117166 0.534818 0.280299
H31   H     H_    0.273409 0.168400 0.455436 0.191315
H32   H     H_    0.187962 0.216697 0.545659 0.248638
H33   H     H_    0.621425 0.441758 0.230421 0.128149
H34   H     H_    0.974823 0.357275 0.579209 0.198000
H35   H     H_    0.739511 0.434062 0.206313 0.120144
H36   H     H_    0.791957 0.279896 0.188811 0.257642
H37   H     H_    0.710408 0.284948 0.299927 0.203301
H38   H     H_    0.674604 0.287165 0.212581 0.250700
H39   H     H_    0.310106 0.395387 0.159753 0.129669
H40   H     H_    0.210467 0.383916 0.155196 0.122227
H41   H     H_    0.116940 0.533898 0.183809 0.280460
H42   H     H_    0.169093 0.455566 0.273336 0.191375
H43   H     H_    0.215951 0.546575 0.187366 0.248883
H44   H     H_    0.378540 0.769527 0.558230 0.128136
H45   H     H_    0.668192 0.413231 0.001698 0.205671
H46   H     H_    0.260434 0.793676 0.565955 0.120115
H47   H     H_    0.208056 0.811141 0.720126 0.257631
H48   H     H_    0.289583 0.700021 0.715048 0.203300
H49   H     H_    0.325426 0.787343 0.712824 0.250719
H50   H     H_    0.690840 0.839840 0.605653 0.128849
H51   H     H_    0.791055 0.845157 0.615300 0.122657
H52   H     H_    0.882800 0.816710 0.464920 0.280274
H53   H     H_    0.831779 0.726656 0.544480 0.191308
H54   H     H_    0.783183 0.812008 0.454431 0.248549
H55   H     H_    0.558429 0.378801 0.769632 0.128293
H56   H     H_    0.357324 0.579247 0.974678 0.198022
H57   H     H_    0.565766 0.260885 0.793475 0.120007
H58   H     H_    0.719960 0.207778 0.811103 0.257616
H59   H     H_    0.715086 0.289632 0.700069 0.203283
H60   H     H_    0.713057 0.324937 0.787671 0.250734
H61   H     H_    0.605653 0.690776 0.839846 0.128905
H62   H     H_    0.615371 0.790977 0.845119 0.122653
H63   H     H_    0.465048 0.882796 0.816611 0.280289
H64   H     H_    0.544548 0.831671 0.726615 0.191373
H65   H     H_    0.454429 0.783197 0.812012 0.248604
H66   H     H_    0.769854 0.558597 0.379219 0.128463
H67   H     H_    0.331837 0.998229 0.586793 0.205671
H68   H     H_    0.793227 0.565544 0.261536 0.119856
H69   H     H_    0.811041 0.719756 0.207615 0.257605
H70   H     H_    0.700143 0.715084 0.289907 0.203273
H71   H     H_    0.788139 0.713251 0.324521 0.250762
H72   H     H_    0.839963 0.605459 0.690611 0.129011
H73   H     H_    0.845124 0.615449 0.790726 0.122575
H74   H     H_    0.816636 0.465148 0.882792 0.280293
H75   H     H_    0.726682 0.544499 0.831558 0.191361
H76   H     H_    0.812137 0.454268 0.783279 0.248620
H77   H     H_    0.642712 0.025217 0.420777 0.198016
H78   H     H_    0.586822 0.331855 0.998194 0.205722
O1    O     O_R   0.982940 0.138950 0.510160 -0.576799
O2    O     O_R   0.982940 0.510160 0.138950 -0.590691
O3    O     O_R   0.861050 0.017060 0.489840 -0.576819
O4    O     O_R   0.138950 0.982940 0.510160 -0.590787
O5    O     O_R   0.867700 0.025880 0.612340 -0.642389
O6    O     O_R   0.132300 0.974120 0.387660 -0.638445
O7    O     O_R   0.025880 0.612340 0.867700 -0.642433
O8    O     O_R   0.974120 0.387660 0.132300 -0.638509
O9    O     O_R   0.612340 0.867700 0.025880 -0.642407
O10   O     O_R   0.387660 0.132300 0.974120 -0.638480
O11   O     O_R   0.387660 0.974120 0.132300 -0.642413
O12   O     O_R   0.017060 0.861050 0.489840 -0.590727
O13   O     O_R   0.612340 0.025880 0.867700 -0.638521
O14   O     O_R   0.132300 0.387660 0.974120 -0.642486
O15   O     O_R   0.867700 0.612340 0.025880 -0.638434
O16   O     O_R   0.974120 0.132300 0.387660 -0.642386
O17   O     O_R   0.025880 0.867700 0.612340 -0.638482
O18   O     O_3   0.444330 0.096684 0.705721 -0.617717
O19   O     O_3   0.486682 0.047599 0.263657 -0.605272
O20   O     O_3   0.096779 0.705687 0.444312 -0.617730
O21   O     O_3   0.047707 0.263614 0.486626 -0.605262
O22   O     O_3   0.705663 0.444324 0.096740 -0.617749
O23   O     O_R   0.138950 0.510160 0.982940 -0.576660
O24   O     O_3   0.263629 0.486680 0.047600 -0.605105
O25   O     O_3   0.294338 0.903215 0.555688 -0.617745
O26   O     O_3   0.736364 0.952331 0.513354 -0.605285
O27   O     O_3   0.555686 0.294291 0.903257 -0.617713
O28   O     O_3   0.513378 0.736368 0.952305 -0.605259
O29   O     O_3   0.903368 0.555653 0.294260 -0.617722
O30   O     O_3   0.952379 0.513341 0.736333 -0.605233
O31   O     O_R   0.861050 0.489840 0.017060 -0.590839
O32   O     O_R   0.510160 0.982940 0.138950 -0.576778
O33   O     O_R   0.489840 0.017060 0.861050 -0.590652
O34   O     O_R   0.489840 0.861050 0.017060 -0.576813
O35   O     O_R   0.510160 0.138950 0.982940 -0.590788
O36   O     O_R   0.017060 0.489840 0.861050 -0.576793
Zn1   Zn    Zn3+2 0.004880 0.004880 0.583590 0.979192
Zn2   Zn    Zn3+2 0.995120 0.995120 0.416410 0.979159
Zn3   Zn    Zn3+2 0.004880 0.583590 0.004880 0.979385
Zn4   Zn    Zn3+2 0.995120 0.416410 0.995120 0.979203
Zn5   Zn    Zn3+2 0.583590 0.004880 0.004880 0.979162
Zn6   Zn    Zn3+2 0.416410 0.995120 0.995120 0.979206

loop_
_geom_bond_atom_site_label_1
_geom_bond_atom_site_label_2
_ccdc_geom_bond_type
C16   C28   A    
C64   H13   S    
C79   H49   S    
C11   C18   A    
C10   O6    A    
C72   H31   S    
C6    O10   A    
C28   H45   S    
O15   Zn3   S    
C73   C74   S    
O33   Zn6   S    
C66   C68   S    
C61   H8    S    
C34   C42   A    
O7    Zn3   S    
C66   H17   S    
C75   C76   S    
C82   H57   S    
C48   C61   A    
O16   Zn2   S    
C67   O1    A    
C18   C25   A    
O11   Zn6   S    
C7    O36   A    
C78   O12   A    
O4    Zn1   S    
C24   H78   S    
O34   Zn6   S    
C41   O28   S    
O1    Zn1   S    
C46   C59   A    
C69   H22   S    
C3    O11   A    
C25   H12   S    
C10   C51   S    
C70   H27   S    
C88   O30   S    
C29   H34   S    
C1    C31   A    
C23   C43   A    
C87   H70   S    
O10   Zn6   S    
O13   Zn5   S    
C34   C35   A    
C85   H65   S    
O9    Zn5   S    
C19   C26   A    
C86   H66   S    
C53   C63   A    
C77   O25   S    
C47   C60   A    
C37   C56   A    
C81   H54   S    
C74   H38   S    
O36   Zn4   S    
C44   C58   A    
C40   C56   A    
C7    O7    A    
C79   H48   S    
C9    O5    A    
C77   H46   S    
C4    O13   A    
C43   O30   S    
C15   C34   S    
C73   O22   S    
C71   H28   S    
C75   H40   S    
C2    O15   A    
C83   H60   S    
C85   H64   S    
C39   C52   A    
C35   O21   S    
C66   O19   S    
C12   C32   A    
C50   C63   A    
C13   C25   A    
C9    C52   S    
C14   C30   A    
O12   Zn2   S    
C35   C48   A    
C8    C55   S    
C65   H15   S    
C8    O2    A    
C15   C29   A    
C20   C29   A    
C77   C79   S    
C64   H11   S    
C39   O26   S    
C69   H24   S    
C17   C24   A    
C31   C44   A    
C13   C19   A    
C2    O31   A    
C19   H67   S    
O17   Zn1   S    
C5    C54   S    
C84   C85   S    
C60   H7    S    
C5    O34   A    
C1    C39   A    
C86   C87   S    
C57   C60   A    
C85   H63   S    
C38   C51   A    
C4    C44   S    
C11   C26   A    
C23   C33   A    
C26   H1    S    
C80   H50   S    
C82   C83   S    
C62   H9    S    
C90   H74   S    
C68   H21   S    
C17   C27   A    
C14   C23   S    
C90   H76   S    
C58   H5    S    
C63   H10   S    
C2    C49   S    
C14   C20   A    
C42   C55   A    
C50   C89   S    
C74   H37   S    
C17   C56   S    
C15   C21   A    
C18   H77   S    
C72   H30   S    
C3    O32   A    
C89   O23   A    
C36   C45   A    
C78   O17   A    
C68   H20   S    
C71   O21   S    
O3    Zn2   S    
C86   H68   S    
C69   O20   S    
C5    O9    A    
C82   O27   S    
C52   C58   A    
C84   H62   S    
C81   H52   S    
C79   H47   S    
C88   C90   S    
C80   H51   S    
C22   C27   A    
C90   H75   S    
C33   C47   A    
C36   O22   S    
C9    O3    A    
C51   C59   A    
C59   H6    S    
C6    C53   S    
C73   H35   S    
C65   H16   S    
C82   H55   S    
C80   O26   S    
C20   H4    S    
C16   C22   A    
C49   C62   A    
C32   O19   S    
C72   H32   S    
O23   Zn3   S    
C32   C46   A    
C42   O29   S    
C22   H2    S    
C24   C28   A    
C66   H18   S    
C80   C81   S    
C16   C45   S    
C76   H43   S    
C8    O8    A    
C70   H25   S    
C88   H73   S    
C54   C62   A    
C21   C30   A    
C3    C46   S    
O2    Zn3   S    
O32   Zn5   S    
C65   H14   S    
C38   O25   S    
C71   H29   S    
C70   H26   S    
C89   O14   A    
O8    Zn4   S    
C40   O27   S    
C75   O24   S    
C6    O35   A    
C87   H71   S    
C64   C65   S    
C37   C50   A    
C76   H42   S    
C4    O33   A    
C74   H36   S    
C21   H3    S    
C84   O28   S    
C27   H56   S    
C88   H72   S    
C55   C61   A    
C31   O18   S    
O31   Zn4   S    
C76   H41   S    
C87   H69   S    
C33   O20   S    
O14   Zn4   S    
C68   H19   S    
C48   C67   S    
C12   C38   A    
C69   C70   S    
C41   C54   A    
C67   O16   A    
C43   C57   A    
C86   O29   S    
C83   H58   S    
C84   H61   S    
C81   H53   S    
C37   O24   S    
C71   C72   S    
C12   C13   S    
C40   C53   A    
C77   H44   S    
O6    Zn2   S    
C41   C45   A    
O35   Zn5   S    
O5    Zn1   S    
C1    C11   S    
C47   C78   S    
C10   O4    A    
C7    C57   S    
C64   O18   S    
C36   C49   A    
C75   H39   S    
C83   H59   S    
C30   H23   S    
C73   H33   S    
