data_mof_unit_49969.cif
_audit_creation_date              2013-03-05T16:00:39-0500
_audit_creation_method            fapswitch 2.2
_symmetry_space_group_name_H-M    P1
_symmetry_Int_Tables_number       1
_space_group_crystal_system       triclinic
_cell_length_a                    10.753897
_cell_length_b                    14.702168
_cell_length_c                    14.890713
_cell_angle_alpha                 64.995662
_cell_angle_beta                  103.981709
_cell_angle_gamma                 103.376417
_cell_volume                      2047.96269567

loop_
_atom_site_label
_atom_site_type_symbol
_atom_site_description
_atom_site_fract_x
_atom_site_fract_y
_atom_site_fract_z
_atom_type_partial_charge
O1    O     O_R   0.455060 0.022100 0.338110 -0.602749
O2    O     O_R   0.512640 0.160150 0.379180 -0.548344
C1    C     C_R   0.478630 0.119604 0.312892 0.852046
O3    O     O_R   0.288900 0.930980 0.479450 -0.551848
O4    O     O_R   0.346480 0.069030 0.520520 -0.585586
C2    C     C_R   0.259657 0.001229 0.498230 0.888639
Cu1   Cu    Cu3+1 0.465900 0.918260 0.475680 1.020817
Cu2   Cu    Cu3+1 0.534100 0.081740 0.524320 0.985989
O5    O     O_R   0.487360 0.839850 0.620820 -0.522538
O6    O     O_R   0.544940 0.977900 0.661890 -0.598027
O7    O     O_R   0.653520 0.930970 0.479480 -0.606259
O8    O     O_R   0.711100 0.069020 0.520550 -0.604953
C3    C     C_R   0.519618 0.879517 0.687430 0.852498
C4    C     C_R   0.740016 0.999830 0.500496 0.783259
C5    C     C_3   0.039286 0.025504 0.386080 0.520578
C6    C     C_3   0.892669 0.011528 0.394284 -0.436232
H1    H     H_    0.841316 0.073496 0.335084 0.188200
H2    H     H_    0.838790 0.942436 0.381769 0.200252
H3    H     H_    0.063767 0.837513 0.549815 0.180776
H4    H     H_    0.859107 0.834383 0.563136 0.161974
C7    C     C_3   0.063873 0.898663 0.574672 0.172298
C8    C     C_3   0.108170 0.089012 0.527083 -0.377082
C9    C     C_3   0.121043 0.002752 0.496264 -0.165148
H5    H     H_    0.150206 0.164577 0.476032 0.228873
C10   C     C_3   0.877559 0.000715 0.499431 0.005190
C11   C     C_3   0.921715 0.899831 0.578296 -0.427371
C12   C     C_3   0.965196 0.090003 0.524645 -0.354443
H6    H     H_    0.909408 0.890188 0.654039 0.208901
C13   C     C_R   0.450775 0.186896 0.207299 -0.047790
C14   C     C_R   0.527157 0.810045 0.794346 -0.125916
C15   C     C_R   0.312809 0.221447 0.046052 -0.147795
C16   C     C_R   0.360493 0.152290 0.139389 -0.109175
C17   C     C_R   0.500717 0.289894 0.178549 -0.150824
C18   C     C_R   0.450884 0.361810 0.086263 0.109111
C19   C     C_R   0.354228 0.325728 0.020228 0.141937
C20   C     C_R   0.491078 0.468262 0.058591 0.072270
C21   C     C_R   0.441430 0.535446 0.961604 0.067745
C22   C     C_R   0.335359 0.497330 0.904126 -0.095791
C23   C     C_R   0.295063 0.394133 0.931340 -0.202319
C24   C     C_R   0.574703 0.510647 0.124933 -0.132880
C25   C     C_R   0.605425 0.615184 0.096692 -0.183058
C26   C     C_R   0.567436 0.680370 0.998075 0.107652
C27   C     C_R   0.494326 0.640085 0.927060 -0.010793
C28   C     C_R   0.606590 0.784959 0.968828 -0.171956
C29   C     C_R   0.582734 0.849460 0.868324 -0.218718
C30   C     C_R   0.484794 0.703830 0.823557 0.317414
H7    H     H_    0.239372 0.193717 0.995720 0.145903
H8    H     H_    0.278684 0.547035 0.839584 0.206837
H9    H     H_    0.614073 0.465665 0.200698 0.171982
H10   H     H_    0.658477 0.816744 0.023538 0.157287
N1    N     N_R   0.585360 0.204570 0.560800 -0.199415
N2    N     N_R   0.414550 0.795430 0.439160 -0.199932
C31   C     C_R   0.743638 0.302946 0.638606 -0.295268
C32   C     C_R   0.701015 0.215140 0.619578 0.069000
C33   C     C_R   0.507837 0.278446 0.519872 0.082454
C34   C     C_R   0.550832 0.374101 0.528016 -0.008995
C35   C     C_R   0.669251 0.382434 0.593267 0.148888
C36   C     C_R   0.480874 0.460059 0.476997 -0.051013
C37   C     C_R   0.523991 0.546601 0.504611 0.041543
C38   C     C_R   0.640575 0.548611 0.572673 -0.132970
C39   C     C_R   0.712614 0.469333 0.614018 -0.164382
C40   C     C_R   0.372146 0.465280 0.398270 0.282952
C41   C     C_R   0.301239 0.545902 0.359505 -0.222100
C42   C     C_R   0.339198 0.627311 0.389225 0.070705
C43   C     C_R   0.451458 0.630050 0.461097 -0.013843
C44   C     C_R   0.267872 0.708603 0.343708 -0.252429
C45   C     C_R   0.308046 0.792555 0.369317 0.123786
C46   C     C_R   0.485741 0.717457 0.485368 0.110879
H11   H     H_    0.802732 0.475546 0.664409 0.153446
H12   H     H_    0.254297 0.855841 0.333403 0.190524
H13   H     H_    0.218809 0.547823 0.300277 0.187498
H14   H     H_    0.760243 0.155080 0.651902 0.127372
H15   H     H_    0.412650 0.259843 0.482994 0.178068
H16   H     H_    0.182363 0.707818 0.287645 0.161462
N3    N     N_R   0.054686 0.955742 0.342392 0.089459
O9    O     O_R   0.013048 0.859008 0.381544 -0.424259
O10   O     O_R   0.093638 0.991696 0.255914 -0.351127
H17   H     H_    0.952824 0.084293 0.599060 0.187486
N4    N     N_R   0.142342 0.871805 0.675671 0.119726
O11   O     O_R   0.202724 0.793410 0.712543 -0.346085
O12   O     O_R   0.140446 0.917055 0.733808 -0.375755
H18   H     H_    0.215473 0.367876 0.883426 0.151570
N5    N     N_R   0.456236 0.658374 0.750675 0.100538
O13   O     O_R   0.533539 0.600321 0.754102 -0.391560
O14   O     O_R   0.348301 0.667138 0.686999 -0.327641
H19   H     H_    0.615615 0.929981 0.847981 0.177067
H20   H     H_    0.664701 0.644936 0.151120 0.153791
H21   H     H_    0.321323 0.072608 0.160495 0.177762
H22   H     H_    0.575622 0.311824 0.231353 0.154253
N6    N     N_R   0.083355 0.131251 0.318989 0.138577
O15   O     O_R   0.202170 0.157367 0.301903 -0.325666
O16   O     O_R   0.007668 0.200721 0.277877 -0.338165
H23   H     H_    0.567691 0.725708 0.540758 0.134952
H24   H     H_    0.835145 0.309258 0.687450 0.146652
H25   H     H_    0.681295 0.611968 0.594196 0.145939
N7    N     N_R   0.340649 0.398290 0.346135 0.098669
O17   O     O_R   0.428899 0.387650 0.306595 -0.386823
O18   O     O_R   0.220131 0.364251 0.321124 -0.309913
H26   H     H_    0.163997 0.080586 0.602507 0.229209
H27   H     H_    0.936685 0.163648 0.467419 0.212280

loop_
_geom_bond_atom_site_label_1
_geom_bond_atom_site_label_2
_geom_bond_distance
_ccdc_geom_bond_type
C36   C40   1.431922 A    
C5    N3    1.482325 S    
C33   C34   1.422142 A    
C40   N7    1.432617 S    
C25   C26   1.394026 A    
C14   C29   1.402760 A    
C7    C11   1.546965 S    
C12   H17   1.113578 S    
Cu1   Cu2   2.690479 S    
C31   C32   1.389079 A    
Cu1   O7    1.971887 S    
C21   C22   1.409134 A    
C8    H5    1.111853 S    
C20   C21   1.418418 A    
H3    C7    1.107219 S    
Cu1   N2    2.021262 S    
C13   C16   1.398580 A    
O4    C2    1.294173 A    
O7    C4    1.295970 A    
C30   N5    1.440791 S    
C28   H10   1.083945 S    
C5    C6    1.570059 S    
C16   H21   1.083054 S    
C13   C17   1.396998 A    
C34   C35   1.418215 A    
C18   C19   1.421513 A    
C1    C13   1.461260 S    
O5    C3    1.293586 A    
C15   C16   1.389480 A    
C6    H1    1.109381 S    
N7    O18   1.301192 A    
C22   H8    1.076316 S    
N2    C46   1.363250 A    
C5    C9    1.597469 S    
C44   C45   1.388187 A    
C37   C38   1.412114 A    
C15   H7    1.083952 S    
C26   C28   1.397969 A    
O3    Cu1   1.971401 S    
C25   H20   1.084239 S    
C12   H27   1.113486 S    
C3    C14   1.478422 S    
C20   C24   1.415905 A    
O3    C2    1.296433 A    
N4    O12   1.301580 A    
C31   C35   1.402153 A    
C10   C11   1.545462 S    
N4    O11   1.300221 A    
C38   C39   1.385072 A    
O1    C1    1.297328 A    
C42   C44   1.401539 A    
C21   C27   1.422114 A    
C19   C23   1.389961 A    
N3    O9    1.301395 A    
C40   C41   1.395251 A    
C17   H22   1.076637 S    
N6    O16   1.302194 A    
N5    O13   1.301198 A    
Cu2   O8    1.971402 S    
C43   C46   1.423710 A    
N7    O17   1.299364 A    
C7    N4    1.472666 S    
C17   C18   1.404116 A    
N3    O10   1.302267 A    
Cu2   N1    2.020915 S    
N2    C45   1.354388 A    
Cu2   O6    1.965667 S    
C24   C25   1.390658 A    
N5    O14   1.302702 A    
O8    C4    1.291774 A    
C8    C12   1.532473 S    
C7    C9    1.576115 S    
C15   C19   1.401856 A    
C26   C27   1.414011 A    
C28   C29   1.390005 A    
C39   H11   1.084511 S    
C6    C10   1.550378 S    
Cu1   O5    1.956785 S    
C8    H26   1.108216 S    
C31   H24   1.083945 S    
O1    Cu1   1.965667 S    
C14   C30   1.423965 A    
O2    Cu2   1.956785 S    
C23   H18   1.084209 S    
C41   H13   1.084963 S    
O6    C3    1.309109 A    
O4    Cu2   1.971887 S    
C35   C39   1.390563 A    
C10   C12   1.557449 S    
C11   H6    1.112652 S    
C46   H23   1.074969 S    
N1    C32   1.355227 A    
C42   C43   1.412101 A    
C45   H12   1.079178 S    
C29   H19   1.083133 S    
C36   C37   1.442266 A    
C37   C43   1.435286 A    
C5    N6    1.488153 S    
N6    O15   1.300860 A    
C22   C23   1.383772 A    
H4    C11   1.113804 S    
C2    C9    1.489023 S    
C18   C20   1.426167 A    
C34   C36   1.446499 A    
O2    C1    1.298273 A    
N1    C33   1.363806 A    
C4    C10   1.480025 S    
C27   C30   1.418193 A    
C41   C42   1.389038 A    
C33   H15   1.072379 S    
C38   H25   1.076082 S    
C32   H14   1.081593 S    
C6    H2    1.112578 S    
C8    C9    1.562705 S    
C24   H9    1.075846 S    
C44   H16   1.083939 S    
