data_mof_unit_17758.cif
_audit_creation_date              2012-12-11T15:20:38-0500
_audit_creation_method            fapswitch 2.2
_symmetry_space_group_name_H-M    P1
_symmetry_Int_Tables_number       1
_space_group_crystal_system       triclinic
_cell_length_a                    13.053227
_cell_length_b                    13.033993
_cell_length_c                    15.316579
_cell_angle_alpha                 117.064493
_cell_angle_beta                  62.757087
_cell_angle_gamma                 97.966252
_cell_volume                      2055.12083113

loop_
_atom_site_label
_atom_site_type_symbol
_atom_type_description
_atom_site_fract_x
_atom_site_fract_y
_atom_site_fract_z
_atom_type_partial_charge
C1    C     C_R   0.021854 0.835032 0.032416 -0.072791
C2    C     C_R   0.320814 0.517517 0.780402 -0.061456
C3    C     C_R   0.243910 0.481200 0.106923 -0.215323
C4    C     C_R   0.699616 0.405915 0.210932 0.002068
C5    C     C_R   0.984516 0.300058 0.696795 -0.140092
C6    C     C_R   0.332801 0.548364 0.078668 -0.160753
C7    C     C_R   0.924579 0.204495 0.697302 0.060487
C8    C     C_R   0.330284 0.441639 0.677072 0.003406
C9    C     C_R   0.074552 0.142883 0.976712 0.090065
C10   C     C_R   0.929316 0.043883 0.425233 -0.149588
C11   C     C_R   0.921397 0.139082 0.519733 -0.159070
C12   C     C_R   0.704065 0.430124 0.306708 0.024081
C13   C     C_R   0.886901 0.126484 0.615305 0.133598
C14   C     C_R   0.835705 0.026910 0.622027 -0.145868
C15   C     C_R   0.843617 0.931826 0.527583 -0.141784
C16   C     C_R   0.744911 0.545601 0.917218 -0.120875
C17   C     C_R   0.903059 0.936765 0.426897 0.146063
C18   C     C_R   0.637405 0.428432 0.485942 -0.150171
C19   C     C_R   0.544176 0.428334 0.578665 -0.148302
C20   C     C_R   0.438429 0.394434 0.576019 0.133389
C21   C     C_R   0.435232 0.336397 0.474747 -0.130727
C22   C     C_R   0.528478 0.336190 0.381920 -0.125688
C23   C     C_R   0.645542 0.500763 0.967049 0.116316
C24   C     C_R   0.625576 0.392950 0.390035 0.122264
C25   C     C_2   0.441294 0.549919 0.079869 0.577737
C26   C     C_2   0.533752 0.516979 0.980810 -0.319130
C27   C     C_2   0.881973 0.967751 0.044970 -0.188265
C28   C     C_R   0.941237 0.719691 0.316470 -0.103400
C29   C     C_2   0.873057 0.059659 0.136930 -0.113436
C30   C     C_R   0.668598 0.436839 0.006317 0.263551
C31   C     C_R   0.030076 0.821503 0.222584 -0.035759
C32   C     C_R   0.800994 0.488923 0.304910 -0.129261
C33   C     C_R   0.917690 0.749416 0.940731 -0.103428
C34   C     C_R   0.953044 0.830529 0.325673 0.011180
C35   C     C_R   0.941571 0.855928 0.005009 0.103239
C36   C     C_R   0.317133 0.588315 0.017466 0.447484
C37   C     C_R   0.903829 0.199632 0.792160 -0.125569
C38   C     C_R   0.219456 0.434464 0.684616 -0.108188
C39   C     C_R   0.091951 0.249940 0.047942 -0.125952
C40   C     C_R   0.992284 0.165709 0.951980 -0.109923
H1    H     H_    0.067990 0.899770 0.071080 0.109779
H2    H     H_    0.953923 0.217644 0.513702 0.109609
H3    H     H_    0.801100 0.016949 0.696461 0.127223
H4    H     H_    0.645651 0.347023 0.179171 0.128971
H5    H     H_    0.813976 0.852397 0.533054 0.117881
H6    H     H_    0.713645 0.466520 0.493574 0.111856
H7    H     H_    0.552404 0.466316 0.654017 0.124915
H8    H     H_    0.357426 0.301964 0.468280 0.118716
H9    H     H_    0.518727 0.301206 0.307527 0.135926
H10   H     H_    0.525608 0.491082 0.906123 0.131928
H11   H     H_    0.836845 0.973794 0.002820 0.147046
H12   H     H_    0.846836 0.145328 0.826515 0.115040
H13   H     H_    0.912409 0.058014 0.185265 0.117749
H14   H     H_    0.758479 0.586619 0.865845 0.122615
H15   H     H_    0.891403 0.692807 0.379992 0.097596
H16   H     H_    0.069264 0.891124 0.203170 0.103796
H17   H     H_    0.840364 0.506555 0.358277 0.088124
H18   H     H_    0.862576 0.734686 0.901793 0.107885
H19   H     H_    0.262525 0.656221 0.318612 0.335911
H20   H     H_    0.396865 0.883164 0.119814 0.377808
H21   H     H_    0.194079 0.384059 0.620260 0.102438
H22   H     H_    0.150666 0.264904 0.083489 0.118761
H23   H     H_    0.958502 0.102250 0.898323 0.104742
H24   H     H_    0.389378 0.541988 0.804500 0.139150
H25   H     H_    0.225535 0.444534 0.162748 0.150621
H26   H     H_    0.001717 0.339650 0.643510 0.089898
H27   H     H_    0.966656 0.052426 0.349869 0.102627
I1    I     I_    0.588229 0.284018 0.007887 -0.453428
N1    N     N_R   0.037310 0.720000 0.995790 -0.034935
N2    N     N_R   0.824890 0.517960 0.936420 -0.064614
N3    N     N_R   0.003210 0.648190 0.211380 -0.048265
N4    N     N_R   0.774330 0.457010 0.995840 -0.068943
N5    N     N_R   0.053760 0.709140 0.151960 -0.031718
N6    N     N_R   0.853860 0.498840 0.211410 -0.043863
N7    N     N_R   0.974240 0.667310 0.936390 -0.053249
N8    N     N_R   0.225670 0.542990 0.004160 -0.101567
N9    N     N_R   0.946240 0.290860 0.848040 -0.043851
N10   N     N_R   0.146140 0.501160 0.788590 -0.051660
N11   N     N_R   0.025760 0.332690 0.063610 -0.048673
N12   N     N_R   0.962690 0.280000 0.004210 -0.049628
N13   N     N_R   0.209210 0.553840 0.847990 -0.030130
N14   N     N_R   0.175110 0.482040 0.063580 -0.066613
N15   N     N_R   0.996790 0.351810 0.788620 -0.044640
N16   N     N_R   0.790790 0.446160 0.152010 -0.042985
Ni1   Ni    Ni4+2 0.130310 0.630310 0.999970 0.334637
Ni2   Ni    Ni4+2 0.869690 0.369690 0.000030 0.238709
Ni3   Ni    Ni4+2 0.985640 0.509470 0.863740 0.215048
Ni4   Ni    Ni4+2 0.014360 0.490530 0.136260 0.212152
O1    O     O_2   0.443883 0.515954 0.239695 -0.313520
O2    O     O_2   0.552076 0.672386 0.202665 -0.239271
O3    O     O_3   0.328296 0.704438 0.304983 -0.462026
O4    O     O_2   0.488641 0.695757 0.919534 -0.331284
O5    O     O_2   0.290370 0.769112 0.987622 -0.330244
O6    O     O_3   0.367038 0.813103 0.129644 -0.485663
S1    S     S_3+6 0.445115 0.609898 0.208195 0.013209
S2    S     S_3+6 0.367326 0.718544 0.009738 -0.061718

loop_
_geom_bond_atom_site_label_1
_geom_bond_atom_site_label_2
_ccdc_geom_bond_type
N10   Ni3   S    
N15   Ni3   S    
C33   H18   S    
C27   C29   D    
C19   C20   A    
O4    S2    D    
C3    C6    A    
O2    S1    D    
C10   H27   S    
C8    C20   S    
C40   H23   S    
C18   C24   A    
N16   Ni2   S    
C26   H10   S    
C32   N6    A    
C5    N15   A    
C19   H7    S    
C31   N5    A    
C6    C25   S    
N9    N15   A    
C10   C17   A    
C9    C39   A    
C11   H2    S    
C18   C19   A    
C23   C26   S    
N12   Ni2   S    
C36   N8    A    
C33   N7    A    
C2    H24   S    
C40   N12   A    
C31   H16   S    
C4    C12   A    
N13   Ni1   S    
C21   H8    S    
C28   C34   A    
C13   C14   A    
C12   C32   A    
C3    H25   S    
C8    C38   A    
C32   H17   S    
N2    Ni3   S    
C18   H6    S    
N11   Ni4   S    
C28   H15   S    
C27   H11   S    
C23   C30   A    
C16   N2    A    
N8    N14   A    
N3    N5    A    
C37   H12   S    
C4    H4    S    
C27   C35   S    
C25   C26   D    
C37   N9    A    
C9    C40   A    
C1    N1    A    
N11   N12   A    
C39   N11   A    
O1    S1    D    
C36   S2    S    
N4    Ni2   S    
C4    N16   A    
C3    N14   A    
C7    C37   A    
C31   C34   A    
H19   O3    S    
O6    S2    S    
N5    Ni1   S    
C22   H9    S    
N7    Ni3   S    
N9    Ni2   S    
C25   S1    S    
C16   C23   A    
C22   C24   A    
C28   N3    A    
C17   C34   S    
C15   H5    S    
N1    Ni1   S    
C1    C35   A    
C5    C7    A    
C1    H1    S    
C15   C17   A    
C39   H22   S    
C2    C8    A    
N6    N16   A    
C5    H26   S    
C30   N4    A    
O5    S2    D    
C38   N10   A    
C12   C24   S    
C38   H21   S    
C11   C13   A    
N10   N13   A    
C29   H13   S    
N14   Ni4   S    
C33   C35   A    
C6    C36   A    
N1    N7    A    
C16   H14   S    
C10   C11   A    
O3    S1    S    
N3    Ni4   S    
C7    C13   S    
C20   C21   A    
C14   C15   A    
C2    N13   A    
N2    N4    A    
N6    Ni4   S    
C21   C22   A    
N8    Ni1   S    
C30   I1    S    
C14   H3    S    
H20   O6    S    
