data_mof_unit_35131.cif
_audit_creation_date              2012-12-11T14:36:06-0500
_audit_creation_method            fapswitch 2.2
_symmetry_space_group_name_H-M    P1
_symmetry_Int_Tables_number       1
_space_group_crystal_system       triclinic
_cell_length_a                    13.47369
_cell_length_b                    13.472999
_cell_length_c                    27.505665
_cell_angle_alpha                 90.642219
_cell_angle_beta                  90.181404
_cell_angle_gamma                 60.071844
_cell_volume                      4327.01675303

loop_
_atom_site_label
_atom_site_type_symbol
_atom_type_description
_atom_site_fract_x
_atom_site_fract_y
_atom_site_fract_z
_atom_type_partial_charge
C1    C     C_R   0.620282 0.101315 0.570243 0.547199
C2    C     C_1   0.631184 0.732349 0.616508 -0.011803
C3    C     C_3   0.699852 0.561226 0.768012 -0.101775
C4    C     C_3   0.679067 0.655177 0.805597 0.052425
C5    C     C_3   0.590377 0.648205 0.740814 -0.098808
C6    C     C_3   0.663282 0.683890 0.710895 0.052562
C7    C     C_3   0.569805 0.741697 0.779123 -0.101822
C8    C     C_3   0.642512 0.777853 0.748471 -0.103472
C9    C     C_1   0.687816 0.634369 0.857974 -0.058266
C10   C     C_1   0.649481 0.705258 0.658568 -0.056427
C11   C     C_3   0.090843 0.133532 0.738126 -0.101143
C12   C     C_R   0.599709 0.779507 0.568802 0.544575
C13   C     C_3   0.182551 0.060271 0.776408 -0.099946
C14   C     C_1   0.096583 0.201586 0.901764 -0.014958
C15   C     C_1   0.230179 0.137733 0.617721 -0.013293
C16   C     C_3   0.055060 0.242345 0.769631 -0.101741
C17   C     C_3   0.147191 0.168913 0.807074 0.052457
C18   C     C_3   0.144006 0.263223 0.743048 -0.098970
C19   C     C_3   0.179397 0.154695 0.712302 0.052498
C20   C     C_3   0.235673 0.190053 0.781183 -0.101839
C21   C     C_3   0.271559 0.081222 0.749722 -0.103198
C22   C     C_1   0.124316 0.182404 0.859547 -0.057898
C23   C     C_R   0.277908 0.121735 0.569771 0.543786
C24   C     C_1   0.202316 0.146718 0.659880 -0.056756
C25   C     C_3   0.628775 0.277358 0.739857 -0.100913
C26   C     C_3   0.554707 0.258867 0.777782 -0.099987
C27   C     C_1   0.691076 0.208129 0.902924 -0.015154
C28   C     C_1   0.635580 0.133290 0.618406 -0.012504
C29   C     C_3   0.736834 0.205025 0.771052 -0.101520
C30   C     C_3   0.662612 0.186264 0.808146 0.052514
C31   C     C_3   0.758641 0.094896 0.743665 -0.099064
C32   C     C_3   0.650827 0.167380 0.713237 0.052452
C33   C     C_3   0.684657 0.076354 0.781474 -0.102011
C34   C     C_R   0.622451 0.100324 0.431518 0.546956
C35   C     C_3   0.576570 0.148620 0.750306 -0.103412
C36   C     C_1   0.674179 0.197108 0.860667 -0.058132
C37   C     C_1   0.643900 0.152262 0.660711 -0.056676
C38   C     C_R   0.730769 0.708418 0.358077 -0.165998
C39   C     C_R   0.741901 0.695418 0.307521 0.000585
C40   C     C_R   0.760179 0.670617 0.205919 -0.008980
C41   C     C_R   0.853587 0.657277 0.233669 -0.095862
C42   C     C_R   0.843912 0.671496 0.284153 -0.083114
C43   C     C_R   0.772704 0.643164 0.156500 -0.180275
C44   C     C_R   0.681148 0.647739 0.130025 0.010547
C45   C     C_R   0.601190 0.776073 0.429970 0.562602
C46   C     C_R   0.544740 0.719452 0.352896 0.225133
C47   C     C_R   0.546448 0.728575 0.302544 0.030247
C48   C     C_R   0.647280 0.710794 0.279623 0.028793
C49   C     C_R   0.448332 0.758681 0.274684 -0.111129
C50   C     C_R   0.452462 0.763268 0.224514 -0.134911
C51   C     C_R   0.557730 0.724707 0.200913 0.018499
C52   C     C_R   0.654745 0.703412 0.228713 0.023522
C53   C     C_R   0.570278 0.698852 0.150864 0.268025
C54   C     C_R   0.630578 0.724635 0.380971 0.006344
C55   C     C_R   0.203871 0.063665 0.358665 -0.121774
C56   C     C_R   0.278044 0.120937 0.430884 0.544771
C57   C     C_R   0.178116 0.076858 0.308955 0.018421
C58   C     C_R   0.139615 0.098633 0.208244 0.013941
C59   C     C_R   0.140305 0.008015 0.233226 -0.126301
C60   C     C_R   0.160260 0.996767 0.283244 -0.116203
C61   C     C_R   0.114397 0.113645 0.158751 -0.123540
C62   C     C_R   0.107866 0.208205 0.134828 -0.017645
C63   C     C_R   0.205624 0.243245 0.359290 -0.124293
C64   C     C_R   0.187530 0.253591 0.309672 -0.032165
C65   C     C_R   0.174503 0.169941 0.284105 0.052182
C66   C     C_R   0.187748 0.343878 0.285191 -0.095014
C67   C     C_3   0.772638 0.597304 0.737309 -0.100915
C68   C     C_R   0.175382 0.352096 0.234991 0.217372
C69   C     C_R   0.159119 0.270600 0.208933 0.022651
C70   C     C_R   0.158406 0.179335 0.233691 0.029940
C71   C     C_R   0.137491 0.281446 0.159214 -0.116199
C72   C     C_R   0.221648 0.145010 0.383470 -0.001827
C73   C     C_R   0.557381 0.235033 0.362111 -0.119306
C74   C     C_R   0.564742 0.251597 0.312537 0.013504
C75   C     C_R   0.574554 0.277126 0.211477 0.029346
C76   C     C_R   0.482429 0.360519 0.239090 -0.088714
C77   C     C_R   0.477006 0.347197 0.289103 -0.118613
C78   C     C_3   0.752093 0.690840 0.775751 -0.100115
C79   C     C_R   0.583130 0.290385 0.161122 0.251468
C80   C     C_R   0.681777 0.208763 0.135797 0.005847
C81   C     C_R   0.742160 0.060126 0.358655 -0.101491
C82   C     C_R   0.749429 0.072362 0.308850 0.027531
C83   C     C_R   0.659076 0.168240 0.285530 0.029007
C84   C     C_R   0.841994 0.988239 0.281378 0.229002
C85   C     C_R   0.842632 0.998778 0.231249 -0.083855
C86   C     C_R   0.754028 0.093814 0.208185 -0.043932
C87   C     C_R   0.662362 0.179808 0.235048 0.008352
C88   C     C_R   0.760197 0.106677 0.158781 -0.172110
C89   C     C_1   0.696805 0.608341 0.900165 -0.013881
C90   C     C_R   0.643687 0.136664 0.384675 -0.019005
C91   C     C_R   0.049153 0.236279 0.949716 0.546164
C92   C     C_R   0.711463 0.563102 0.948188 0.546779
C93   C     C_R   0.722043 0.225506 0.950893 0.540263
C94   C     C_R   0.048780 0.244660 0.088260 0.546910
C95   C     C_R   0.706661 0.577554 0.085638 0.568989
C96   C     C_R   0.718382 0.233266 0.089304 0.556070
Cr1   Cr    Cr6+3 0.417550 0.169090 0.500530 1.034885
Cr2   Cr    Cr6+3 0.669180 0.913420 0.499920 1.039504
Cr3   Cr    Cr6+3 0.413260 0.917540 0.499520 1.079066
Cr4   Cr    Cr6+3 0.909170 0.177380 0.020380 1.024029
Cr5   Cr    Cr6+3 0.912710 0.429210 0.018220 1.027407
Cr6   Cr    Cr6+3 0.657170 0.432570 0.019030 1.042653
H1    H     H_    0.818193 0.708811 0.790733 0.104765
H2    H     H_    0.295472 0.212880 0.799279 0.103597
H3    H     H_    0.127696 0.346837 0.728836 0.105505
H4    H     H_    0.965623 0.308996 0.778365 0.099185
H5    H     H_    0.470759 0.325936 0.792389 0.104705
H6    H     H_    0.606288 0.359747 0.722301 0.104445
H7    H     H_    0.510356 0.125332 0.741179 0.100401
H8    H     H_    0.707210 0.993904 0.798993 0.103801
H9    H     H_    0.842659 0.027797 0.729118 0.105602
H10   H     H_    0.803131 0.228216 0.780149 0.099547
H11   H     H_    0.856713 0.607807 0.139933 0.151159
H12   H     H_    0.855762 0.537721 0.719638 0.104551
H13   H     H_    0.798289 0.709137 0.379360 0.145808
H14   H     H_    0.934449 0.634148 0.216394 0.186517
H15   H     H_    0.917109 0.660290 0.304987 0.175376
H16   H     H_    0.373872 0.790929 0.204699 0.144567
H17   H     H_    0.367254 0.781042 0.291410 0.174038
H18   H     H_    0.092590 0.056176 0.139752 0.129955
H19   H     H_    0.215328 0.988159 0.377286 0.162309
H20   H     H_    0.125216 0.946024 0.214102 0.124433
H21   H     H_    0.618853 0.867312 0.739818 0.100362
H22   H     H_    0.161532 0.925672 0.301822 0.174276
H23   H     H_    0.134187 0.352691 0.140026 0.187696
H24   H     H_    0.199413 0.407305 0.305037 0.146973
H25   H     H_    0.217202 0.307852 0.378167 0.139403
H26   H     H_    0.481492 0.294926 0.382318 0.138049
H27   H     H_    0.414503 0.436313 0.222188 0.200929
H28   H     H_    0.404141 0.411723 0.309471 0.144299
H29   H     H_    0.833443 0.040283 0.139177 0.143978
H30   H     H_    0.486621 0.801274 0.796758 0.104107
H31   H     H_    0.914007 0.933553 0.210357 0.143055
H32   H     H_    0.808929 0.985608 0.376675 0.199243
H33   H     H_    0.524231 0.630208 0.725899 0.106139
H34   H     H_    0.723416 0.471792 0.776659 0.098733
H35   H     H_    0.198819 0.976740 0.790692 0.105172
H36   H     H_    0.031042 0.110776 0.719988 0.104729
H37   H     H_    0.361014 0.014665 0.740956 0.100223
O1    O     O_R   0.301710 0.195650 0.554160 -0.505738
O2    O     O_R   0.658900 0.818120 0.449760 -0.510993
O3    O     O_R   0.503220 0.801620 0.445520 -0.439070
O4    O     O_R   0.319370 0.022040 0.450020 -0.487666
O5    O     O_3   0.499990 0.000010 0.499990 -0.259025
O6    O     O_R   0.818720 0.150820 0.967160 -0.506889
O7    O     O_R   0.006410 0.181720 0.970200 -0.493141
O8    O     O_R   0.027890 0.334070 0.964920 -0.507690
O9    O     O_R   0.809600 0.521790 0.967960 -0.496185
O10   O     O_R   0.635520 0.542770 0.964420 -0.506781
O11   O     O_R   0.665950 0.325030 0.970100 -0.501241
O12   O     O_R   0.522390 0.158990 0.550460 -0.493181
O13   O     O_R   0.816620 0.158530 0.074540 -0.534260
O14   O     O_R   0.004460 0.188870 0.069750 -0.498901
O15   O     O_R   0.025800 0.341780 0.072300 -0.519331
O16   O     O_R   0.807650 0.528950 0.067500 -0.512057
O17   O     O_R   0.633420 0.550490 0.071810 -0.477570
O18   O     O_R   0.664000 0.332180 0.069640 -0.460279
O19   O     O_3   0.826350 0.346390 0.019210 -0.251862
O20   O     O_R   0.694390 0.003530 0.554040 -0.504047
O21   O     O_R   0.657700 0.819660 0.549320 -0.496879
O22   O     O_R   0.501930 0.803280 0.552920 -0.500537
O23   O     O_R   0.318170 0.023580 0.549580 -0.495008
O24   O     O_R   0.303010 0.193990 0.446760 -0.523055
O25   O     O_R   0.523600 0.157450 0.450900 -0.499591
O26   O     O_R   0.695690 0.001860 0.446640 -0.512853
O27   O     O_3   0.476029 0.722985 0.121895 -0.567937
C97   C     C_3   0.433970 0.647265 0.131443 -0.060265
H38   H     H_    0.342894 0.697533 0.142785 0.113200
H39   H     H_    0.482527 0.581835 0.159655 0.156968
H40   H     H_    0.435198 0.602073 0.097309 0.185886
Cl1   Cl    Cl    0.437239 0.696865 0.379325 -0.599193
Cl2   Cl    Cl    0.178634 0.467378 0.206789 -0.719941
O28   O     O_3   0.500136 0.386788 0.137956 -0.595991
C98   C     C_3   0.425290 0.357951 0.113876 -0.111210
H41   H     H_    0.385478 0.324662 0.139643 0.162068
H42   H     H_    0.470031 0.294598 0.084066 0.111822
H43   H     H_    0.355189 0.436465 0.097291 0.149720
Cl3   Cl    Cl    0.958627 0.867317 0.307707 -0.668046

loop_
_geom_bond_atom_site_label_1
_geom_bond_atom_site_label_2
_ccdc_geom_bond_type
Cr4   O14   S    
C66   C68   A    
C55   H19   S    
Cr5   O9    S    
C92   O9    A    
C68   Cl2   S    
C73   C74   A    
C79   O28   S    
Cr3   O3    S    
C83   C87   A    
C74   C83   A    
C43   C44   A    
C2    C12   S    
Cr6   O19   S    
C91   O8    A    
C81   C82   A    
C7    C8    S    
C97   H39   S    
C49   H17   S    
O28   C98   S    
Cr4   O13   S    
C56   O24   A    
C11   C19   S    
C20   C21   S    
Cr5   O15   S    
Cr3   O4    S    
C19   C21   S    
C67   H12   S    
C73   C90   A    
C18   C19   S    
C34   O25   A    
C5    C6    S    
C86   C88   A    
Cr5   O16   S    
C65   C70   A    
C96   O13   A    
C17   C20   S    
C46   Cl1   S    
C60   H22   S    
C3    H34   S    
C41   C42   A    
C69   C71   A    
C98   H41   S    
C29   H10   S    
C12   O22   A    
Cr3   O22   S    
C56   O4    A    
C44   C53   A    
C40   C43   A    
Cr5   O8    S    
C31   C32   S    
Cr4   O7    S    
C68   C69   A    
C56   C72   S    
C74   C77   A    
C1    C28   S    
C31   C33   S    
C93   O6    A    
C39   C42   A    
C34   O26   A    
C45   C54   S    
Cr1   O1    S    
C95   O16   A    
C55   C72   A    
C35   H7    S    
C16   H4    S    
C23   O23   A    
C58   C61   A    
C15   C23   S    
C96   O18   A    
C59   C60   A    
C61   H18   S    
C8    C78   S    
C93   O11   A    
C61   C62   A    
C67   C78   S    
C4    C7    S    
Cr6   O18   S    
C97   H40   S    
C25   C29   S    
C3    C67   S    
C51   C52   A    
C32   C35   S    
C23   O1    A    
C1    O20   A    
C84   C85   A    
C76   C77   A    
C47   C49   A    
C9    C89   T    
C97   H38   S    
C5    C7    S    
C86   C87   A    
C16   C17   S    
C57   C60   A    
C6    C8    S    
Cr1   O24   S    
C58   C59   A    
C85   C86   A    
C12   O21   A    
C66   H24   S    
C51   C53   A    
C13   H35   S    
C75   C76   A    
C34   C90   S    
Cr1   O5    S    
C4    C78   S    
C29   C30   S    
Cr3   O23   S    
C76   H27   S    
Cr3   O5    S    
C47   C48   A    
C38   C54   A    
Cr4   O6    S    
C94   O15   A    
Cr1   O25   S    
C57   C65   A    
C46   C54   A    
C50   C51   A    
Cr1   O12   S    
C13   C21   S    
C8    H21   S    
C16   C18   S    
C32   C37   S    
C95   O17   A    
C89   C92   S    
C84   Cl3   S    
C98   H43   S    
C7    H30   S    
C45   O2    A    
C81   C90   A    
C75   C87   A    
C15   C24   T    
Cr6   O11   S    
Cr5   O19   S    
C26   C30   S    
C82   C84   A    
C62   C94   S    
Cr2   O2    S    
C45   O3    A    
C49   C50   A    
C27   C93   S    
C80   C96   S    
C21   H37   S    
C41   H14   S    
C3    C4    S    
C2    C10   T    
Cr6   O17   S    
C6    C67   S    
C5    H33   S    
C46   C47   A    
C40   C41   A    
C30   C33   S    
Cr2   O5    S    
C78   H1    S    
C50   H16   S    
C11   H36   S    
C11   C16   S    
C58   C70   A    
Cr2   O21   S    
C63   C64   A    
C3    C5    S    
C26   H5    S    
C6    C10   S    
C42   H15   S    
C20   H2    S    
C30   C36   S    
C27   C36   T    
C73   H26   S    
C17   C22   S    
C13   C17   S    
C64   C65   A    
C14   C22   T    
C55   C57   A    
C19   C24   S    
C25   C26   S    
C18   H3    S    
C80   C88   A    
C44   C95   S    
C40   C52   A    
C43   H11   S    
C38   H13   S    
C11   C13   S    
C38   C39   A    
O27   C97   S    
C28   C37   T    
C59   H20   S    
C94   O14   A    
C63   C72   A    
C33   C35   S    
C62   C71   A    
C1    O12   A    
C18   C20   S    
C77   H28   S    
C69   C70   A    
C98   H42   S    
C14   C91   S    
Cr2   O26   S    
C26   C35   S    
Cr6   O10   S    
C79   C80   A    
Cr4   O19   S    
C53   O27   S    
C48   C52   A    
Cr2   O20   S    
C29   C31   S    
C82   C83   A    
C85   H31   S    
C92   O10   A    
C31   H9    S    
C71   H23   S    
C33   H8    S    
C88   H29   S    
C4    C9    S    
C75   C79   A    
C91   O7    A    
C63   H25   S    
C25   H6    S    
C64   C66   A    
C39   C48   A    
C25   C32   S    
C81   H32   S    
