data_mof_unit_25122.cif
_audit_creation_date              2012-12-10T21:13:54-0500
_audit_creation_method            fapswitch 2.2
_symmetry_space_group_name_H-M    P1
_symmetry_Int_Tables_number       1
_space_group_crystal_system       triclinic
_cell_length_a                    15.636978
_cell_length_b                    16.862718
_cell_length_c                    17.485244
_cell_angle_alpha                 89.780682
_cell_angle_beta                  92.229915
_cell_angle_gamma                 67.166326
_cell_volume                      4245.1245338

loop_
_atom_site_label
_atom_site_type_symbol
_atom_type_description
_atom_site_fract_x
_atom_site_fract_y
_atom_site_fract_z
_atom_type_partial_charge
C1    C     C_R   0.501468 0.499302 0.647041 1.023728
C2    C     C_R   0.501302 0.499516 0.353018 1.001437
C3    C     C_R   0.100302 0.402937 0.544179 0.507724
C4    C     C_R   0.894709 0.603178 0.482621 0.501282
C5    C     C_R   0.063837 0.339311 0.531932 -0.273428
C6    C     C_R   0.934223 0.664204 0.487542 -0.207332
C7    C     C_R   0.563145 0.414676 0.155834 0.404263
C8    C     C_R   0.405429 0.541677 0.842655 0.419537
C9    C     C_R   0.573949 0.432317 0.233490 0.305436
C10   C     C_R   0.420849 0.556739 0.766253 0.308564
C11   C     C_R   0.500516 0.497581 0.269333 -0.383626
C12   C     C_R   0.499652 0.498150 0.730433 -0.402414
C13   C     C_R   0.422360 0.552175 0.225270 0.427564
C14   C     C_R   0.569476 0.432746 0.774592 0.429561
C15   C     C_R   0.415018 0.537582 0.147858 -0.269624
C16   C     C_R   0.556484 0.423017 0.851426 -0.243217
C17   C     C_R   0.483271 0.469066 0.113895 -0.203411
C18   C     C_R   0.475175 0.475209 0.884654 -0.188140
C19   C     C_1   0.475851 0.465108 0.033161 0.188345
C20   C     C_1   0.472610 0.467545 0.965103 0.194605
C21   C     C_R   0.555905 0.145070 0.546102 -0.468373
C22   C     C_R   0.424599 0.860471 0.470468 -0.476552
C23   C     C_R   0.676452 0.446022 0.498679 0.934158
C24   C     C_R   0.323634 0.553764 0.502280 0.968149
C25   C     C_R   0.560296 0.227643 0.546416 0.527392
C26   C     C_R   0.424531 0.775592 0.468834 0.542617
C27   C     C_R   0.438364 0.276492 0.450364 0.401115
C28   C     C_R   0.572698 0.723071 0.534972 0.390551
C29   C     C_R   0.427049 0.195885 0.454058 0.258793
C30   C     C_R   0.576816 0.806435 0.530977 0.224892
C31   C     C_R   0.490756 0.127874 0.499785 -0.118785
C32   C     C_R   0.500080 0.876398 0.500056 -0.115475
C33   C     C_1   0.492762 0.039474 0.499471 0.210035
C34   C     C_1   0.495966 0.965599 0.499509 0.185554
C35   C     C_R   0.778507 0.411737 0.498964 -0.176781
C36   C     C_R   0.222004 0.587275 0.506789 -0.173541
C37   C     C_R   0.933117 0.300278 0.497239 -0.297643
C38   C     C_R   0.068451 0.700541 0.501513 -0.262411
C39   C     C_R   0.835729 0.325129 0.484963 0.502676
C40   C     C_R   0.164669 0.675352 0.512017 0.522723
C41   C     C_R   0.818342 0.471415 0.511864 -0.275910
C42   C     C_R   0.181325 0.526659 0.506198 -0.207323
C43   C     C_R   0.912214 0.450726 0.505680 0.070397
C44   C     C_R   0.085878 0.551070 0.511334 0.102483
C45   C     C_R   0.970716 0.362929 0.509194 0.059611
C46   C     C_R   0.029034 0.638995 0.501174 -0.007170
C47   C     C_R   0.949435 0.514878 0.502872 -0.119012
C48   C     C_R   0.046160 0.489085 0.518866 -0.047723
H1    H     H_    0.104368 0.272394 0.546422 0.143357
H2    H     H_    0.890641 0.731483 0.476724 0.209005
H3    H     H_    0.602491 0.093754 0.582859 0.229070
H4    H     H_    0.366118 0.916013 0.449044 0.220405
H5    H     H_    0.224262 0.459681 0.498298 0.221765
H6    H     H_    0.775978 0.533703 0.531654 0.279800
H7    H     H_    0.980412 0.233621 0.498320 0.138600
H8    H     H_    0.024521 0.768069 0.493463 0.150889
H9    H     H_    0.356643 0.580999 0.112979 0.250545
H10   H     H_    0.610971 0.374448 0.886118 0.239499
N1    N     N_R   0.499980 0.292780 0.499970 -0.178202
N2    N     N_R   0.500020 0.707220 0.500030 -0.186837
O1    O     O_R   0.500000 0.433430 0.610870 -0.559146
O2    O     O_R   0.500000 0.566570 0.389130 -0.571158
O3    O     O_R   0.500010 0.566520 0.610900 -0.647795
O4    O     O_R   0.499990 0.433480 0.389100 -0.594567
O5    O     O_R   0.632240 0.395450 0.499980 -0.529352
O6    O     O_R   0.367760 0.604550 0.500020 -0.515682
O7    O     O_R   0.632250 0.528530 0.500000 -0.609573
O8    O     O_R   0.367750 0.471470 0.500000 -0.611986
Zn1   Zn    Zn3+2 0.500000 0.411140 0.499980 1.068458
Zn2   Zn    Zn3+2 0.500000 0.588860 0.500020 1.041726
O9    O     O_3   0.623136 0.244315 0.595445 -0.547388
C49   C     C_3   0.715330 0.183798 0.586271 0.204452
H11   H     H_    0.761563 0.219660 0.588748 0.212660
H12   H     H_    0.724853 0.152980 0.529154 0.106799
C50   C     C_3   0.748964 0.115996 0.651915 -0.367335
H13   H     H_    0.790981 0.135055 0.695167 0.251893
H14   H     H_    0.689439 0.111597 0.681635 0.261503
C51   C     C_3   0.809934 0.027225 0.623273 -0.904224
H15   H     H_    0.769754 0.003577 0.582104 0.305856
H16   H     H_    0.835248 0.980842 0.672352 0.293087
H17   H     H_    0.870832 0.030310 0.594695 0.242916
O10   O     O_3   0.347093 0.759879 0.442287 -0.543401
C52   C     C_3   0.284452 0.824766 0.391890 0.254948
H18   H     H_    0.248287 0.794201 0.353909 0.205397
H19   H     H_    0.321208 0.851703 0.352497 0.144515
C53   C     C_3   0.207815 0.894594 0.434731 -0.434310
H20   H     H_    0.149342 0.873910 0.441545 0.250022
H21   H     H_    0.233436 0.904333 0.492649 0.240920
C54   C     C_3   0.169880 0.980033 0.390214 -0.962087
H22   H     H_    0.225885 0.003407 0.380351 0.300517
H23   H     H_    0.115836 0.028833 0.423530 0.260751
H24   H     H_    0.138583 0.972275 0.334065 0.274678
O11   O     O_3   0.387888 0.340594 0.397473 -0.582669
C55   C     C_3   0.407135 0.316027 0.319948 0.181169
H25   H     H_    0.389832 0.376370 0.285784 0.151929
H26   H     H_    0.358710 0.287818 0.296776 0.222394
C56   C     C_3   0.508414 0.256709 0.303458 -0.494738
H27   H     H_    0.555697 0.290005 0.317091 0.277158
H28   H     H_    0.532603 0.196113 0.338004 0.221657
C57   C     C_3   0.515683 0.231272 0.219658 -0.731885
H29   H     H_    0.474451 0.191685 0.207054 0.268161
H30   H     H_    0.589256 0.192587 0.207596 0.305735
H31   H     H_    0.489019 0.289392 0.181764 0.263312
O12   O     O_3   0.644184 0.656558 0.572221 -0.568780
C58   C     C_3   0.632594 0.663553 0.651935 0.110408
H32   H     H_    0.565769 0.660966 0.665999 0.119171
H33   H     H_    0.633548 0.725040 0.673708 0.142267
C59   C     C_3   0.711076 0.588985 0.693020 -0.300237
H34   H     H_    0.711151 0.527098 0.671568 0.258341
H35   H     H_    0.778768 0.592287 0.680452 0.247909
C60   C     C_3   0.700109 0.591864 0.779423 -0.854959
H36   H     H_    0.697816 0.654149 0.801893 0.255218
H37   H     H_    0.760108 0.539107 0.807864 0.303836
H38   H     H_    0.635387 0.583556 0.793477 0.253346
S1    S     S_3+6 0.332823 0.180625 0.404968 -0.032447
O13   O     O_2   0.253897 0.265683 0.387890 -0.337282
O14   O     O_2   0.365468 0.135195 0.331385 -0.292488
O15   O     O_3   0.294295 0.119642 0.459071 -0.617886
H39   H     H_    0.227235 0.138859 0.444964 0.374628
S2    S     S_3+6 0.677867 0.824358 0.561677 0.016078
O16   O     O_2   0.755941 0.744014 0.591227 -0.253561
O17   O     O_2   0.710542 0.859704 0.494875 -0.301629
O18   O     O_3   0.650304 0.898100 0.630801 -0.558819
H40   H     H_    0.617405 0.877599 0.668465 0.332102
O19   O     O_3   0.201770 0.737122 0.520057 -0.623145
C61   C     C_3   0.190466 0.769340 0.595511 0.090153
H41   H     H_    0.245745 0.794236 0.606649 0.177499
H42   H     H_    0.201565 0.717979 0.639685 0.184551
C62   C     C_3   0.095449 0.843937 0.604341 -0.429040
H43   H     H_    0.076210 0.886401 0.552615 0.228593
H44   H     H_    0.041092 0.817883 0.611871 0.238044
C63   C     C_3   0.094905 0.898688 0.673711 -0.895268
H45   H     H_    0.102320 0.860730 0.727321 0.284766
H46   H     H_    0.027645 0.954965 0.673942 0.267717
H47   H     H_    0.151559 0.922802 0.671647 0.263569
O20   O     O_3   0.792810 0.268822 0.465002 -0.656486
C64   C     C_3   0.848440 0.194796 0.425197 0.036603
H48   H     H_    0.808640 0.152906 0.419687 0.168443
H49   H     H_    0.913093 0.154647 0.457873 0.125240
C65   C     C_3   0.865612 0.217325 0.343757 -0.358308
H50   H     H_    0.797601 0.248308 0.312431 0.294042
H51   H     H_    0.901534 0.262650 0.344936 0.219234
C66   C     C_3   0.923810 0.137369 0.300737 -0.869651
H52   H     H_    0.993762 0.106832 0.329114 0.258661
H53   H     H_    0.931562 0.155873 0.241181 0.284755
H54   H     H_    0.889763 0.090517 0.298789 0.269381
O21   O     O_3   0.177482 0.389069 0.593520 -0.646633
C67   C     C_3   0.250029 0.306981 0.588595 0.078755
H55   H     H_    0.316069 0.316921 0.586042 0.168605
H56   H     H_    0.245509 0.272114 0.536066 0.190432
C68   C     C_3   0.255370 0.253089 0.660617 -0.340404
H57   H     H_    0.263923 0.288509 0.711909 0.255352
H58   H     H_    0.189953 0.242495 0.665201 0.220509
C69   C     C_3   0.336915 0.166091 0.659739 -0.904595
H59   H     H_    0.329031 0.128548 0.609917 0.292312
H60   H     H_    0.339155 0.128992 0.712899 0.269058
H61   H     H_    0.403372 0.175176 0.656876 0.274652
O22   O     O_3   0.801206 0.632694 0.461701 -0.595689
C70   C     C_3   0.789194 0.641154 0.381360 0.071626
H62   H     H_    0.821852 0.576990 0.355278 0.133917
H63   H     H_    0.820168 0.685395 0.358613 0.149106
C71   C     C_3   0.685082 0.678469 0.360186 -0.289009
H64   H     H_    0.653585 0.633905 0.380736 0.233922
H65   H     H_    0.651864 0.741057 0.388776 0.246286
C72   C     C_3   0.665314 0.693526 0.274094 -0.923644
H66   H     H_    0.696184 0.738015 0.252345 0.274428
H67   H     H_    0.589054 0.722769 0.261946 0.293697
H68   H     H_    0.693860 0.631926 0.243507 0.256714
S3    S     S_3+6 0.647717 0.325793 0.110540 -0.005403
O23   O     O_2   0.711635 0.261704 0.168169 -0.296625
O24   O     O_2   0.599547 0.281583 0.061095 -0.310459
O25   O     O_3   0.709930 0.362496 0.054495 -0.585547
H69   H     H_    0.751128 0.311305 0.027336 0.396870
S4    S     S_3+6 0.300108 0.604541 0.886049 0.031016
O26   O     O_2   0.318169 0.665475 0.940660 -0.336471
O27   O     O_2   0.225624 0.654690 0.827407 -0.258666
O28   O     O_3   0.263315 0.538829 0.935396 -0.547217
H70   H     H_    0.213173 0.577505 0.966810 0.391935
O29   O     O_3   0.654593 0.383836 0.275214 -0.614101
C73   C     C_3   0.711412 0.431646 0.285544 0.037928
H71   H     H_    0.749931 0.411030 0.341349 0.159846
H72   H     H_    0.671651 0.502453 0.289080 0.123732
C74   C     C_3   0.781826 0.412064 0.222374 -0.280293
H73   H     H_    0.813477 0.341721 0.213265 0.275473
H74   H     H_    0.745511 0.444490 0.168226 0.259397
C75   C     C_3   0.860140 0.442180 0.241988 -0.969568
H75   H     H_    0.833833 0.513262 0.238663 0.261642
H76   H     H_    0.915040 0.416402 0.199775 0.290886
H77   H     H_    0.891589 0.418825 0.300037 0.262509
O30   O     O_3   0.359041 0.628732 0.726877 -0.609105
C76   C     C_3   0.394873 0.694349 0.727634 0.074472
H78   H     H_    0.398417 0.713140 0.667261 0.162245
H79   H     H_    0.465782 0.674910 0.755362 0.103184
C77   C     C_3   0.331059 0.773035 0.769598 -0.284306
H80   H     H_    0.257872 0.786380 0.752795 0.252089
H81   H     H_    0.340812 0.759856 0.832193 0.273081
C78   C     C_3   0.352004 0.852218 0.751760 -1.005491
H82   H     H_    0.425247 0.840104 0.768886 0.271091
H83   H     H_    0.305495 0.907867 0.783958 0.289347
H84   H     H_    0.340087 0.868639 0.689597 0.255785
S5    S     S_3+6 0.338522 0.645279 0.262252 0.006573
O31   O     O_2   0.304679 0.624530 0.335921 -0.318972
O32   O     O_2   0.385250 0.706999 0.276110 -0.337178
O33   O     O_3   0.247706 0.689941 0.199492 -0.547136
H85   H     H_    0.208612 0.745157 0.222385 0.371878
S6    S     S_3+6 0.677432 0.363508 0.740783 0.004188
O34   O     O_2   0.684991 0.272818 0.752415 -0.296294
O35   O     O_2   0.688740 0.379553 0.658167 -0.344161
O36   O     O_3   0.762541 0.376922 0.793931 -0.572099
H86   H     H_    0.820987 0.335518 0.773588 0.381445

loop_
_geom_bond_atom_site_label_1
_geom_bond_atom_site_label_2
_ccdc_geom_bond_type
C66   H54   S    
C77   H81   S    
C3    O21   S    
C61   H41   S    
C37   C45   A    
C27   C29   A    
S3    O24   D    
S5    O31   D    
C36   C42   A    
C60   H36   S    
S6    O36   S    
C67   C68   S    
C74   H73   S    
C56   H27   S    
S5    O32   D    
O18   H40   S    
C72   H66   S    
O6    Zn2   S    
O25   H69   S    
C58   H33   S    
C10   O30   S    
C22   C32   A    
C38   C40   A    
C65   H51   S    
C71   H64   S    
C74   H74   S    
C42   H5    S    
C8    S4    S    
C77   C78   S    
S1    O13   D    
C66   H53   S    
C3    C48   A    
C59   H34   S    
O2    Zn2   S    
C18   C20   S    
C15   C17   A    
S3    O23   D    
C68   C69   S    
C23   O7    A    
C78   H83   S    
O15   H39   S    
O21   C67   S    
S4    O26   D    
C4    O22   S    
C70   H62   S    
C2    O4    A    
O8    Zn1   S    
S1    O14   D    
C68   H57   S    
C65   C66   S    
C25   O9    S    
S6    O34   D    
C54   H23   S    
C41   C43   A    
C69   H60   S    
C9    O29   S    
S2    O18   S    
C24   O6    A    
C9    C11   A    
C62   C63   S    
C77   H80   S    
C29   S1    S    
C26   O10   S    
C15   H9    S    
C5    H1    S    
C78   H82   S    
C1    C12   S    
C42   C44   A    
C49   C50   S    
C2    C11   S    
C1    O3    A    
C57   H30   S    
O12   C58   S    
C56   H28   S    
C44   C46   A    
O36   H86   S    
C71   H65   S    
C39   O20   S    
C28   N2    A    
C64   C65   S    
C53   H21   S    
C76   H78   S    
C47   C48   A    
C36   C40   A    
C67   H55   S    
C69   H61   S    
C49   H12   S    
C74   C75   S    
C53   H20   S    
C63   H45   S    
C55   C56   S    
C7    C17   A    
C5    C45   A    
C57   H31   S    
C8    C18   A    
C32   C34   S    
C78   H84   S    
C35   C39   A    
C50   H13   S    
C76   H79   S    
O30   C76   S    
C71   C72   S    
C64   H49   S    
C28   O12   S    
C52   H18   S    
O3    Zn2   S    
N2    Zn2   S    
C29   C31   A    
S1    O15   S    
C21   C31   A    
C31   C33   S    
C33   C34   T    
C70   C71   S    
C60   H37   S    
O11   C55   S    
C16   H10   S    
O4    Zn1   S    
C65   H50   S    
C54   H24   S    
C55   H26   S    
C43   C45   A    
C50   H14   S    
S4    O28   S    
C69   H59   S    
C26   N2    A    
C10   C12   A    
N1    Zn1   S    
C63   H46   S    
C4    C6    A    
C52   H19   S    
C12   C14   A    
O10   C52   S    
C72   H68   S    
C23   C35   S    
C14   S6    S    
C13   C15   A    
O19   C61   S    
S5    O33   S    
C14   C16   A    
C27   O11   S    
C75   H76   S    
C21   H3    S    
C56   C57   S    
S2    O16   D    
S2    O17   D    
C22   H4    S    
C62   H43   S    
C58   H32   S    
O1    Zn1   S    
C7    C9    A    
C21   C25   A    
C61   H42   S    
C6    C46   A    
C51   H15   S    
C8    C10   A    
C67   H56   S    
C49   H11   S    
C3    C5    A    
C53   C54   S    
C1    O1    A    
C73   C74   S    
C64   H48   S    
C61   C62   S    
C59   C60   S    
C24   C36   S    
O7    Zn2   S    
C16   C18   A    
C23   O5    A    
C19   C20   T    
C7    S3    S    
C70   H63   S    
C54   H22   S    
C76   C77   S    
O9    C49   S    
C37   C39   A    
C44   C48   A    
C27   N1    A    
C73   H72   S    
C30   C32   A    
C11   C13   A    
C51   H17   S    
O22   C70   S    
C59   H35   S    
C30   S2    S    
C75   H77   S    
C63   H47   S    
O5    Zn1   S    
C40   O19   S    
C28   C30   A    
C57   H29   S    
C17   C19   S    
C13   S5    S    
C60   H38   S    
C51   H16   S    
C68   H58   S    
C55   H25   S    
C35   C41   A    
C50   C51   S    
S4    O27   D    
C41   H6    S    
C38   C46   A    
C24   O8    A    
O29   C73   S    
C37   H7    S    
C6    H2    S    
C2    O2    A    
C52   C53   S    
C38   H8    S    
O33   H85   S    
C72   H67   S    
O28   H70   S    
C22   C26   A    
C58   C59   S    
O20   C64   S    
S3    O25   S    
C25   N1    A    
C75   H75   S    
S6    O35   D    
C43   C47   A    
C73   H71   S    
C66   H52   S    
C62   H44   S    
C4    C47   A    
