data_mof_unit_9002.cif
_audit_creation_date              2012-12-10T17:50:31-0500
_audit_creation_method            fapswitch 2.2
_symmetry_space_group_name_H-M    P1
_symmetry_Int_Tables_number       1
_space_group_crystal_system       triclinic
_cell_length_a                    15.562059
_cell_length_b                    10.641513
_cell_length_c                    9.948358
_cell_angle_alpha                 92.232119
_cell_angle_beta                  92.244219
_cell_angle_gamma                 97.103135
_cell_volume                      1631.99449667

loop_
_atom_site_label
_atom_site_type_symbol
_atom_type_description
_atom_site_fract_x
_atom_site_fract_y
_atom_site_fract_z
_atom_type_partial_charge
C1    C     C_R   0.517718 0.266964 0.499761 0.952672
C2    C     C_R   0.576384 0.097624 0.869001 -0.110709
C3    C     C_R   0.532691 0.976667 0.879015 -0.083464
C4    C     C_R   0.338850 0.511274 0.498231 0.986718
C5    C     C_R   0.503153 0.904230 0.762633 -0.054222
C6    C     C_R   0.518324 0.951548 0.632803 0.117450
C7    C     C_R   0.548194 0.080665 0.625505 0.099561
C8    C     C_R   0.536772 0.138042 0.501279 -0.147470
C9    C     C_R   0.524525 0.065793 0.381465 -0.133120
C10   C     C_R   0.510237 0.936638 0.385357 -0.173682
C11   C     C_R   0.504514 0.877945 0.509259 -0.127668
C12   C     C_3   0.091536 0.589214 0.511974 -0.024683
C13   C     C_R   0.385823 0.332709 0.137446 -0.274561
C14   C     C_R   0.317285 0.256623 0.078813 0.300791
C15   C     C_R   0.287108 0.287990 0.954516 0.296621
C16   C     C_R   0.498658 0.741198 0.502956 0.860753
C17   C     C_R   0.348424 0.343397 0.861459 0.249200
C18   C     C_R   0.431254 0.421376 0.920905 -0.082020
C19   C     C_R   0.438435 0.420280 0.067353 0.031070
C20   C     C_R   0.560299 0.573045 0.079981 -0.151553
C21   C     C_R   0.563758 0.570030 0.938186 0.419365
C22   C     C_R   0.662835 0.506639 0.502833 0.861382
C23   C     C_3   0.988896 0.664439 0.616159 0.501456
C24   C     C_3   0.970816 0.468977 0.535956 -0.252648
C25   C     C_3   0.024219 0.511742 0.416526 0.450201
C26   C     C_1   0.253516 0.543830 0.496948 -0.083623
C27   C     C_1   0.753401 0.536439 0.510711 -0.100048
C28   C     C_3   0.038094 0.548537 0.633509 -0.214430
C29   C     C_3   0.922739 0.585395 0.519665 -0.017649
C30   C     C_3   0.044303 0.707299 0.496078 -0.226273
C31   C     C_3   0.975849 0.627349 0.398511 -0.289803
C32   C     C_1   0.181511 0.570541 0.502874 0.122461
C33   C     C_1   0.829846 0.563659 0.517091 0.089826
C34   C     C_R   0.583955 0.149942 0.743300 -0.132978
H1    H     H_    0.465822 0.814310 0.778395 0.165515
H2    H     H_    0.060330 0.211036 0.044189 0.410299
H3    H     H_    0.185305 0.257458 0.584690 0.418040
H4    H     H_    0.705671 0.764646 0.714914 0.394045
H5    H     H_    0.940490 0.370646 0.550502 0.210226
H6    H     H_    0.075666 0.805017 0.481572 0.218466
H7    H     H_    0.036103 0.900191 0.893911 0.413494
H8    H     H_    0.521216 0.108974 0.284818 0.194885
H9    H     H_    0.617187 0.245187 0.738757 0.165311
H10   H     H_    0.601640 0.152640 0.958908 0.154315
H11   H     H_    0.500985 0.883240 0.289809 0.185566
H12   H     H_    0.949189 0.657937 0.301680 0.205397
H13   H     H_    0.063369 0.519782 0.731382 0.250967
H14   H     H_    0.940996 0.442031 0.145139 0.371051
H15   H     H_    0.522198 0.938316 0.977119 0.148147
H16   H     H_    0.609843 0.630316 0.142394 0.194735
H17   H     H_    0.393475 0.324419 0.242072 0.271049
H18   H     H_    0.324661 0.979023 0.278179 0.387892
N1    N     N_R   0.499210 0.498800 0.142780 -0.120267
N2    N     N_R   0.499180 0.498720 0.857170 -0.156340
O1    O     O_R   0.500000 0.316780 0.614690 -0.575548
O2    O     O_2   0.079653 0.295259 0.339032 -0.204101
O3    O     O_3   0.955563 0.363798 0.186648 -0.517749
O4    O     O_2   0.226422 0.168508 0.286184 -0.200210
O5    O     O_2   0.209877 0.035289 0.076493 -0.209198
O6    O     O_3   0.352581 0.044829 0.220714 -0.592080
O7    O     O_2   0.146708 0.396568 0.879546 -0.265017
O8    O     O_2   0.137298 0.167109 0.829921 -0.203545
O9    O     O_3   0.120752 0.245063 0.072441 -0.392577
O10   O     O_2   0.353399 0.263112 0.572826 -0.273658
O11   O     O_2   0.285768 0.124885 0.728262 -0.253523
O12   O     O_R   0.499990 0.316750 0.385360 -0.632278
O13   O     O_3   0.214201 0.319159 0.654455 -0.505552
O14   O     O_2   0.707132 0.737585 0.984487 -0.290145
O15   O     O_2   0.719499 0.548530 0.844413 -0.269896
O16   O     O_3   0.646603 0.731198 0.740579 -0.542266
O17   O     O_2   0.908103 0.861329 0.695544 -0.277416
O18   O     O_2   0.913780 0.689500 0.852283 -0.232603
O19   O     O_3   0.055110 0.842918 0.823194 -0.486173
O20   O     O_R   0.376780 0.500000 0.614650 -0.570255
O21   O     O_R   0.376770 0.499980 0.385310 -0.618226
O22   O     O_R   0.500010 0.683250 0.614640 -0.597085
O23   O     O_R   0.500000 0.683220 0.385310 -0.625918
O24   O     O_R   0.623230 0.500020 0.614690 -0.553526
O25   O     O_R   0.623220 0.500000 0.385350 -0.625031
O26   O     O_2   0.114238 0.477996 0.198182 -0.242593
S1    S     S_3+6 0.046527 0.409536 0.281826 0.076101
S2    S     S_3+6 0.271960 0.123803 0.166278 0.105394
S3    S     S_3+6 0.170994 0.273789 0.929034 0.163919
S4    S     S_3+6 0.306915 0.262977 0.699976 0.099976
S5    S     S_3+6 0.661510 0.647487 0.876850 0.057036
S6    S     S_3+6 0.962917 0.766684 0.750356 0.078045
Zn1   Zn    Zn3+2 0.500010 0.500020 0.653130 1.056248
Zn2   Zn    Zn3+2 0.499990 0.499980 0.346870 0.977734

loop_
_geom_bond_atom_site_label_1
_geom_bond_atom_site_label_2
_ccdc_geom_bond_type
O24   Zn1   S    
C25   C31   S    
O8    S3    D    
H4    O16   S    
C28   H13   S    
C26   C32   T    
C1    C8    S    
O5    S2    D    
C3    H15   S    
H14   O3    S    
N2    Zn1   S    
C27   C33   T    
C9    H8    S    
C12   C28   S    
C5    C6    A    
C23   C29   S    
C22   O25   A    
C18   C19   A    
O4    S2    D    
O12   Zn2   S    
C30   C31   S    
H3    O13   S    
C29   C33   S    
C24   H5    S    
C16   O23   A    
C24   C29   S    
O10   S4    D    
C4    O21   A    
C20   H16   S    
H18   O6    S    
C13   H17   S    
O6    S2    S    
O23   Zn2   S    
C2    H10   S    
C8    C9    A    
C23   S6    S    
O20   Zn1   S    
H2    O9    S    
C9    C10   A    
C4    O20   A    
C19   N1    A    
O13   S4    S    
C13   C14   A    
C12   C32   S    
C25   S1    S    
O14   S5    D    
O25   Zn2   S    
C1    O12   A    
C21   S5    S    
C13   C19   A    
C23   C30   S    
O2    S1    D    
C24   C25   S    
C22   O24   A    
O7    S3    D    
C6    C11   A    
C20   N1    A    
O11   S4    D    
C15   S3    S    
C31   H12   S    
O9    S3    S    
O17   S6    D    
C11   C16   S    
O18   S6    D    
C10   H11   S    
C17   C18   A    
C30   H6    S    
C23   C28   S    
O22   Zn1   S    
C22   C27   S    
C7    C34   A    
O3    S1    S    
C14   S2    S    
O15   S5    D    
C15   C17   A    
C12   C30   S    
C16   O22   A    
C34   H9    S    
C24   C28   S    
O26   S1    D    
C3    C5    A    
C4    C26   S    
C6    C7    A    
C12   C25   S    
C17   S4    S    
C2    C3    A    
C1    O1    A    
C29   C31   S    
C2    C34   A    
C21   N2    A    
C5    H1    S    
N1    Zn2   S    
O1    Zn1   S    
O19   S6    S    
C7    C8    A    
C10   C11   A    
C18   N2    A    
H7    O19   S    
O21   Zn2   S    
C20   C21   A    
C14   C15   A    
O16   S5    S    
