data_mof_unit_66586.cif
_audit_creation_date              2013-03-05T15:46:34-0500
_audit_creation_method            fapswitch 2.2
_symmetry_space_group_name_H-M    P1
_symmetry_Int_Tables_number       1
_space_group_crystal_system       triclinic
_cell_length_a                    10.666572
_cell_length_b                    11.009944
_cell_length_c                    9.869998
_cell_angle_alpha                 110.081658
_cell_angle_beta                  100.560446
_cell_angle_gamma                 90.692055
_cell_volume                      1066.67028743

loop_
_atom_site_label
_atom_site_type_symbol
_atom_site_description
_atom_site_fract_x
_atom_site_fract_y
_atom_site_fract_z
_atom_type_partial_charge
O1    O     O_R   0.511880 0.332340 0.577400 -0.601231
O2    O     O_R   0.488120 0.667660 0.422600 -0.596720
O3    O     O_R   0.474280 0.295500 0.332650 -0.521041
O4    O     O_R   0.525720 0.704500 0.667350 -0.526453
C1    C     C_R   0.482827 0.254151 0.440983 0.740175
C2    C     C_R   0.509732 0.746253 0.558963 0.758377
O5    O     O_R   0.335640 0.518390 0.622350 -0.588306
O6    O     O_R   0.664360 0.481610 0.377650 -0.568957
O7    O     O_R   0.298050 0.481550 0.377590 -0.597887
O8    O     O_R   0.701950 0.518450 0.622410 -0.589320
C3    C     C_R   0.259255 0.497982 0.497199 0.783963
C4    C     C_R   0.741083 0.501113 0.502589 0.781602
Cu1   Cu    Cu3+1 0.522260 0.521810 0.644920 0.950594
Cu2   Cu    Cu3+1 0.477740 0.478190 0.355080 0.959543
C5    C     C_3   0.059790 0.426394 0.573571 -0.279840
C6    C     C_3   0.941975 0.571340 0.426579 -0.265393
C7    C     C_3   0.946035 0.377280 0.441418 0.016887
C8    C     C_3   0.055777 0.619603 0.559822 0.018180
H1    H     H_    0.109305 0.363068 0.629392 0.128012
H2    H     H_    0.889458 0.631481 0.368725 0.118001
C9    C     C_3   0.878726 0.499222 0.509134 -0.082267
C10   C     C_3   0.122261 0.497054 0.490506 -0.082300
C11   C     C_3   0.991650 0.548906 0.641826 0.032515
C12   C     C_3   0.009343 0.446968 0.357185 0.033537
H3    H     H_    0.397529 0.863071 0.388986 0.210933
H4    H     H_    0.459699 0.137314 0.627043 0.191868
C13   C     C_2   0.458065 0.114508 0.405956 0.151858
C14   C     C_2   0.516540 0.886776 0.592387 0.142650
C15   C     C_2   0.451416 0.069877 0.515003 -0.243184
C16   C     C_2   0.451520 0.931363 0.491706 -0.232320
H5    H     H_    0.416629 0.414773 0.843477 0.149232
H6    H     H_    0.583713 0.584798 0.156310 0.154661
N1    N     N_2   0.444270 0.445410 0.137360 -0.279112
N2    N     N_2   0.555730 0.554590 0.862640 -0.279395
C17   C     C_2   0.510314 0.510919 0.081923 -0.052448
C18   C     C_2   0.489773 0.488896 0.917958 -0.073806
H7    H     H_    0.623590 0.625049 0.936311 0.203518
H8    H     H_    0.375725 0.375466 0.063884 0.187337
C19   C     C_R   0.904430 0.235732 0.394447 0.100339
C20   C     C_R   0.984049 0.144100 0.325164 -0.115742
C21   C     C_R   0.957669 0.012847 0.297650 -0.145272
C22   C     C_R   0.852042 0.971330 0.340416 -0.127843
C23   C     C_R   0.775647 0.062000 0.414963 -0.034380
C24   C     C_R   0.801807 0.193923 0.442811 -0.130697
H9    H     H_    0.070111 0.174284 0.298380 0.128963
H10   H     H_    0.022191 0.944904 0.247291 0.166919
H11   H     H_    0.830863 0.869588 0.319943 0.104151
H12   H     H_    0.698147 0.029678 0.453943 0.169941
H13   H     H_    0.745805 0.262764 0.507765 0.128180
C25   C     C_R   0.123401 0.754155 0.628894 0.065534
C26   C     C_R   0.092304 0.849936 0.567200 -0.125517
C27   C     C_R   0.159361 0.972497 0.628319 -0.141894
C28   C     C_R   0.257953 0.000287 0.751692 -0.148459
C29   C     C_R   0.288051 0.906440 0.815448 -0.034978
C30   C     C_R   0.221170 0.784017 0.754670 -0.123740
H14   H     H_    0.017347 0.829777 0.471410 0.114361
H15   H     H_    0.135671 0.045645 0.579514 0.139574
H16   H     H_    0.311341 0.094369 0.797676 0.132820
H17   H     H_    0.364233 0.927986 0.910982 0.233389
H18   H     H_    0.246609 0.712442 0.805225 0.165279
C31   C     C_R   0.990506 0.602267 0.803525 0.089726
C32   C     C_R   0.081209 0.567338 0.903727 -0.155040
C33   C     C_R   0.077278 0.612716 0.053016 -0.064089
C34   C     C_R   0.981113 0.690182 0.102644 -0.153448
C35   C     C_R   0.894038 0.730009 0.005051 -0.158140
C36   C     C_R   0.901232 0.689461 0.856614 -0.066254
H19   H     H_    0.155552 0.505559 0.867593 0.119835
H20   H     H_    0.147092 0.585544 0.129741 0.151098
H21   H     H_    0.975960 0.720905 0.217280 0.108551
H22   H     H_    0.821211 0.792745 0.044069 0.166028
H23   H     H_    0.835737 0.724201 0.783161 0.158125
C37   C     C_R   0.995779 0.387585 0.191534 0.092243
C38   C     C_R   0.880916 0.396292 0.099671 -0.122736
C39   C     C_R   0.864475 0.340344 0.946541 -0.039436
C40   C     C_R   0.961502 0.273169 0.883195 -0.067063
C41   C     C_R   0.074231 0.260755 0.973165 -0.159298
C42   C     C_R   0.090875 0.316044 0.126320 -0.156178
H24   H     H_    0.803757 0.446756 0.146078 0.138843
H25   H     H_    0.776584 0.349354 0.877066 0.157976
H26   H     H_    0.949164 0.230260 0.764641 0.135956
H27   H     H_    0.148694 0.207564 0.924434 0.134422
H28   H     H_    0.176422 0.299079 0.192304 0.158980
N3    N     N_R   0.594391 0.972357 0.729011 0.119805
O9    O     O_R   0.606577 0.943870 0.848010 -0.329401
O10   O     O_R   0.668154 0.067855 0.730121 -0.402163
N4    N     N_R   0.443512 0.028191 0.255512 0.115788
O11   O     O_R   0.522236 0.042979 0.175024 -0.336062
O12   O     O_R   0.339894 0.951007 0.192283 -0.412464

loop_
_geom_bond_atom_site_label_1
_geom_bond_atom_site_label_2
_geom_bond_distance
_ccdc_geom_bond_type
C24   H13   1.077004 S    
C6    C9    1.543502 S    
C13   C15   1.339864 D    
N2    H7    1.029852 S    
C21   C22   1.396744 A    
C17   C18   1.524818 S    
O7    Cu2   1.968891 S    
Cu2   N1    2.014588 S    
C28   C29   1.395397 A    
C5    H1    1.111141 S    
C8    C25   1.509975 S    
C15   C16   1.462154 S    
C32   H19   1.081101 S    
O1    C1    1.301781 A    
C7    C19   1.500779 S    
N4    O12   1.301335 A    
C35   H22   1.081107 S    
C26   H14   1.075600 S    
C38   C39   1.398365 A    
O4    Cu1   1.945648 S    
C37   C42   1.405016 A    
C29   C30   1.396493 A    
C31   C36   1.400889 A    
C5    C10   1.532035 S    
C2    C14   1.464854 S    
N3    O9    1.301067 A    
C21   H10   1.078327 S    
C23   H12   1.077730 S    
C6    H2    1.108897 S    
C5    C11   1.542931 S    
C6    C12   1.555848 S    
C1    C13   1.464508 S    
Cu1   Cu2   2.681967 S    
C14   N3    1.447031 S    
O2    C2    1.301939 A    
C29   H17   1.080088 S    
C20   H9    1.079322 S    
C7    C12   1.538564 S    
C39   C40   1.395398 A    
C26   C27   1.398540 A    
H6    C17   1.085096 S    
C41   C42   1.397936 A    
O4    C2    1.287462 A    
C19   C20   1.402316 A    
N4    O11   1.301061 A    
C38   H24   1.081810 S    
C4    C9    1.458440 S    
C7    C9    1.532198 S    
C8    C11   1.533481 S    
C13   N4    1.440485 S    
O5    C3    1.294696 A    
C40   C41   1.396064 A    
C32   C33   1.392890 A    
C36   H23   1.082214 S    
O5    Cu1   1.960461 S    
O6    C4    1.296345 A    
C25   C26   1.402945 A    
C34   H21   1.076130 S    
O7    C3    1.277437 A    
O3    Cu2   1.945649 S    
O8    C4    1.279507 A    
C20   C21   1.390637 A    
N3    O10   1.301384 A    
C39   H25   1.082715 S    
C9    C11   1.542458 S    
C23   C24   1.396784 A    
C10   C12   1.546297 S    
O1    Cu1   1.954663 S    
C22   C23   1.391750 A    
C27   C28   1.396176 A    
C12   C37   1.516070 S    
C40   H26   1.082653 S    
H3    C16   1.084861 S    
C5    C7    1.544568 S    
C33   H20   1.082476 S    
O6    Cu2   1.960461 S    
C8    C10   1.535735 S    
N1    H8    1.030559 S    
C37   C38   1.409862 A    
O3    C1    1.287795 A    
O8    Cu1   1.968891 S    
C41   H27   1.078425 S    
C28   H16   1.082313 S    
C19   C24   1.402930 A    
C3    C10   1.450353 S    
C25   C30   1.404863 A    
C34   C35   1.398118 A    
C14   C16   1.341667 D    
Cu1   N2    2.014588 S    
C42   H28   1.077731 S    
N1    C17   1.309921 D    
N2    C18   1.309924 D    
C22   H11   1.080916 S    
C31   C32   1.407644 A    
O2    Cu2   1.954663 S    
C27   H15   1.082224 S    
C33   C34   1.392099 A    
C11   C31   1.501947 S    
H4    C15   1.086610 S    
C6    C8    1.550728 S    
C35   C36   1.394451 A    
H5    C18   1.085138 S    
C30   H18   1.081285 S    
