data_mof_unit_22048.cif
_audit_creation_date              2012-12-11T14:06:40-0500
_audit_creation_method            fapswitch 2.2
_symmetry_space_group_name_H-M    P1
_symmetry_Int_Tables_number       1
_space_group_crystal_system       triclinic
_cell_length_a                    6.915758
_cell_length_b                    17.289102
_cell_length_c                    24.10481
_cell_angle_alpha                 104.466859
_cell_angle_beta                  90.429989
_cell_angle_gamma                 89.967556
_cell_volume                      2790.67839381

loop_
_atom_site_label
_atom_site_type_symbol
_atom_type_description
_atom_site_fract_x
_atom_site_fract_y
_atom_site_fract_z
_atom_type_partial_charge
O1    O     O_R   0.494290 0.391990 0.999150 -0.534173
O2    O     O_R   0.827170 0.534410 0.082350 -0.544028
O3    O     O_R   0.994360 0.608010 0.000850 -0.535300
C1    C     C_R   0.658501 0.549378 0.106131 0.699567
O4    O     O_R   0.824210 0.388010 0.004470 -0.550845
O5    O     O_R   0.991370 0.460560 0.922410 -0.530061
C2    C     C_R   0.654570 0.354832 0.001419 0.783778
O6    O     O_R   0.497270 0.539440 0.077590 -0.541668
O7    O     O_3   0.659770 0.523970 0.973170 -0.364219
V1    V     V_3+5 0.935840 0.495550 0.004980 1.422783
O8    O     O_R   0.320910 0.465590 0.917650 -0.534081
C3    C     C_R   0.151452 0.448489 0.894010 0.712300
O9    O     O_R   0.323870 0.611990 0.995530 -0.548707
C4    C     C_R   0.154383 0.645125 0.998463 0.770648
V2    V     V_3+5 0.435470 0.504450 0.995020 1.434290
O10   O     O_3   0.161670 0.476030 0.026830 -0.375549
C5    C     C_2   0.142817 0.730232 0.997972 -0.341109
H1    H     H_    0.277441 0.761081 0.994652 0.148902
C6    C     C_2   0.972637 0.769708 0.001826 -0.343466
H2    H     H_    0.837997 0.738854 0.005112 0.149031
C7    C     C_R   0.206470 0.274775 0.620821 0.573680
N1    N     N_R   0.108392 0.342655 0.647317 -0.548593
C8    C     C_R   0.000608 0.383689 0.616157 0.585500
C9    C     C_R   0.984068 0.355389 0.556030 -0.069718
C10   C     C_R   0.079723 0.284759 0.528334 -0.017624
C11   C     C_R   0.193892 0.244429 0.560977 -0.020626
C12   C     C_R   0.872287 0.395692 0.523439 -0.142081
C13   C     C_R   0.851197 0.366553 0.463715 0.129555
C14   C     C_R   0.945229 0.293929 0.435069 -0.039528
C15   C     C_R   0.060483 0.253910 0.468134 -0.047221
C16   C     C_R   0.156432 0.182409 0.441316 -0.017549
C17   C     C_R   0.271740 0.143502 0.474294 -0.142860
C18   C     C_R   0.290428 0.174153 0.533309 -0.147831
C19   C     C_R   0.930104 0.259231 0.374885 0.573186
N2    N     N_R   0.023106 0.189036 0.349990 -0.555061
C20   C     C_R   0.134485 0.150742 0.382039 0.570314
O11   O     O_2   0.313841 0.236143 0.652376 -0.526795
O12   O     O_2   0.907896 0.451039 0.643295 -0.521629
H3    H     H_    0.799394 0.450435 0.544773 0.167546
O13   O     O_2   0.825547 0.295152 0.341125 -0.530365
O14   O     O_2   0.222607 0.081395 0.356620 -0.524330
H4    H     H_    0.347562 0.088800 0.454630 0.171302
H5    H     H_    0.379606 0.142122 0.557228 0.170068
C21   C     C_R   0.826559 0.129569 0.263139 -0.081784
H6    H     H_    0.697816 0.135718 0.289167 0.134206
C22   C     C_R   0.812070 0.095422 0.203962 -0.201228
H7    H     H_    0.671358 0.076533 0.185527 0.132243
C23   C     C_R   0.977598 0.085721 0.169184 -0.058539
C24   C     C_R   0.157364 0.111503 0.195192 -0.198092
H8    H     H_    0.287886 0.105696 0.169954 0.130911
C25   C     C_R   0.171328 0.145935 0.254123 -0.087952
H9    H     H_    0.311120 0.165582 0.272960 0.127806
C26   C     C_R   0.006439 0.155139 0.288741 0.377368
C27   C     C_R   0.269299 0.415187 0.736324 -0.136407
H10   H     H_    0.381868 0.432624 0.710881 0.151440
C28   C     C_R   0.281806 0.439255 0.796057 -0.228793
H11   H     H_    0.402831 0.476244 0.815442 0.165223
C29   C     C_R   0.139000 0.417321 0.830451 -0.170960
C30   C     C_R   0.983240 0.367919 0.803189 0.318007
C31   C     C_R   0.968038 0.345728 0.742728 0.109135
C32   C     C_R   0.113085 0.369131 0.709140 0.327742
C33   C     C_R   0.652212 0.836803 0.620662 0.588771
N3    N     N_R   0.495541 0.816455 0.648724 -0.551461
C34   C     C_R   0.357465 0.764850 0.619325 0.593336
C35   C     C_R   0.375247 0.731048 0.559809 -0.075415
C36   C     C_R   0.535601 0.750872 0.530682 -0.024000
C37   C     C_R   0.675665 0.804321 0.561406 -0.016178
C38   C     C_R   0.237497 0.677205 0.529278 -0.139781
C39   C     C_R   0.256296 0.642236 0.470227 0.141619
C40   C     C_R   0.417729 0.662746 0.439891 -0.041945
C41   C     C_R   0.556318 0.717569 0.470871 -0.052858
C42   C     C_R   0.716542 0.739659 0.442265 -0.017763
C43   C     C_R   0.856037 0.792358 0.473580 -0.139588
C44   C     C_R   0.836279 0.824005 0.532380 -0.144071
C45   C     C_R   0.447053 0.631465 0.379934 0.584026
N4    N     N_R   0.599613 0.656649 0.352562 -0.553393
C46   C     C_R   0.733148 0.709579 0.382722 0.557733
O15   O     O_2   0.784892 0.888771 0.649930 -0.525846
O16   O     O_2   0.205049 0.745109 0.647622 -0.521789
H12   H     H_    0.113871 0.661755 0.551731 0.173647
O17   O     O_2   0.325910 0.575930 0.348972 -0.533277
O18   O     O_2   0.880716 0.734258 0.355043 -0.527526
H13   H     H_    0.981551 0.809400 0.452742 0.171776
H14   H     H_    0.947174 0.864248 0.554944 0.168261
C47   C     C_R   0.462679 0.640643 0.255050 -0.086243
H15   H     H_    0.331546 0.670072 0.273590 0.151233
C48   C     C_R   0.477122 0.614721 0.195418 -0.202308
H16   H     H_    0.355416 0.624347 0.169411 0.133476
C49   C     C_R   0.646828 0.577779 0.169664 -0.058436
C50   C     C_R   0.801588 0.567088 0.205275 -0.200228
H17   H     H_    0.933817 0.538485 0.186913 0.138921
C51   C     C_R   0.785604 0.591789 0.265143 -0.081148
H18   H     H_    0.905414 0.581732 0.291659 0.156100
C52   C     C_R   0.615979 0.629092 0.290697 0.363517
C53   C     C_R   0.627876 0.829451 0.745898 -0.081391
H19   H     H_    0.746195 0.791309 0.726461 0.151659
C54   C     C_R   0.623672 0.860534 0.805650 0.105743
C55   C     C_R   0.467741 0.910954 0.830922 -0.071288
C56   C     C_R   0.318769 0.926072 0.794804 -0.243982
H20   H     H_    0.197371 0.963490 0.812570 0.149393
C57   C     C_R   0.326238 0.894805 0.735275 -0.079334
H21   H     H_    0.211773 0.908793 0.708478 0.167983
C58   C     C_R   0.482000 0.846914 0.710311 0.320378
C59   C     C_2   0.643000 0.269669 0.001799 -0.340369
H22   H     H_    0.777789 0.238763 0.005126 0.148146
C60   C     C_2   0.472551 0.230242 0.997916 -0.337955
H23   H     H_    0.337766 0.261146 0.994577 0.147384
O19   O     O_R   0.618210 0.960470 0.922400 -0.535180
O20   O     O_R   0.291310 0.111960 0.995450 -0.546417
O21   O     O_R   0.124210 0.039530 0.077580 -0.540214
C61   C     C_R   0.460963 0.145110 0.998395 0.777065
O22   O     O_R   0.288310 0.965490 0.917650 -0.545139
O23   O     O_R   0.121180 0.892010 0.999220 -0.534446
C62   C     C_R   0.456895 0.946997 0.894127 0.716250
O24   O     O_R   0.621230 0.107990 0.000760 -0.534176
O25   O     O_3   0.455770 0.976060 0.026840 -0.371242
V3    V     V_3+5 0.179680 0.004440 0.995020 1.405241
O26   O     O_R   0.791670 0.888040 0.004570 -0.547584
C63   C     C_R   0.961122 0.854857 0.001479 0.775270
O27   O     O_R   0.794680 0.034510 0.082370 -0.543155
C64   C     C_R   0.964224 0.051216 0.106042 0.707918
V4    V     V_3+5 0.680070 0.995560 0.005010 1.405961
O28   O     O_3   0.953840 0.023940 0.973160 -0.370799
O29   O     O_3   0.845934 0.338611 0.833973 -0.638688
H24   H     H_    0.909001 0.328574 0.868516 0.283644
C65   C     C_3   0.799045 0.294594 0.715289 -0.587254
H25   H     H_    0.801022 0.279953 0.667848 0.191681
H26   H     H_    0.800477 0.237439 0.728415 0.221422
H27   H     H_    0.661792 0.326451 0.729595 0.226082
C66   C     C_3   0.100451 0.584072 0.441983 -0.681524
H28   H     H_    0.163860 0.523920 0.424790 0.235398
H29   H     H_    0.985623 0.577620 0.472515 0.178792
H30   H     H_    0.028800 0.605300 0.407226 0.233876
C67   C     C_3   0.784720 0.836906 0.840743 -0.723893
H31   H     H_    0.723532 0.812058 0.875111 0.192825
H32   H     H_    0.879568 0.790349 0.814276 0.202245
H33   H     H_    0.877473 0.889375 0.859648 0.220494
C68   C     C_3   0.726696 0.414849 0.432999 -0.669054
H34   H     H_    0.601334 0.378613 0.412208 0.237648
H35   H     H_    0.667359 0.469308 0.462708 0.176684
H36   H     H_    0.813711 0.435183 0.400784 0.236976

loop_
_geom_bond_atom_site_label_1
_geom_bond_atom_site_label_2
_ccdc_geom_bond_type
C38   H12   S    
C48   H16   S    
C65   H25   S    
N2    C26   S    
C43   C44   A    
C27   H10   S    
O2    C1    A    
N2    C20   A    
C9    C12   A    
C1    O6    A    
C67   H33   S    
O22   C62   A    
C54   C55   A    
O20   V3    S    
C47   H15   S    
O25   V3    S    
C57   H21   S    
O25   V4    S    
C33   C37   A    
C19   O13   S    
C7    N1    A    
C13   C14   A    
C39   C66   S    
O20   C61   A    
O21   C64   A    
O5    C3    A    
C15   C16   A    
C44   H14   S    
C55   C62   S    
C60   H23   S    
V2    O10   S    
C55   C56   A    
C30   O29   S    
C28   H11   S    
C19   N2    A    
O26   V4    S    
O19   C62   A    
O26   C63   A    
C42   C46   A    
N4    C52   S    
O23   C63   A    
O8    V2    S    
C21   C26   A    
C53   H19   S    
C21   C22   A    
C38   C39   A    
C24   C25   A    
C8    C9    A    
C40   C41   A    
O1    V2    S    
O7    V1    S    
C3    C29   S    
C36   C37   A    
V3    O28   S    
C6    C63   S    
C30   C31   A    
C57   C58   A    
O24   V4    S    
O9    C4    A    
C4    C5    S    
C20   O14   S    
C54   C67   S    
O21   V3    S    
C59   C60   D    
C59   H22   S    
C7    C11   A    
C53   C58   A    
C27   C28   A    
C60   C61   S    
C47   C48   A    
C22   C23   A    
C25   H9    S    
C18   H5    S    
C13   C68   S    
N4    C46   A    
N3    C58   S    
C12   H3    S    
C23   C64   S    
O4    C2    A    
C45   O17   S    
C67   H32   S    
C65   H27   S    
C10   C11   A    
C14   C19   A    
C31   C32   A    
C25   C26   A    
C66   H29   S    
C45   N4    A    
C14   C15   A    
C47   C52   A    
C11   C18   A    
C50   C51   A    
C36   C41   A    
C35   C38   A    
C33   N3    A    
C51   C52   A    
C5    H1    S    
C37   C44   A    
C9    C10   A    
O3    C4    A    
C68   H35   S    
O23   V3    S    
C23   C24   A    
C56   C57   A    
C35   C36   A    
O6    V2    S    
C2    C59   S    
O9    V2    S    
C34   O16   S    
C66   H30   S    
O2    V1    S    
C12   C13   A    
O27   C64   A    
O27   V4    S    
C1    C49   S    
C10   C15   A    
C22   H7    S    
C65   H26   S    
O1    C2    A    
C33   O15   S    
C16   C17   A    
C21   H6    S    
O19   V4    S    
C42   C43   A    
C68   H36   S    
O5    V1    S    
O8    C3    A    
C53   C54   A    
C67   H31   S    
C27   C32   A    
C8    O12   S    
C56   H20   S    
C17   C18   A    
C6    H2    S    
C48   C49   A    
C66   H28   S    
C29   C30   A    
C41   C42   A    
O3    V1    S    
V1    O10   S    
C34   C35   A    
N1    C32   S    
C50   H17   S    
O22   V3    S    
C46   O18   S    
C31   C65   S    
C51   H18   S    
C5    C6    D    
C28   C29   A    
N1    C8    A    
O7    V2    S    
C39   C40   A    
C68   H34   S    
N3    C34   A    
O4    V1    S    
C7    O11   S    
C24   H8    S    
C40   C45   A    
C17   H4    S    
C16   C20   A    
C61   O24   A    
V4    O28   S    
C49   C50   A    
C43   H13   S    
O29   H24   S    
