data_mof_unit_65514.cif
_audit_creation_date              2012-12-10T18:21:17-0500
_audit_creation_method            fapswitch 2.2
_symmetry_space_group_name_H-M    P1
_symmetry_Int_Tables_number       1
_space_group_crystal_system       triclinic
_cell_length_a                    35.693114
_cell_length_b                    35.659218
_cell_length_c                    23.688769
_cell_angle_alpha                 90.009631
_cell_angle_beta                  90.00574
_cell_angle_gamma                 89.977096
_cell_volume                      30150.7905633

loop_
_atom_site_label
_atom_site_type_symbol
_atom_type_description
_atom_site_fract_x
_atom_site_fract_y
_atom_site_fract_z
_atom_type_partial_charge
C1    C     C_R   0.000018 0.427805 0.500119 0.807705
C2    C     C_1   0.266668 0.000095 0.500199 -0.014198
C3    C     C_R   0.827240 0.972796 0.468487 0.208535
C4    C     C_R   0.972667 0.827271 0.531293 0.210954
C5    C     C_R   0.172725 0.972277 0.530443 0.210246
C6    C     C_R   0.027696 0.172605 0.531723 0.210008
C7    C     C_R   0.827229 0.027247 0.531390 0.207785
C8    C     C_R   0.469351 0.672543 0.974792 0.213021
C9    C     C_R   0.672766 0.526791 0.967518 0.208969
C10   C     C_R   0.529797 0.327112 0.974913 0.213431
C11   C     C_R   0.327180 0.474142 0.966099 0.209091
C12   C     C_R   0.469969 0.327225 0.025475 0.215149
C13   C     C_1   0.999955 0.733265 0.500079 -0.014945
C14   C     C_R   0.672840 0.473355 0.032352 0.207794
C15   C     C_R   0.529426 0.673040 0.024730 0.217587
C16   C     C_R   0.327186 0.526083 0.033742 0.208716
C17   C     C_R   0.972641 0.133525 0.469733 -0.070101
C18   C     C_R   0.133210 0.028064 0.470555 -0.071065
C19   C     C_R   0.027557 0.866708 0.469619 -0.072171
C20   C     C_R   0.866707 0.972633 0.469076 -0.072994
C21   C     C_R   0.972360 0.866758 0.530286 -0.073810
C22   C     C_R   0.133255 0.972067 0.529664 -0.072266
C23   C     C_R   0.027746 0.133105 0.530725 -0.072001
C24   C     C_1   0.733320 0.999946 0.500030 -0.014914
C25   C     C_R   0.866690 0.027413 0.530778 -0.072406
C26   C     C_R   0.469709 0.633054 0.975148 -0.071596
C27   C     C_R   0.633304 0.526905 0.968107 -0.071032
C28   C     C_R   0.529701 0.366625 0.974959 -0.071873
C29   C     C_R   0.366625 0.473799 0.966968 -0.071637
C30   C     C_R   0.470083 0.366741 0.025120 -0.072790
C31   C     C_R   0.633383 0.473139 0.031698 -0.070171
C32   C     C_R   0.529631 0.633539 0.024692 -0.074826
C33   C     C_R   0.366642 0.526329 0.032972 -0.071664
C34   C     C_R   0.000113 0.113487 0.500111 -0.211758
C35   C     C_1   0.499140 0.766966 0.999459 -0.016410
C36   C     C_R   0.113425 0.000035 0.500047 -0.211234
C37   C     C_R   0.999967 0.886564 0.499943 -0.211586
C38   C     C_R   0.886531 0.000007 0.499972 -0.211806
C39   C     C_R   0.499806 0.613465 0.999971 -0.212851
C40   C     C_R   0.613489 0.500038 0.999959 -0.209975
C41   C     C_R   0.499909 0.386522 0.999994 -0.212531
C42   C     C_R   0.386501 0.500042 0.999987 -0.209223
C43   C     C_R   0.000387 0.192502 0.500732 -0.020863
C44   C     C_R   0.192404 0.000107 0.500181 -0.020732
C45   C     C_R   0.999951 0.807516 0.499996 -0.019543
C46   C     C_1   0.766747 0.500158 0.999897 -0.014787
C47   C     C_R   0.807531 0.999990 0.499985 -0.018539
C48   C     C_R   0.499314 0.692560 0.999567 -0.020052
C49   C     C_R   0.692495 0.500106 0.999961 -0.019854
C50   C     C_R   0.499821 0.307392 0.000141 -0.019555
C51   C     C_R   0.307483 0.500146 0.999886 -0.018697
C52   C     C_1   0.000536 0.232980 0.500802 -0.031746
C53   C     C_1   0.232904 0.000093 0.500198 -0.030749
C54   C     C_1   0.999947 0.767028 0.500036 -0.029618
C55   C     C_1   0.767065 0.999962 0.500017 -0.029221
C56   C     C_1   0.499097 0.733124 0.999437 -0.021215
C57   C     C_1   0.499807 0.233007 0.000119 -0.016803
C58   C     C_1   0.732976 0.500150 0.999924 -0.031236
C59   C     C_1   0.499804 0.266834 0.000149 -0.024632
C60   C     C_1   0.267007 0.500175 0.999861 -0.030125
C61   C     C_3   0.954718 0.198201 0.379133 -0.613331
C62   C     C_3   0.195621 0.049799 0.379675 -0.612813
C63   C     C_3   0.048416 0.805460 0.377132 -0.612789
C64   C     C_3   0.804187 0.952817 0.377132 -0.612065
C65   C     C_3   0.951579 0.806007 0.623227 -0.612738
C66   C     C_3   0.195176 0.950037 0.620962 -0.612903
C67   C     C_3   0.048627 0.195013 0.622896 -0.613676
C68   C     C_1   0.233274 0.500174 0.999862 -0.015071
C69   C     C_3   0.803631 0.047011 0.622398 -0.612170
C70   C     C_3   0.439436 0.695428 0.889703 -0.628578
C71   C     C_3   0.695882 0.545320 0.875601 -0.613835
C72   C     C_3   0.558156 0.302591 0.889776 -0.627298
C73   C     C_3   0.305499 0.456253 0.872780 -0.607114
C74   C     C_3   0.441220 0.303488 0.110863 -0.631145
C75   C     C_3   0.695951 0.454463 0.124084 -0.607951
C76   C     C_3   0.561097 0.694445 0.110091 -0.623137
C77   C     C_3   0.305258 0.543698 0.127018 -0.605561
C78   C     C_1   0.942860 0.113771 0.440659 0.313268
C79   C     C_R   0.978604 0.326956 0.460643 -0.033520
C80   C     C_1   0.113170 0.058298 0.442869 0.312670
C81   C     C_1   0.057562 0.886702 0.441360 0.314377
C82   C     C_1   0.886663 0.943075 0.439697 0.316457
C83   C     C_1   0.942374 0.886804 0.558540 0.313499
C84   C     C_1   0.113270 0.941884 0.557473 0.314062
C85   C     C_1   0.057493 0.112929 0.559260 0.315623
C86   C     C_1   0.886619 0.057104 0.559852 0.315254
C87   C     C_1   0.438071 0.612678 0.952025 0.309868
C88   C     C_1   0.613326 0.556016 0.937693 0.320719
C89   C     C_1   0.561376 0.386640 0.951259 0.312058
C90   C     C_R   0.326973 0.022576 0.461437 -0.032641
C91   C     C_1   0.386551 0.445019 0.935774 0.319700
C92   C     C_1   0.438464 0.386900 0.048686 0.310896
C93   C     C_1   0.613477 0.443822 0.061707 0.318822
C94   C     C_1   0.561440 0.613645 0.048133 0.312361
C95   C     C_1   0.386577 0.555017 0.064327 0.320749
C96   C     C_1   0.957084 0.306705 0.418620 0.296281
C97   C     C_1   0.306812 0.045209 0.420698 0.295975
C98   C     C_1   0.041888 0.693040 0.416773 0.294551
C99   C     C_1   0.693167 0.954060 0.421451 0.293040
C100  C     C_1   0.958373 0.693159 0.583818 0.292056
C101  C     C_R   0.020907 0.672914 0.459493 -0.032948
C102  C     C_1   0.306868 0.955162 0.579978 0.294097
C103  C     C_1   0.043961 0.307041 0.581851 0.293868
C104  C     C_1   0.693190 0.045774 0.578648 0.293327
C105  C     C_1   0.485755 0.807559 0.896919 0.301430
C106  C     C_1   0.806868 0.544027 0.918866 0.292883
C107  C     C_1   0.505014 0.192673 0.895529 0.301403
C108  C     C_1   0.193137 0.456701 0.918347 0.292421
C109  C     C_1   0.494593 0.192624 0.104644 0.302371
C110  C     C_1   0.806804 0.456047 0.080718 0.294063
C111  C     C_1   0.513047 0.807196 0.102244 0.302559
C112  C     C_R   0.427772 0.000012 0.500018 0.808238
C113  C     C_R   0.673004 0.977065 0.461822 -0.032583
C114  C     C_1   0.193164 0.543516 0.081538 0.290884
C115  C     C_3   0.917398 0.387823 0.425864 -0.604267
C116  C     C_3   0.388098 0.084258 0.429924 -0.601391
C117  C     C_3   0.081281 0.611559 0.423003 -0.604425
C118  C     C_3   0.611790 0.915075 0.431685 -0.602888
C119  C     C_3   0.918953 0.611246 0.577602 -0.604828
C120  C     C_3   0.388219 0.916002 0.571065 -0.603426
C121  C     C_3   0.083092 0.388575 0.573367 -0.604231
C122  C     C_3   0.611907 0.084879 0.568573 -0.602806
C123  C     C_3   0.446842 0.892154 0.883263 -0.632581
C124  C     C_R   0.979050 0.672973 0.540848 -0.031680
C125  C     C_3   0.888147 0.583419 0.927253 -0.604947
C126  C     C_3   0.543587 0.107141 0.876334 -0.641529
C127  C     C_3   0.111864 0.416831 0.927474 -0.604053
C128  C     C_3   0.456617 0.107071 0.124206 -0.642119
C129  C     C_3   0.888231 0.416476 0.071452 -0.604126
C130  C     C_3   0.553310 0.891482 0.115783 -0.634953
C131  C     C_3   0.111333 0.582983 0.072831 -0.603822
C132  C     C_R   0.327010 0.977612 0.538965 -0.032778
C133  C     C_R   0.022092 0.327146 0.540046 -0.032902
C134  C     C_R   0.673019 0.022844 0.538277 -0.032806
C135  C     C_R   0.492279 0.827519 0.949278 -0.029866
C136  C     C_R   0.827035 0.522115 0.960524 -0.032951
C137  C     C_R   0.502875 0.172573 0.948680 -0.029056
C138  C     C_R   0.172981 0.478327 0.960296 -0.032831
C139  C     C_R   0.496864 0.172563 0.051466 -0.029776
C140  C     C_R   0.999981 0.572189 0.500112 0.807331
C141  C     C_R   0.827000 0.478046 0.039231 -0.033179
C142  C     C_R   0.506831 0.827312 0.049950 -0.029895
C143  C     C_R   0.172989 0.521897 0.039628 -0.031991
C144  C     C_R   0.978228 0.366428 0.460502 0.167019
C145  C     C_R   0.366432 0.022684 0.461238 0.166051
C146  C     C_R   0.021109 0.633411 0.459428 0.167207
C147  C     C_R   0.633561 0.976875 0.461717 0.167265
C148  C     C_R   0.978767 0.633448 0.540905 0.166513
C149  C     C_R   0.366479 0.977381 0.539026 0.167199
C150  C     C_R   0.022207 0.366627 0.540013 0.166784
C151  C     C_R   0.572227 0.000003 0.500005 0.808030
C152  C     C_R   0.633568 0.023062 0.538369 0.167261
C153  C     C_R   0.492246 0.867019 0.949303 0.163933
C154  C     C_R   0.866499 0.522334 0.960505 0.167465
C155  C     C_R   0.503158 0.133077 0.948514 0.162546
C156  C     C_R   0.133494 0.477948 0.960431 0.167392
C157  C     C_R   0.496754 0.133048 0.051592 0.162949
C158  C     C_R   0.866456 0.477759 0.039268 0.166688
C159  C     C_R   0.507454 0.866832 0.050148 0.163235
C160  C     C_R   0.133497 0.522175 0.039662 0.166946
C161  C     C_R   0.000112 0.386417 0.500268 -0.174417
C162  C     C_R   0.500003 0.927898 0.999941 0.809793
C163  C     C_R   0.386357 0.000007 0.500072 -0.174844
C164  C     C_R   0.999921 0.613573 0.500151 -0.174215
C165  C     C_R   0.613636 0.999986 0.500039 -0.175573
C166  C     C_R   0.499976 0.886657 0.999776 -0.162515
C167  C     C_R   0.886371 0.500038 0.999926 -0.175087
C168  C     C_R   0.499967 0.113316 0.000035 -0.160588
C169  C     C_R   0.113635 0.500032 0.000079 -0.175509
C170  C     C_R   0.000366 0.307299 0.500446 -0.076931
C171  C     C_R   0.307246 0.000078 0.500190 -0.076940
C172  C     C_R   0.999968 0.692672 0.500129 -0.076630
C173  C     C_R   0.927787 0.500007 0.999984 0.807842
C174  C     C_R   0.692759 0.999938 0.500044 -0.076673
C175  C     C_R   0.499391 0.807604 0.999569 -0.080082
C176  C     C_R   0.807263 0.500128 0.999903 -0.076746
C177  C     C_R   0.499820 0.192359 0.000092 -0.079992
C178  C     C_R   0.192700 0.500149 0.999905 -0.076342
C179  C     C_R   0.927900 0.000001 0.499993 0.824438
C180  C     C_R   0.999962 0.072101 0.500016 0.824884
C181  C     C_R   0.072088 0.000021 0.500012 0.825381
C182  C     C_R   0.999994 0.927913 0.499982 0.825636
C183  C     C_R   0.427886 0.500019 0.000001 0.826542
C184  C     C_R   0.499991 0.072106 0.000013 0.811299
C185  C     C_R   0.500031 0.572103 0.000007 0.825715
C186  C     C_R   0.572109 0.500010 0.999992 0.825994
C187  C     C_R   0.499997 0.427899 0.999991 0.825438
C188  C     C_R   0.000002 0.500002 0.608202 0.805656
C189  C     C_R   0.499999 0.000004 0.608221 0.806931
C190  C     C_R   0.999998 0.500000 0.391798 0.806171
C191  C     C_R   0.499999 0.999998 0.391779 0.807102
C192  C     C_R   0.500002 0.000018 0.108201 0.807592
C193  C     C_R   0.000001 0.500003 0.108218 0.807279
C194  C     C_R   0.499998 0.000018 0.891799 0.807663
C195  C     C_R   0.072211 0.500003 0.000077 0.807262
C196  C     C_R   0.000000 0.499997 0.891782 0.807203
C197  C     C_1   0.000005 0.500001 0.669025 -0.175609
C198  C     C_1   0.499997 0.000016 0.669049 -0.174999
C199  C     C_1   0.999995 0.500007 0.330975 -0.175819
C200  C     C_1   0.499999 0.000000 0.330951 -0.175153
C201  C     C_1   0.500005 0.000030 0.169017 -0.175285
C202  C     C_1   0.000000 0.500010 0.169041 -0.176032
C203  C     C_1   0.499994 0.000034 0.830983 -0.175422
C204  C     C_1   0.000002 0.499993 0.830959 -0.175917
C205  C     C_1   0.000007 0.499997 0.720068 0.012454
C206  C     C_1   0.000475 0.266729 0.500645 -0.014329
C207  C     C_1   0.499993 0.000030 0.720094 0.011745
C208  C     C_1   0.999994 0.500011 0.279932 0.012441
C209  C     C_1   0.500003 0.000014 0.279906 0.011692
C210  C     C_1   0.500005 0.000029 0.220057 0.010695
C211  C     C_1   0.999997 0.500012 0.220084 0.012242
C212  C     C_1   0.499991 0.000039 0.779943 0.010540
C213  C     C_1   0.000005 0.499993 0.779916 0.012354
C214  C     C_R   0.972952 0.172983 0.469426 0.206851
C215  C     C_R   0.172674 0.027969 0.469969 0.209302
C216  C     C_R   0.027276 0.827211 0.468718 0.210348
Cu1   Cu    Cu3+1 0.037270 0.500000 0.500000 0.943109
Cu2   Cu    Cu3+1 1.000000 0.000000 0.444220 1.008550
Cu3   Cu    Cu3+1 0.500000 0.500000 0.055780 1.007526
Cu4   Cu    Cu3+1 0.500000 0.500000 0.944220 1.007852
Cu5   Cu    Cu3+1 0.500000 0.962730 0.500000 0.944680
Cu6   Cu    Cu3+1 0.962730 0.500000 0.500000 0.942922
Cu7   Cu    Cu3+1 0.500000 0.037270 0.500000 0.945117
Cu8   Cu    Cu3+1 0.537270 0.000000 0.000000 0.951356
Cu9   Cu    Cu3+1 0.000000 0.462730 0.000000 0.942640
Cu10  Cu    Cu3+1 0.462730 0.000000 0.000000 0.951700
Cu11  Cu    Cu3+1 0.000000 0.537270 0.000000 0.942434
Cu12  Cu    Cu3+1 0.000000 1.000000 0.555780 1.008230
H1    H     H_    0.935469 0.216926 0.456837 0.267147
H2    H     H_    0.027733 0.783007 0.368042 0.230769
H3    H     H_    0.444609 0.899779 0.837930 0.229933
H4    H     H_    0.910160 0.531520 0.902593 0.250955
H5    H     H_    0.915433 0.590760 0.946847 0.229419
H6    H     H_    0.865195 0.593718 0.954927 0.221504
H7    H     H_    0.885986 0.597920 0.885946 0.229033
H8    H     H_    0.489135 0.089915 0.893096 0.248435
H9    H     H_    0.557292 0.084908 0.901853 0.233532
H10   H     H_    0.560481 0.133287 0.879092 0.232971
H11   H     H_    0.542842 0.097910 0.831510 0.230284
H12   H     H_    0.089887 0.468685 0.902509 0.250858
H13   H     H_    0.075064 0.798908 0.355056 0.239975
H14   H     H_    0.084591 0.409587 0.947321 0.229662
H15   H     H_    0.134943 0.406576 0.955065 0.221433
H16   H     H_    0.113867 0.402207 0.886171 0.228778
H17   H     H_    0.511101 0.089961 0.106944 0.248521
H18   H     H_    0.443431 0.083808 0.100286 0.233476
H19   H     H_    0.439207 0.132792 0.119616 0.232481
H20   H     H_    0.457578 0.099290 0.169668 0.231257
H21   H     H_    0.909960 0.468253 0.097353 0.250974
H22   H     H_    0.915994 0.409251 0.053307 0.229195
H23   H     H_    0.866009 0.406522 0.042184 0.221127
H24   H     H_    0.037658 0.832471 0.360332 0.226637
H25   H     H_    0.884990 0.401554 0.112248 0.229166
H26   H     H_    0.498479 0.910220 0.107541 0.245692
H27   H     H_    0.565617 0.913872 0.089099 0.235278
H28   H     H_    0.569339 0.865089 0.109506 0.230767
H29   H     H_    0.555774 0.899895 0.160773 0.229911
H30   H     H_    0.090023 0.530978 0.097769 0.250556
H31   H     H_    0.085302 0.589530 0.048818 0.231438
H32   H     H_    0.135974 0.593947 0.049041 0.222462
H33   H     H_    0.110025 0.597536 0.114404 0.227023
H34   H     H_    0.783336 0.935101 0.454682 0.268373
H35   H     H_    0.780251 0.972108 0.369738 0.229648
H36   H     H_    0.799171 0.926220 0.353974 0.240499
H37   H     H_    0.830143 0.965775 0.360041 0.225996
H38   H     H_    0.935691 0.782733 0.546268 0.267397
H39   H     H_    0.970792 0.782395 0.632996 0.232005
H40   H     H_    0.924602 0.801542 0.645536 0.239760
H41   H     H_    0.979874 0.216396 0.375404 0.227239
H42   H     H_    0.964073 0.832491 0.639182 0.225883
H43   H     H_    0.216944 0.934694 0.542871 0.267830
H44   H     H_    0.217920 0.970420 0.629883 0.230421
H45   H     H_    0.201664 0.923116 0.642339 0.240342
H46   H     H_    0.168465 0.960926 0.638573 0.226781
H47   H     H_    0.065287 0.216601 0.545343 0.267736
H48   H     H_    0.028016 0.217734 0.630938 0.230200
H49   H     H_    0.075144 0.201669 0.645193 0.240532
H50   H     H_    0.037607 0.168265 0.640238 0.226997
H51   H     H_    0.783396 0.065016 0.544704 0.268317
H52   H     H_    0.930949 0.211862 0.356981 0.242640
H53   H     H_    0.780956 0.026116 0.628804 0.228746
H54   H     H_    0.796365 0.073159 0.645386 0.240736
H55   H     H_    0.830142 0.035858 0.640437 0.227048
H56   H     H_    0.430572 0.716372 0.970549 0.261493
H57   H     H_    0.459390 0.717926 0.877528 0.237199
H58   H     H_    0.411127 0.702896 0.873863 0.234118
H59   H     H_    0.448264 0.668778 0.869355 0.232817
H60   H     H_    0.716683 0.564199 0.952507 0.268423
H61   H     H_    0.718300 0.524099 0.869503 0.229213
H62   H     H_    0.703311 0.571103 0.851874 0.241097
H63   H     H_    0.960308 0.170857 0.358298 0.230436
H64   H     H_    0.669179 0.534334 0.858244 0.227227
H65   H     H_    0.568619 0.283419 0.971149 0.261278
H66   H     H_    0.537554 0.280007 0.879665 0.235431
H67   H     H_    0.586164 0.294322 0.872994 0.232532
H68   H     H_    0.549289 0.329052 0.868544 0.233629
H69   H     H_    0.282720 0.437634 0.948592 0.268969
H70   H     H_    0.282358 0.476809 0.865164 0.228134
H71   H     H_    0.299686 0.430041 0.848360 0.239389
H72   H     H_    0.332518 0.468255 0.857286 0.225677
H73   H     H_    0.431102 0.283565 0.029833 0.261675
H74   H     H_    0.216829 0.065560 0.457886 0.267645
H75   H     H_    0.460393 0.279942 0.121683 0.236494
H76   H     H_    0.412796 0.297206 0.127635 0.233663
H77   H     H_    0.451360 0.329677 0.131345 0.233752
H78   H     H_    0.716974 0.436146 0.047092 0.268468
H79   H     H_    0.717232 0.477141 0.130150 0.227428
H80   H     H_    0.705193 0.428806 0.147456 0.240191
H81   H     H_    0.668460 0.463654 0.141892 0.227264
H82   H     H_    0.567645 0.717755 0.029687 0.260798
H83   H     H_    0.550693 0.722242 0.124856 0.236025
H84   H     H_    0.590573 0.690724 0.124664 0.236755
H85   H     H_    0.216455 0.027258 0.371769 0.228443
H86   H     H_    0.543551 0.671969 0.129499 0.228808
H87   H     H_    0.282856 0.562783 0.051187 0.268928
H88   H     H_    0.281712 0.523480 0.134280 0.228184
H89   H     H_    0.299829 0.569950 0.151754 0.239158
H90   H     H_    0.332095 0.531120 0.142473 0.225243
H91   H     H_    0.969392 0.410046 0.402254 0.250538
H92   H     H_    0.909612 0.415549 0.443693 0.228682
H93   H     H_    0.907084 0.365491 0.454682 0.221170
H94   H     H_    0.903301 0.384447 0.384426 0.229486
H95   H     H_    0.409812 0.032564 0.403026 0.250895
H96   H     H_    0.205214 0.075850 0.358495 0.240578
H97   H     H_    0.417066 0.091989 0.442483 0.227045
H98   H     H_    0.368522 0.093431 0.463728 0.220640
H99   H     H_    0.380894 0.099432 0.390522 0.229803
H100  H     H_    0.028817 0.589722 0.400994 0.249463
H101  H     H_    0.089086 0.583707 0.440357 0.229035
H102  H     H_    0.092126 0.633716 0.451712 0.221264
H103  H     H_    0.094865 0.614983 0.381200 0.229653
H104  H     H_    0.590124 0.966473 0.403795 0.251673
H105  H     H_    0.583814 0.908063 0.449229 0.229305
H106  H     H_    0.633653 0.905651 0.461959 0.221235
H107  H     H_    0.168329 0.041488 0.361041 0.228301
H108  H     H_    0.615621 0.899553 0.391524 0.228786
H109  H     H_    0.971469 0.589820 0.599206 0.249428
H110  H     H_    0.911865 0.585654 0.552861 0.231554
H111  H     H_    0.907263 0.636318 0.555634 0.222934
H112  H     H_    0.905534 0.609078 0.619947 0.226994
H113  H     H_    0.410012 0.967756 0.597030 0.251002
H114  H     H_    0.416048 0.908718 0.553237 0.229340
H115  H     H_    0.366110 0.906116 0.541551 0.221411
H116  H     H_    0.384735 0.901095 0.611822 0.228793
H117  H     H_    0.031112 0.410369 0.597950 0.250616
H118  H     H_    0.064267 0.782671 0.454334 0.267603
H119  H     H_    0.090334 0.416035 0.554192 0.229526
H120  H     H_    0.093459 0.365820 0.545331 0.221256
H121  H     H_    0.097603 0.386184 0.614631 0.229009
H122  H     H_    0.590105 0.033492 0.596217 0.251708
H123  H     H_    0.583972 0.092008 0.550945 0.229121
H124  H     H_    0.633821 0.094292 0.538410 0.221315
H125  H     H_    0.615716 0.100344 0.608797 0.228538
H126  H     H_    0.501793 0.910487 0.892172 0.245335
H127  H     H_    0.434698 0.915195 0.908902 0.234751
H128  H     H_    0.430397 0.866105 0.890480 0.230231
N1    N     N_2   0.945222 0.192766 0.437913 -0.424162
N2    N     N_2   0.692221 0.554244 0.934949 -0.424960
N3    N     N_2   0.560676 0.307567 0.950318 -0.424862
N4    N     N_2   0.307689 0.447326 0.932328 -0.425294
N5    N     N_2   0.439132 0.307799 0.050214 -0.426152
N6    N     N_2   0.692363 0.445770 0.064632 -0.424621
N7    N     N_2   0.560156 0.692967 0.049001 -0.427561
N8    N     N_2   0.307712 0.552876 0.067581 -0.425332
N9    N     N_1   0.919061 0.097938 0.417546 -0.276776
N10   N     N_1   0.097133 0.082423 0.420836 -0.277917
N11   N     N_1   0.081512 0.902693 0.418869 -0.277273
N12   N     N_2   0.192147 0.056560 0.439682 -0.424233
N13   N     N_1   0.902632 0.919468 0.416309 -0.276724
N14   N     N_1   0.918448 0.902849 0.581010 -0.277723
N15   N     N_1   0.097294 0.917794 0.579643 -0.277925
N16   N     N_1   0.081254 0.096790 0.581992 -0.277087
N17   N     N_1   0.902582 0.080829 0.582964 -0.276996
N18   N     N_1   0.412849 0.596404 0.933562 -0.282686
N19   N     N_1   0.597361 0.579230 0.913411 -0.274109
N20   N     N_1   0.586648 0.402637 0.932356 -0.281531
N21   N     N_1   0.402490 0.422065 0.910891 -0.273749
N22   N     N_1   0.413243 0.403013 0.067478 -0.282078
N23   N     N_2   0.055261 0.807687 0.437274 -0.425383
N24   N     N_1   0.597566 0.420425 0.085627 -0.274433
N25   N     N_1   0.586840 0.597759 0.066852 -0.284122
N26   N     N_1   0.402492 0.577910 0.089322 -0.273988
N27   N     N_1   0.939852 0.290737 0.384995 -0.299970
N28   N     N_1   0.290793 0.063349 0.388143 -0.298620
N29   N     N_1   0.058704 0.709012 0.382663 -0.297429
N30   N     N_1   0.709115 0.935671 0.389223 -0.297256
N31   N     N_1   0.941740 0.709150 0.618172 -0.296793
N32   N     N_1   0.290926 0.937189 0.612743 -0.297485
N33   N     N_1   0.061484 0.291129 0.615211 -0.296793
N34   N     N_2   0.807784 0.944908 0.436811 -0.425129
N35   N     N_1   0.709166 0.064173 0.610895 -0.297262
N36   N     N_1   0.480553 0.791716 0.854991 -0.294815
N37   N     N_1   0.790888 0.561590 0.885569 -0.296479
N38   N     N_1   0.506666 0.208639 0.853059 -0.292185
N39   N     N_1   0.209178 0.439347 0.884839 -0.295919
N40   N     N_1   0.492859 0.208584 0.147121 -0.291844
N41   N     N_1   0.790770 0.438415 0.113868 -0.297051
N42   N     N_1   0.517946 0.791236 0.144133 -0.294853
N43   N     N_1   0.209231 0.560883 0.115013 -0.295787
N44   N     N_2   0.957588 0.385792 0.417846 -0.422611
N45   N     N_2   0.944800 0.807806 0.563031 -0.425821
N46   N     N_2   0.385854 0.044242 0.419742 -0.423199
N47   N     N_2   0.041019 0.613926 0.416139 -0.422745
N48   N     N_2   0.614168 0.954971 0.420589 -0.422652
N49   N     N_2   0.959138 0.614101 0.584647 -0.422168
N50   N     N_2   0.385895 0.956052 0.580818 -0.422752
N51   N     N_2   0.043005 0.386165 0.582299 -0.422388
N52   N     N_2   0.614156 0.044960 0.579530 -0.422870
N53   N     N_2   0.485847 0.886676 0.897682 -0.424794
N54   N     N_2   0.885927 0.543292 0.918282 -0.422444
N55   N     N_2   0.505734 0.113504 0.896036 -0.424900
N56   N     N_2   0.192212 0.943726 0.560772 -0.425162
N57   N     N_2   0.114121 0.456922 0.918247 -0.422381
N58   N     N_2   0.494408 0.113466 0.104051 -0.425492
N59   N     N_2   0.885852 0.456519 0.081218 -0.422441
N60   N     N_2   0.514169 0.886266 0.101841 -0.424542
N61   N     N_2   0.114184 0.542952 0.082216 -0.422174
N62   N     N_2   0.055909 0.191908 0.562991 -0.425170
N63   N     N_2   0.807746 0.055215 0.562896 -0.424819
N64   N     N_2   0.438149 0.691801 0.950527 -0.425065
O1    O     O_R   0.031480 0.445630 0.499980 -0.579024
O2    O     O_R   0.945630 0.468520 0.999980 -0.578738
O3    O     O_R   0.468520 0.054370 0.999980 -0.582675
O4    O     O_R   0.054370 0.531480 0.999980 -0.580888
O5    O     O_R   0.531480 0.054370 0.000020 -0.583323
O6    O     O_R   0.945630 0.531480 0.000020 -0.578985
O7    O     O_R   0.468520 0.945630 0.000020 -0.581868
O8    O     O_R   0.054370 0.468520 0.000020 -0.578947
O9    O     O_R   0.031480 0.500000 0.581380 -0.578374
O10   O     O_R   0.500000 0.968520 0.581380 -0.578067
O11   O     O_R   0.968520 0.500000 0.581380 -0.577578
O12   O     O_R   0.445630 0.968520 0.499980 -0.578616
O13   O     O_R   0.500000 0.031480 0.581380 -0.578197
O14   O     O_R   0.031480 0.500000 0.418620 -0.578123
O15   O     O_R   0.500000 0.031480 0.418620 -0.578530
O16   O     O_R   0.968520 0.500000 0.418620 -0.578199
O17   O     O_R   0.500000 0.968520 0.418620 -0.578050
O18   O     O_R   0.531480 1.000000 0.081380 -0.578364
O19   O     O_R   0.000000 0.468520 0.081380 -0.578436
O20   O     O_R   0.468520 1.000000 0.081380 -0.578519
O21   O     O_R   1.000000 0.531480 0.081380 -0.577819
O22   O     O_R   0.531480 0.000000 0.918620 -0.578179
O23   O     O_R   0.968520 0.554370 0.499980 -0.581031
O24   O     O_R   0.000000 0.531480 0.918620 -0.578189
O25   O     O_R   0.468520 0.000000 0.918620 -0.578777
O26   O     O_R   0.000000 0.468520 0.918620 -0.578189
O27   O     O_R   0.945750 0.999990 0.547080 -0.574188
O28   O     O_R   0.999990 0.054250 0.547080 -0.574668
O29   O     O_R   0.054250 0.000010 0.547080 -0.574387
O30   O     O_R   0.000010 0.945750 0.547080 -0.574440
O31   O     O_R   0.945750 0.000010 0.452920 -0.574517
O32   O     O_R   0.999990 0.945750 0.452920 -0.574627
O33   O     O_R   0.054250 0.999990 0.452920 -0.574271
O34   O     O_R   0.554370 0.031480 0.499980 -0.578487
O35   O     O_R   0.000010 0.054250 0.452920 -0.573979
O36   O     O_R   0.445750 0.499990 0.047080 -0.575492
O37   O     O_R   0.499990 0.554250 0.047080 -0.573971
O38   O     O_R   0.554250 0.500010 0.047080 -0.575361
O39   O     O_R   0.500010 0.445750 0.047080 -0.573784
O40   O     O_R   0.445750 0.500010 0.952920 -0.575201
O41   O     O_R   0.499990 0.445750 0.952920 -0.573882
O42   O     O_R   0.554250 0.499990 0.952920 -0.575338
O43   O     O_R   0.500010 0.554250 0.952920 -0.573808
O44   O     O_R   0.031480 0.554370 0.500020 -0.577674
O45   O     O_R   0.445630 0.031480 0.500020 -0.576687
O46   O     O_R   0.968520 0.445630 0.500020 -0.578143
O47   O     O_R   0.554370 0.968520 0.500020 -0.578512
O48   O     O_R   0.531480 0.945630 0.999980 -0.582555

loop_
_geom_bond_atom_site_label_1
_geom_bond_atom_site_label_2
_ccdc_geom_bond_type
C29   C42   A    
C8    C26   A    
Cu4   O40   S    
C192  O18   A    
C187  O41   A    
C152  C165  A    
C15   C32   A    
C188  O9    A    
C186  O38   A    
C50   C59   S    
C112  O12   A    
C102  C132  S    
C64   H37   S    
C155  N55   S    
C153  C166  A    
C57   C59   T    
C153  N53   S    
C63   H13   S    
C41   C187  S    
C143  C178  A    
C188  O11   A    
C115  N44   S    
Cu2   O35   S    
C19   C37   A    
C111  C142  S    
C34   C180  S    
C44   C53   S    
C13   C172  S    
C21   C83   S    
C82   N13   T    
C108  N39   T    
C196  C204  S    
C116  H98   S    
C120  N50   S    
C196  O26   A    
C2    C171  S    
C117  N47   S    
C118  N48   S    
C63   H24   S    
H126  N53   S    
C24   C174  S    
C149  N50   S    
C74   N5    S    
C116  N46   S    
Cu1   O1    S    
C127  H14   S    
C4    N45   S    
C157  C168  A    
Cu2   Cu12  S    
Cu9   O26   S    
C190  C199  S    
H51   N63   S    
C75   N6    S    
C91   N21   T    
C77   H88   S    
C150  N51   S    
C15   N7    S    
C61   H63   S    
C100  C124  S    
C190  O14   A    
C133  C170  A    
C125  H7    S    
H26   N60   S    
C120  H116  S    
C76   H83   S    
C124  C172  A    
C93   N24   T    
C100  N31   T    
C127  H15   S    
C74   H75   S    
C67   H50   S    
C72   H68   S    
H43   N56   S    
C74   H77   S    
Cu7   O34   S    
C184  O3    A    
C156  N57   S    
Cu10  O20   S    
C12   N5    S    
C61   H52   S    
H60   N2    S    
C154  C167  A    
Cu3   O38   S    
Cu4   O42   S    
C17   C34   A    
C131  N61   S    
C126  H10   S    
H100  N47   S    
C187  O39   A    
C29   C91   S    
C118  H105  S    
Cu2   O32   S    
C13   C54   T    
H21   N59   S    
C185  O37   A    
C150  C161  A    
C38   C179  S    
C134  C174  A    
C2    C53   T    
C195  O4    A    
C142  C175  A    
C90   C145  A    
C22   C36   A    
C200  C209  T    
C35   C175  S    
C114  C143  S    
C79   C96   S    
H34   N34   S    
Cu11  O6    S    
C75   H80   S    
C151  O34   A    
C119  H112  S    
C77   H90   S    
C17   C78   S    
C49   C58   S    
C131  H32   S    
Cu5   O10   S    
C148  N49   S    
C139  C157  A    
C70   H59   S    
C180  O28   A    
Cu2   O33   S    
C66   H45   S    
C36   C181  S    
C65   H40   S    
H122  N52   S    
C135  C175  A    
Cu7   O45   S    
C129  H23   S    
H74   N12   S    
C73   H71   S    
C159  N60   S    
C16   C51   A    
C1    O1    A    
C202  C211  T    
C115  H93   S    
C64   H35   S    
C143  C160  A    
C169  C195  S    
C104  C134  S    
H82   N7    S    
Cu10  O25   S    
C33   C42   A    
C79   C170  A    
Cu11  O24   S    
Cu9   O19   S    
C84   N15   T    
C62   H85   S    
C195  O8    A    
C43   C52   S    
C182  O32   A    
Cu6   O23   S    
C137  C155  A    
C101  C172  A    
C123  N53   S    
C67   H48   S    
C147  C165  A    
C99   N30   T    
C1    O46   A    
H113  N50   S    
C69   N63   S    
C26   C87   S    
C70   N64   S    
C90   C171  A    
C63   N23   S    
H91   N44   S    
C30   C41   A    
C28   C89   S    
C123  H128  S    
C5    N56   S    
C105  C135  S    
C23   C34   A    
C106  C136  S    
C103  N33   T    
C180  O35   A    
Cu6   O16   S    
C46   C58   T    
C191  O17   A    
C15   C48   A    
H30   N61   S    
Cu7   O15   S    
C4    C45   A    
C154  N54   S    
Cu12  O27   S    
C16   N8    S    
C148  C164  A    
C14   N6    S    
C62   N12   S    
C191  C200  S    
C30   C92   S    
Cu11  O4    S    
C119  H110  S    
C145  C163  A    
C151  C165  S    
C146  C164  A    
Cu10  O7    S    
C119  N49   S    
C110  C141  S    
C157  N58   S    
C139  C177  A    
Cu12  O30   S    
C25   C38   A    
Cu5   O12   S    
C69   H54   S    
C27   C40   A    
C160  C169  A    
C70   H57   S    
H95   N46   S    
C209  C210  S    
C21   C37   A    
C65   H42   S    
C121  H119  S    
C60   C68   T    
C151  O47   A    
C117  H101  S    
C102  N32   T    
C71   H64   S    
C17   C214  A    
H56   N64   S    
H78   N6    S    
C111  N42   T    
C198  C207  T    
C128  H19   S    
C73   N4    S    
Cu3   O39   S    
C133  C150  A    
C6    N62   S    
C129  H25   S    
C118  H108  S    
C189  O13   A    
C182  O30   A    
C140  C164  S    
C127  N57   S    
H87   N8    S    
C173  O6    A    
C160  N61   S    
C57   C177  S    
C18   C36   A    
H109  N49   S    
C3    C47   A    
C199  C208  T    
Cu9   Cu11  S    
C122  H123  S    
C123  H127  S    
H38   N45   S    
C1    C161  S    
Cu9   O2    S    
C75   H81   S    
C62   H107  S    
C76   H86   S    
C71   H61   S    
C51   C60   S    
C19   C81   S    
C43   C214  A    
Cu5   O17   S    
Cu7   O13   S    
C113  C174  A    
C131  H33   S    
Cu5   O47   S    
C66   N56   S    
C144  C161  A    
H118  N23   S    
C197  C205  T    
Cu10  O3    S    
C142  C159  A    
C136  C176  A    
C124  C148  A    
C105  N36   T    
C130  N60   S    
C170  C206  S    
C76   N7    S    
C20   C82   S    
C158  N59   S    
C193  O21   A    
C26   C39   A    
C115  H92   S    
C65   N45   S    
C28   C41   A    
C129  N59   S    
C31   C40   A    
C32   C39   A    
C121  H121  S    
C125  H6    S    
C76   H84   S    
C140  O23   A    
C85   N16   T    
C158  C167  A    
C141  C176  A    
C192  C201  S    
C74   H76   S    
C71   H62   S    
C67   H49   S    
C14   C31   A    
C90   C97   S    
C167  C173  S    
C130  H27   S    
C35   C56   T    
C205  C213  S    
C130  H28   S    
Cu1   O14   S    
C132  C149  A    
C67   N62   S    
Cu3   O37   S    
C162  O48   A    
C126  H11   S    
C61   H41   S    
C118  H106  S    
C86   N17   T    
Cu8   O5    S    
C81   N11   T    
C193  O19   A    
C80   N10   T    
Cu3   Cu4   S    
C162  C166  S    
C193  C202  S    
C24   C55   T    
H47   N62   S    
C7    C47   A    
C107  C137  S    
C8    C48   A    
C104  N35   T    
C75   H79   S    
C185  O43   A    
C119  H111  S    
C147  N48   S    
C155  C168  A    
C181  O33   A    
C145  N46   S    
C3    C20   A    
C179  O31   A    
C116  H97   S    
C216  N23   S    
C131  H31   S    
C5    C44   A    
C6    C43   A    
C66   H46   S    
C65   H39   S    
C40   C186  S    
C9    C27   A    
C10   C28   A    
Cu1   Cu6   S    
C112  C163  S    
C129  H22   S    
C12   C30   A    
C73   H70   S    
C162  O7    A    
C99   C113  S    
C64   H36   S    
Cu8   O48   S    
C184  O5    A    
C98   C101  S    
C7    C25   A    
H69   N4    S    
Cu1   O9    S    
C128  H18   S    
C113  C147  A    
C120  H115  S    
C108  C138  S    
C83   N14   T    
Cu9   O8    S    
C188  C197  S    
C208  C211  S    
C37   C182  S    
C68   C178  S    
C11   C51   A    
C72   H67   S    
C64   N34   S    
C194  O25   A    
C141  C158  A    
C123  H3    S    
H104  N48   S    
C87   N18   T    
C8    N64   S    
Cu4   O41   S    
C126  H9    S    
C7    N63   S    
Cu2   O31   S    
C96   N27   T    
C189  C198  S    
C110  N41   T    
C61   N1    S    
C92   N22   T    
C44   C215  A    
C173  O2    A    
C18   C215  A    
C89   N20   T    
Cu6   O11   S    
C10   C50   A    
C88   N19   T    
Cu12  O28   S    
C52   C206  T    
C71   N2    S    
C146  N47   S    
C14   C49   A    
H12   N57   S    
C6    C23   A    
Cu8   O22   S    
C156  C169  A    
C45   C216  A    
C136  C154  A    
C125  N54   S    
C19   C216  A    
C94   N25   T    
C116  H99   S    
C117  H103  S    
C144  N44   S    
C214  N1    S    
C77   N8    S    
C69   H53   S    
C5    C22   A    
C70   H58   S    
C9    C49   A    
C149  C163  A    
C132  C171  A    
C32   C94   S    
C183  O36   A    
C62   H96   S    
C3    N34   S    
C114  N43   T    
C107  N38   T    
C134  C152  A    
C73   H72   S    
C95   N26   T    
C33   C95   S    
C98   N29   T    
C115  H94   S    
H73   N5    S    
Cu6   O46   S    
C78   N9    T    
C194  O22   A    
C101  C146  A    
C128  N58   S    
C128  H20   S    
Cu11  O21   S    
C179  O27   A    
H65   N3    S    
C168  C184  S    
H17   N58   S    
C31   C93   S    
C204  C213  T    
C189  O10   A    
Cu8   O18   S    
C22   C84   S    
C77   H89   S    
C16   C33   A    
C20   C38   A    
C79   C144  A    
Cu3   O36   S    
C191  O15   A    
Cu4   O43   S    
C122  H124  S    
H8    N55   S    
C109  N40   T    
C183  O40   A    
C10   N3    S    
C72   N3    S    
C45   C54   S    
C63   H2    S    
C207  C212  S    
C46   C176  S    
C203  C212  T    
C138  C178  A    
C201  C210  T    
C130  H29   S    
C196  O24   A    
C47   C55   S    
C138  C156  A    
C48   C56   S    
C215  N12   S    
H4    N54   S    
C122  H125  S    
C127  H16   S    
C9    N2    S    
Cu8   Cu10  S    
C11   N4    S    
C42   C183  S    
C181  O29   A    
C135  C153  A    
C159  C166  A    
C109  C139  S    
C126  N55   S    
C103  C133  S    
Cu5   Cu7   S    
Cu12  O29   S    
C112  O45   A    
C4    C21   A    
C69   H55   S    
C97   N28   T    
C194  C203  S    
C140  O44   A    
C25   C86   S    
C66   H44   S    
C190  O16   A    
C27   C88   S    
C121  H120  S    
Cu1   O44   S    
C125  H5    S    
C186  O42   A    
C120  H114  S    
C117  H102  S    
C39   C185  S    
H117  N51   S    
C137  C177  A    
C11   C29   A    
C18   C80   S    
C23   C85   S    
C106  N37   T    
H1    N1    S    
C152  N52   S    
C72   H66   S    
C12   C50   A    
C121  N51   S    
C122  N52   S    
C192  O20   A    
