data_mof_unit_25635.cif
_audit_creation_date              2012-12-10T20:31:04-0500
_audit_creation_method            fapswitch 2.2
_symmetry_space_group_name_H-M    P1
_symmetry_Int_Tables_number       1
_space_group_crystal_system       triclinic
_cell_length_a                    14.898346
_cell_length_b                    10.733433
_cell_length_c                    9.936786
_cell_angle_alpha                 90.193717
_cell_angle_beta                  90.468776
_cell_angle_gamma                 90.880479
_cell_volume                      1588.7448425

loop_
_atom_site_label
_atom_site_type_symbol
_atom_type_description
_atom_site_fract_x
_atom_site_fract_y
_atom_site_fract_z
_atom_type_partial_charge
C1    C     C_R   0.501574 0.259997 0.498764 0.901698
C2    C     C_R   0.907622 0.582442 0.579377 0.043087
C3    C     C_R   0.953061 0.300522 0.368251 -0.115746
C4    C     C_R   0.046156 0.301739 0.369572 -0.169733
C5    C     C_R   0.093185 0.395900 0.438286 0.145670
C6    C     C_R   0.046923 0.489324 0.508654 0.084672
C7    C     C_R   0.094664 0.584470 0.578268 0.064691
C8    C     C_R   0.049267 0.676004 0.649478 -0.201847
C9    C     C_R   0.956032 0.675656 0.650903 0.289688
C10   C     C_R   0.186100 0.399224 0.436704 -0.186980
C11   C     C_R   0.231954 0.496101 0.501746 -0.017875
C12   C     C_R   0.327238 0.499166 0.499963 0.884771
C13   C     C_R   0.187500 0.587109 0.574260 -0.162891
C14   C     C_R   0.539814 0.064955 0.608837 0.019922
C15   C     C_R   0.513385 0.128248 0.492916 -0.179650
C16   C     C_R   0.503912 0.060684 0.370071 0.315470
C17   C     C_R   0.504493 0.932391 0.374109 -0.218001
C18   C     C_R   0.512677 0.870871 0.497336 -0.112755
C19   C     C_R   0.537473 0.937975 0.611776 0.002396
C20   C     C_3   0.509664 0.932992 0.756124 0.042547
C21   C     C_3   0.512844 0.074880 0.752906 0.115944
C22   C     C_R   0.421233 0.500978 0.069205 -0.026850
C23   C     C_R   0.501929 0.739493 0.500037 0.915026
C24   C     C_R   0.576075 0.528878 0.072483 0.488142
C25   C     C_R   0.575942 0.529452 0.929389 0.484691
C26   C     C_R   0.421675 0.498323 0.928340 -0.066630
C27   C     C_3   0.342610 0.410630 0.922194 0.780532
C28   C     C_3   0.339218 0.419174 0.076437 0.083840
C29   C     C_R   0.672748 0.497024 0.500472 0.925366
C30   C     C_R   0.814733 0.581617 0.575592 -0.199537
C31   C     C_R   0.768189 0.490738 0.502189 -0.117372
C32   C     C_R   0.811798 0.395014 0.433679 0.234047
C33   C     C_R   0.905593 0.393543 0.436262 0.062428
C34   C     C_R   0.953284 0.488265 0.508370 -0.015430
H1    H     H_    0.777224 0.652697 0.627250 0.198756
H2    H     H_    0.492005 0.881499 0.281268 0.207899
H3    H     H_    0.561535 0.890621 0.821875 0.178467
H4    H     H_    0.446561 0.118093 0.765190 0.195137
H5    H     H_    0.350828 0.330159 0.129918 0.176771
H6    H     H_    0.919315 0.226677 0.312555 0.207393
H7    H     H_    0.081412 0.229739 0.315583 0.174108
H8    H     H_    0.222953 0.327743 0.384055 0.152871
H9    H     H_    0.225407 0.660308 0.625929 0.167069
H10   H     H_    0.086299 0.748423 0.703458 0.196714
N1    N     N_R   0.499390 0.499140 0.142800 -0.176088
N2    N     N_R   0.499390 0.499180 0.857150 -0.177653
O1    O     O_R   0.500010 0.316790 0.614690 -0.615101
O2    O     O_R   0.500000 0.316760 0.385350 -0.562772
O3    O     O_R   0.367850 0.499990 0.614680 -0.615371
O4    O     O_R   0.367840 0.499950 0.385340 -0.589933
O5    O     O_R   0.500000 0.683240 0.614650 -0.615989
O6    O     O_R   0.499990 0.683210 0.385310 -0.649270
O7    O     O_R   0.632160 0.500050 0.614660 -0.596916
O8    O     O_R   0.632150 0.500010 0.385320 -0.575668
Zn1   Zn    Zn3+2 0.500010 0.500020 0.653130 1.009700
Zn2   Zn    Zn3+2 0.499990 0.499980 0.346870 1.030974
Br1   Br    Br    0.388085 0.868803 0.783687 -0.481509
Br2   Br    Br    0.608740 0.147617 0.862389 -0.324675
O9    O     O_3   0.651405 0.574007 0.137192 -0.661708
H11   H     H_    0.629977 0.636804 0.202274 0.346626
O10   O     O_3   0.651083 0.574999 0.866593 -0.670805
H12   H     H_    0.629333 0.635874 0.799593 0.342533
O11   O     O_3   0.266142 0.456939 0.855186 -0.712375
H13   H     H_    0.269583 0.549422 0.855260 0.351821
O12   O     O_3   0.364788 0.291323 0.877660 -0.733955
H14   H     H_    0.359927 0.293273 0.778102 0.358591
Br3   Br    Br    0.237085 0.513504 0.140186 -0.435386
Br4   Br    Br    0.742212 0.264837 0.343464 -0.394596
Br5   Br    Br    0.899377 0.805908 0.751204 -0.405017
Br6   Br    Br    0.479934 0.128457 0.193923 -0.393972

loop_
_geom_bond_atom_site_label_1
_geom_bond_atom_site_label_2
_ccdc_geom_bond_type
N2    Zn1   S    
C12   O4    A    
C11   C12   S    
C1    O2    A    
C12   O3    A    
C6    C7    A    
C27   O12   S    
C17   H2    S    
C10   H8    S    
C22   N1    A    
C23   O5    A    
C19   C20   S    
C13   H9    S    
C30   C31   A    
C32   Br4   S    
C21   Br2   S    
C32   C33   A    
C2    C34   A    
C17   C18   A    
C26   C27   S    
O9    H11   S    
C29   C31   S    
C22   C28   S    
C4    H7    S    
C20   C21   S    
C21   H4    S    
C20   H3    S    
C11   C13   A    
C23   O6    A    
C5    C6    A    
C6    C34   A    
C29   O7    A    
C30   H1    S    
C24   O9    S    
C1    C15   S    
C24   N1    A    
C14   C19   A    
C14   C21   S    
C5    C10   A    
C9    Br5   S    
C3    H6    S    
C33   C34   A    
O5    Zn1   S    
O7    Zn1   S    
C22   C26   A    
O10   H12   S    
O8    Zn2   S    
C7    C8    A    
C29   O8    A    
C3    C33   A    
O6    Zn2   S    
C18   C23   S    
C8    H10   S    
C7    C13   A    
C28   Br3   S    
C16   Br6   S    
C24   C25   A    
N1    Zn2   S    
O1    Zn1   S    
O12   H14   S    
C10   C11   A    
C27   C28   S    
O2    Zn2   S    
C26   N2    A    
C14   C15   A    
C18   C19   A    
C2    C30   A    
C25   O10   S    
C27   O11   S    
C28   H5    S    
C20   Br1   S    
O11   H13   S    
C2    C9    A    
C4    C5    A    
C25   N2    A    
C31   C32   A    
O4    Zn2   S    
C3    C4    A    
C15   C16   A    
C16   C17   A    
C1    O1    A    
C8    C9    A    
O3    Zn1   S    
