data_mof_unit_15578.cif
_audit_creation_date              2012-12-10T18:43:03-0500
_audit_creation_method            fapswitch 2.2
_symmetry_space_group_name_H-M    P1
_symmetry_Int_Tables_number       1
_space_group_crystal_system       triclinic
_cell_length_a                    18.045661
_cell_length_b                    18.098523
_cell_length_c                    18.1139
_cell_angle_alpha                 120.110024
_cell_angle_beta                  90.048644
_cell_angle_gamma                 60.126899
_cell_volume                      4186.06100654

loop_
_atom_site_label
_atom_site_type_symbol
_atom_type_description
_atom_site_fract_x
_atom_site_fract_y
_atom_site_fract_z
_atom_type_partial_charge
C1    C     C_R   0.890494 0.216950 0.608462 0.528451
C2    C     C_3   0.551848 0.897234 0.946969 0.014814
C3    C     C_3   0.421125 0.034966 0.053250 -0.181397
C4    C     C_3   0.579326 0.965280 0.946085 -0.183786
C5    C     C_3   0.039931 0.402597 0.477405 -0.126097
C6    C     C_3   0.960183 0.597287 0.522629 -0.127451
C7    C     C_3   0.081244 0.465972 0.511876 -0.128653
C8    C     C_3   0.918869 0.533919 0.488145 -0.129664
C9    C     C_3   0.051028 0.499579 0.448566 0.068211
C10   C     C_3   0.949077 0.500318 0.551454 0.068506
C11   C     C_3   0.010619 0.436129 0.413145 -0.109006
C12   C     C_R   0.109421 0.782991 0.391460 0.530112
C13   C     C_3   0.989495 0.563750 0.586877 -0.108814
C14   C     C_3   0.925840 0.033585 0.476507 0.257837
C15   C     C_3   0.072447 0.966212 0.523062 0.257691
C16   C     C_R   0.608577 0.783078 0.890982 0.520749
C17   C     C_R   0.391465 0.216963 0.108787 0.527245
C18   C     C_3   0.952435 0.965188 0.511708 -0.049168
C19   C     C_3   0.045794 0.034364 0.487862 -0.034673
C20   C     C_3   0.050559 0.897113 0.448242 0.026041
C21   C     C_3   0.947897 0.102672 0.551381 0.027134
C22   C     C_3   0.023583 0.965014 0.411755 -0.157757
C23   C     C_3   0.553002 0.437632 0.413322 -0.109266
C24   C     C_3   0.974645 0.034775 0.588016 -0.174258
C25   C     C_3   0.921929 0.524755 0.042731 -0.124465
C26   C     C_3   0.077784 0.475542 0.957528 -0.122764
C27   C     C_3   0.956329 0.595293 0.078785 -0.126305
C28   C     C_3   0.043392 0.405006 0.921488 -0.123855
C29   C     C_3   0.050934 0.499616 0.051151 0.067544
C30   C     C_3   0.948801 0.500662 0.949102 0.067085
C31   C     C_3   0.017432 0.429017 0.016001 -0.107029
C32   C     C_3   0.982283 0.571280 0.984265 -0.108300
C33   C     C_3   0.554912 0.403205 0.922997 -0.125586
C34   C     C_3   0.446927 0.562799 0.586756 -0.108957
C35   C     C_3   0.445154 0.595869 0.076458 -0.129895
C36   C     C_3   0.450127 0.469626 0.955026 -0.123936
C37   C     C_3   0.549924 0.529506 0.044430 -0.126917
C38   C     C_3   0.449564 0.498824 0.050545 0.069657
C39   C     C_3   0.550509 0.500355 0.948907 0.067591
C40   C     C_R   0.608181 0.500196 0.891711 0.504111
C41   C     C_R   0.391816 0.499550 0.108101 0.502989
C42   C     C_3   0.553492 0.432375 0.019451 -0.110574
C43   C     C_3   0.446543 0.566847 0.980070 -0.112682
C44   C     C_R   0.891780 0.500026 0.608470 0.500740
C45   C     C_3   0.455890 0.966792 0.948197 -0.021505
C46   C     C_R   0.108248 0.499945 0.391535 0.500354
C47   C     C_R   0.891607 0.500172 0.891681 0.502641
C48   C     C_R   0.108293 0.499930 0.108415 0.504041
C49   C     C_R   0.608220 0.500258 0.608487 0.505609
C50   C     C_R   0.391772 0.499863 0.391523 0.506173
C51   C     C_3   0.546079 0.535760 0.489248 -0.130763
C52   C     C_3   0.453859 0.464649 0.510837 -0.131198
C53   C     C_3   0.441621 0.597785 0.523463 -0.125478
C54   C     C_3   0.558319 0.402605 0.476587 -0.126007
C55   C     C_3   0.449390 0.499693 0.448529 0.070133
C56   C     C_3   0.544325 0.033608 0.051065 -0.017620
C57   C     C_3   0.550558 0.500679 0.551531 0.070365
C58   C     C_R   0.900137 0.925701 0.523806 0.042156
C59   C     C_R   0.836948 0.981350 0.608375 -0.082849
C60   C     C_R   0.786515 0.946595 0.619136 -0.118774
C61   C     C_R   0.798469 0.856402 0.545810 -0.117501
C62   C     C_R   0.860846 0.800741 0.461367 -0.125305
C63   C     C_R   0.911200 0.835317 0.450167 -0.098942
C64   C     C_R   0.098818 0.073440 0.476612 0.064220
C65   C     C_R   0.151291 0.028663 0.390046 -0.077994
C66   C     C_R   0.201137 0.064284 0.379884 -0.117796
C67   C     C_3   0.482315 0.035591 0.948598 0.257278
C68   C     C_R   0.199407 0.144395 0.455888 -0.116677
C69   C     C_R   0.147264 0.189600 0.542187 -0.120832
C70   C     C_R   0.097241 0.154323 0.552637 -0.079837
C71   C     C_3   0.839083 0.997763 0.388644 0.010666
C72   C     C_3   0.786924 0.031850 0.332884 -0.257849
C73   C     C_3   0.776728 0.947679 0.261139 -0.479855
C74   C     C_3   0.143966 0.990304 0.630817 0.016986
C75   C     C_3   0.236359 0.966450 0.638882 -0.258365
C76   C     C_3   0.227638 0.042269 0.735101 -0.475068
C77   C     C_3   0.521738 0.073794 0.855726 -0.005137
C78   C     C_3   0.518036 0.964815 0.050490 0.245377
C79   C     C_3   0.537142 0.156182 0.922087 -0.249627
C80   C     C_3   0.611419 0.149707 0.873752 -0.495260
C81   C     C_3   0.488630 0.896513 0.115666 0.006542
C82   C     C_3   0.530770 0.832210 0.153698 -0.250355
C83   C     C_3   0.470634 0.803179 0.172650 -0.494952
C84   C     C_R   0.411189 0.925321 0.885091 0.082376
C85   C     C_R   0.329985 0.942409 0.918453 -0.084939
C86   C     C_R   0.290676 0.900899 0.858582 -0.118362
C87   C     C_R   0.332145 0.842125 0.765302 -0.112988
C88   C     C_R   0.412886 0.825009 0.731673 -0.111424
C89   C     C_3   0.448482 0.102882 0.052239 0.025764
C90   C     C_R   0.452254 0.866558 0.791276 -0.047929
C91   C     C_R   0.588823 0.075685 0.114079 0.078512
C92   C     C_R   0.669131 0.060179 0.080644 -0.092024
C93   C     C_R   0.707667 0.103216 0.140442 -0.117506
C94   C     C_R   0.666315 0.161979 0.233733 -0.116904
C95   C     C_R   0.586520 0.177465 0.267451 -0.112632
C96   C     C_R   0.547932 0.134377 0.207915 -0.044695
H1    H     H_    0.392592 0.677489 0.541124 0.107166
H2    H     H_    0.966915 0.629710 0.970400 0.126194
H3    H     H_    0.408258 0.444897 0.919497 0.106250
H4    H     H_    0.592074 0.553798 0.079802 0.105976
H5    H     H_    0.601002 0.324342 0.858964 0.107959
H6    H     H_    0.398621 0.674438 0.140636 0.112188
H7    H     H_    0.596456 0.377885 0.037155 0.118602
H8    H     H_    0.403531 0.622225 0.963196 0.121767
H9    H     H_    0.584874 0.565049 0.481702 0.101182
H10   H     H_    0.415066 0.435361 0.518390 0.101808
H11   H     H_    0.595333 0.387091 0.341278 0.127546
H12   H     H_    0.607371 0.322860 0.458856 0.109562
H13   H     H_    0.404491 0.613686 0.658826 0.127712
H14   H     H_    0.356638 0.066008 0.098566 0.097179
H15   H     H_    0.645039 0.933101 0.901965 0.099707
H16   H     H_    0.148859 0.438007 0.520449 0.102648
H17   H     H_    0.851255 0.561900 0.479572 0.101854
H18   H     H_    0.071048 0.322875 0.459724 0.124713
H19   H     H_    0.929050 0.677076 0.540516 0.125984
H20   H     H_    0.020210 0.383697 0.340946 0.123814
H21   H     H_    0.979899 0.616187 0.659076 0.124102
H22   H     H_    0.825809 0.052177 0.665797 0.105333
H23   H     H_    0.042011 0.934977 0.339341 0.117665
H24   H     H_    0.737751 0.989851 0.684191 0.098039
H25   H     H_    0.759321 0.829725 0.554397 0.098858
H26   H     H_    0.869819 0.731094 0.404406 0.101735
H27   H     H_    0.957310 0.792437 0.383589 0.091802
H28   H     H_    0.154438 0.965765 0.330304 0.100143
H29   H     H_    0.241149 0.029727 0.313024 0.093996
H30   H     H_    0.237990 0.171902 0.447874 0.101153
H31   H     H_    0.145423 0.252192 0.601033 0.100654
H32   H     H_    0.056798 0.190983 0.620008 0.087848
H33   H     H_    0.800138 0.985571 0.423392 0.153435
H34   H     H_    0.954864 0.065045 0.660409 0.106928
H35   H     H_    0.905992 0.922189 0.341014 0.121074
H36   H     H_    0.718616 0.105392 0.378208 0.166508
H37   H     H_    0.823803 0.046696 0.299021 0.171361
H38   H     H_    0.844374 0.873969 0.214234 0.142678
H39   H     H_    0.738996 0.973444 0.221098 0.180515
H40   H     H_    0.738813 0.932706 0.293654 0.145729
H41   H     H_    0.115007 0.977060 0.673435 0.136985
H42   H     H_    0.098509 0.074073 0.656762 0.120911
H43   H     H_    0.281039 0.885267 0.619502 0.161720
H44   H     H_    0.268119 0.972900 0.591819 0.177548
H45   H     H_    0.921799 0.673146 0.144395 0.101339
H46   H     H_    0.186265 0.123415 0.754115 0.139075
H47   H     H_    0.295892 0.021737 0.739254 0.170321
H48   H     H_    0.195271 0.038142 0.783744 0.157587
H49   H     H_    0.499753 0.089625 0.805004 0.148983
H50   H     H_    0.585525 0.993670 0.816384 0.112187
H51   H     H_    0.473156 0.235396 0.955674 0.181138
H52   H     H_    0.557823 0.144116 0.974875 0.180418
H53   H     H_    0.676418 0.072003 0.842399 0.136636
H54   H     H_    0.620773 0.210090 0.923364 0.152738
H55   H     H_    0.592924 0.163025 0.820979 0.139379
H56   H     H_    0.077852 0.327177 0.855887 0.100648
H57   H     H_    0.480926 0.848734 0.050937 0.148389
H58   H     H_    0.420776 0.968241 0.165176 0.122722
H59   H     H_    0.598091 0.759609 0.104126 0.167941
H60   H     H_    0.540482 0.877838 0.217553 0.170859
H61   H     H_    0.404316 0.874551 0.224939 0.143182
H62   H     H_    0.503950 0.753953 0.197687 0.143305
H63   H     H_    0.459300 0.758854 0.109655 0.153682
H64   H     H_    0.297228 0.987080 0.990408 0.092071
H65   H     H_    0.228067 0.914213 0.884510 0.102254
H66   H     H_    0.301371 0.810447 0.719179 0.104671
H67   H     H_    0.856938 0.544989 0.076508 0.106607
H68   H     H_    0.444894 0.779858 0.659488 0.095504
H69   H     H_    0.515036 0.852428 0.764405 0.095779
H70   H     H_    0.701657 0.015844 0.008699 0.093683
H71   H     H_    0.769525 0.091194 0.114451 0.105056
H72   H     H_    0.696512 0.194807 0.279799 0.104251
H73   H     H_    0.554609 0.222598 0.339646 0.097577
H74   H     H_    0.485753 0.147484 0.234866 0.105416
H75   H     H_    0.142758 0.455324 0.923735 0.109300
H76   H     H_    0.032792 0.370596 0.029875 0.126048
O1    O     O_3   0.750010 0.499980 0.749990 -0.441257
O2    O     O_R   0.305750 0.265450 0.132730 -0.533109
O3    O     O_R   0.867280 0.265410 0.571220 -0.508306
O4    O     O_R   0.132720 0.734590 0.428780 -0.511391
O5    O     O_R   0.571230 0.734580 0.867270 -0.551998
O6    O     O_R   0.428770 0.265420 0.132730 -0.556480
O7    O     O_R   0.694200 0.438470 0.867270 -0.543181
O8    O     O_R   0.305800 0.561530 0.132730 -0.541942
O9    O     O_R   0.867340 0.561470 0.694210 -0.554986
O10   O     O_R   0.132660 0.438530 0.305790 -0.555433
O11   O     O_R   0.867310 0.438430 0.867270 -0.549511
O12   O     O_3   0.249990 0.500020 0.250010 -0.441265
O13   O     O_R   0.132690 0.561570 0.132730 -0.549306
O14   O     O_R   0.694200 0.438520 0.571220 -0.538785
O15   O     O_R   0.305800 0.561480 0.428780 -0.539598
O16   O     O_R   0.867340 0.561440 0.867270 -0.545264
O17   O     O_R   0.132660 0.438560 0.132730 -0.544782
O18   O     O_R   0.571190 0.561530 0.694210 -0.545313
O19   O     O_R   0.428810 0.438470 0.305790 -0.544473
O20   O     O_3   0.847021 0.077213 0.454610 -0.553017
O21   O     O_3   0.154958 0.922817 0.539692 -0.552598
O22   O     O_3   0.452039 0.080372 0.899957 -0.566197
O23   O     O_R   0.571190 0.561490 0.867270 -0.550955
O24   O     O_3   0.545001 0.924493 0.102467 -0.567180
O25   O     O_R   0.428810 0.438510 0.132730 -0.553193
O26   O     O_R   0.867310 0.438490 0.571220 -0.543259
O27   O     O_R   0.132690 0.561510 0.428780 -0.543157
O28   O     O_R   0.867280 0.265380 0.694210 -0.565694
O29   O     O_R   0.132720 0.734620 0.305790 -0.565185
O30   O     O_R   0.694250 0.734550 0.867270 -0.534740
Zn1   Zn    Zn3+2 0.618190 0.587870 0.793920 0.926366
Zn2   Zn    Zn3+2 0.381810 0.412130 0.206080 0.924264
Zn3   Zn    Zn3+2 0.793940 0.412090 0.793920 0.918522
Zn4   Zn    Zn3+2 0.206060 0.587910 0.206080 0.920651
Zn5   Zn    Zn3+2 0.793970 0.587840 0.793920 0.925163
Zn6   Zn    Zn3+2 0.206030 0.412160 0.206080 0.926743
Zn7   Zn    Zn3+2 0.793940 0.412130 0.618200 0.948816
Zn8   Zn    Zn3+2 0.206060 0.587870 0.381800 0.946253

loop_
_geom_bond_atom_site_label_1
_geom_bond_atom_site_label_2
_ccdc_geom_bond_type
C17   O6    A    
C25   C31   S    
C80   H55   S    
C66   C68   A    
C87   C88   A    
O7    Zn3   S    
O16   Zn5   S    
C1    C21   S    
O28   Zn3   S    
O12   Zn2   S    
O6    Zn2   S    
C5    H18   S    
C27   C29   S    
C83   H62   S    
C14   C18   S    
C41   O8    A    
C95   C96   A    
C62   H26   S    
C75   C76   S    
C35   H6    S    
C42   H7    S    
C6    C9    S    
C81   C82   S    
C46   O27   A    
C81   H57   S    
C85   C86   A    
C17   O2    A    
C26   C32   S    
C74   H42   S    
C33   C39   S    
C33   H5    S    
C33   C42   S    
C14   C21   S    
O9    Zn5   S    
C38   C42   S    
C9    C46   S    
C75   H44   S    
C8    C10   S    
C16   O30   A    
O18   Zn1   S    
O23   Zn1   S    
C31   H76   S    
C3    H14   S    
C67   C89   S    
C33   C36   S    
C56   C78   S    
C7    H16   S    
O25   Zn2   S    
C61   H25   S    
C65   H28   S    
C37   C42   S    
O26   Zn7   S    
C43   H8    S    
C91   C96   A    
C15   C19   S    
C15   C24   S    
C18   C58   S    
C56   C91   S    
C49   O14   A    
C73   H39   S    
C32   H2    S    
C68   C69   A    
C73   H40   S    
C45   C67   S    
C34   C57   S    
O29   Zn4   S    
O5    Zn1   S    
C60   H24   S    
C51   C57   S    
C85   H64   S    
C64   C70   A    
C71   O20   S    
C67   O22   S    
C35   C43   S    
C86   H65   S    
C52   C55   S    
C12   O4    A    
C82   H60   S    
C77   C79   S    
C74   O21   S    
C52   H10   S    
C59   C60   A    
C96   H74   S    
C4    C56   S    
O2    Zn6   S    
C80   H53   S    
C84   C90   A    
O12   Zn8   S    
O8    Zn4   S    
C50   O15   A    
C52   C54   S    
C72   H36   S    
C53   C55   S    
C2    C45   S    
C22   H23   S    
C74   H41   S    
C19   C21   S    
C74   C75   S    
O12   Zn4   S    
C10   C44   S    
C30   C47   S    
C19   C22   S    
C17   C89   S    
C84   C85   A    
C38   C41   S    
C47   O11   A    
C94   H72   S    
C91   C92   A    
C5    C7    S    
C86   C87   A    
C39   C43   S    
C49   O18   A    
C29   C48   S    
C44   O26   A    
C53   H1    S    
C58   C59   A    
C88   H68   S    
C3    C45   S    
C81   H58   S    
C60   C61   A    
C51   C53   S    
C15   O21   S    
C2    C4    S    
C77   O22   S    
C62   C63   A    
C2    C78   S    
C92   H70   S    
C71   H33   S    
C40   O7    A    
C9    C11   S    
C23   C51   S    
C83   H61   S    
O15   Zn8   S    
C19   C64   S    
C51   H9    S    
C23   H11   S    
C12   C20   S    
C3    C89   S    
C94   C95   A    
O1    Zn5   S    
C93   C94   A    
C78   O24   S    
C12   O29   A    
C23   C55   S    
C50   O19   A    
C95   H73   S    
O10   Zn6   S    
C69   H31   S    
C48   O17   A    
C8    H17   S    
C26   C29   S    
C82   H59   S    
C6    C8    S    
C41   O25   A    
C56   C89   S    
C4    H15   S    
C88   C90   A    
C26   H75   S    
C28   H56   S    
C59   H22   S    
O30   Zn5   S    
C90   H69   S    
O11   Zn3   S    
C18   C24   S    
O14   Zn7   S    
C45   C84   S    
C63   H27   S    
O19   Zn2   S    
C68   H30   S    
C39   C40   S    
C2    C16   S    
C16   O5    A    
C23   C54   S    
C70   H32   S    
C25   C30   S    
C7    C9    S    
C1    O3    A    
C35   C37   S    
C27   C32   S    
C34   C52   S    
O13   Zn4   S    
C28   C31   S    
O1    Zn7   S    
C58   C63   A    
C20   C22   S    
C72   C73   S    
C76   H48   S    
C10   C13   S    
C49   C57   S    
C79   H51   S    
C5    C11   S    
C79   H52   S    
C54   H12   S    
C25   C27   S    
C48   O13   A    
C26   C28   S    
C50   C55   S    
O12   Zn6   S    
C66   H29   S    
C11   H20   S    
O1    Zn1   S    
O27   Zn8   S    
C71   C72   S    
C64   C65   A    
C46   O10   A    
C36   C38   S    
C14   O20   S    
C5    C10   S    
C29   C31   S    
C75   H43   S    
C54   C57   S    
C6    C13   S    
C30   C32   S    
C14   C22   S    
C72   H37   S    
C77   H49   S    
C25   H67   S    
C8    C11   S    
C77   H50   S    
C28   C30   S    
C92   C93   A    
C27   H45   S    
O4    Zn8   S    
C80   H54   S    
C36   H3    S    
C18   C20   S    
O3    Zn7   S    
C61   C62   A    
C69   C70   A    
C6    H19   S    
C71   H35   S    
C79   C80   S    
C1    O28   A    
C76   H47   S    
C24   H34   S    
C7    C13   S    
C87   H66   S    
C83   H63   S    
C73   H38   S    
C93   H71   S    
C34   C53   S    
C37   C39   S    
C65   C66   A    
C21   C24   S    
C13   H21   S    
C34   H13   S    
C35   C38   S    
C36   C43   S    
O1    Zn3   S    
O17   Zn6   S    
C82   C83   S    
C47   O16   A    
C3    C78   S    
C44   O9    A    
C15   C20   S    
C37   H4    S    
C4    C67   S    
C81   O24   S    
C40   O23   A    
C76   H46   S    
