data_mof_unit_33610.cif
_audit_creation_date              2012-12-11T18:37:28-0500
_audit_creation_method            fapswitch 2.2
_symmetry_space_group_name_H-M    P1
_symmetry_Int_Tables_number       1
_space_group_crystal_system       triclinic
_cell_length_a                    8.259671
_cell_length_b                    14.355301
_cell_length_c                    27.134216
_cell_angle_alpha                 93.498513
_cell_angle_beta                  92.446203
_cell_angle_gamma                 88.886479
_cell_volume                      3207.92664845

loop_
_atom_site_label
_atom_site_type_symbol
_atom_type_description
_atom_site_fract_x
_atom_site_fract_y
_atom_site_fract_z
_atom_type_partial_charge
Ba1   Ba    Ba6+2 0.849670 0.455410 0.524690 1.686220
Ba2   Ba    Ba6+2 0.340150 0.544510 0.475310 1.654995
C1    C     C_3   0.672387 0.110637 0.668786 0.191270
C2    C     C_3   0.605004 0.208419 0.661061 0.261286
C3    C     C_3   0.531077 0.700810 0.624883 0.303368
C4    C     C_3   0.512979 0.742334 0.677271 -0.294466
C5    C     C_3   0.092312 0.746377 0.334188 0.336966
C6    C     C_3   0.113790 0.772806 0.281469 -0.311696
C7    C     C_3   0.555331 0.793849 0.354986 0.359971
C8    C     C_3   0.525367 0.888218 0.333333 -0.367464
C9    C     C_R   0.008821 0.433194 0.181634 0.598326
C10   C     C_R   0.931661 0.594259 0.177193 0.572897
C11   C     C_2   0.773351 0.563648 0.271838 -0.084344
C12   C     C_3   0.110082 0.252998 0.662752 0.352992
C13   C     C_3   0.756760 0.593515 0.325565 -0.048874
C14   C     C_1   0.983081 0.486404 0.344211 0.036237
C15   C     C_2   0.024371 0.482175 0.296853 -0.104697
C16   C     C_2   0.911736 0.520333 0.257086 0.193293
C17   C     C_R   0.025142 0.507985 0.103022 -0.079397
C18   C     C_R   0.046595 0.428572 0.130883 -0.036468
C19   C     C_R   0.104290 0.345769 0.107316 -0.060168
C20   C     C_R   0.967263 0.591178 0.126585 -0.024383
C21   C     C_2   0.855803 0.535022 0.360211 -0.288973
C22   C     C_2   0.360741 0.485323 0.644068 -0.306062
C23   C     C_3   0.100671 0.225220 0.715650 -0.305629
C24   C     C_R   0.155540 0.416077 0.976933 0.019798
C25   C     C_R   0.072902 0.581554 0.972721 0.020077
C26   C     C_R   0.131967 0.497031 0.949419 0.049973
C27   C     C_R   0.214827 0.333921 0.951809 -0.101231
C28   C     C_R   0.249678 0.331377 0.902001 -0.057950
C29   C     C_R   0.227426 0.410475 0.874515 -0.024745
C30   C     C_R   0.168215 0.493418 0.898010 -0.079534
C31   C     C_R   0.145954 0.572742 0.870126 -0.036707
C32   C     C_R   0.184356 0.568338 0.819448 0.597580
C33   C     C_R   0.263864 0.407640 0.823956 0.574641
C34   C     C_3   0.164204 0.256382 0.419528 0.310913
C35   C     C_2   0.425575 0.440675 0.729908 -0.093120
C36   C     C_3   0.444508 0.415200 0.675924 -0.068833
C37   C     C_1   0.218370 0.521952 0.657203 -0.009167
C38   C     C_2   0.172676 0.520912 0.704126 -0.092294
C39   C     C_2   0.284721 0.482148 0.744246 0.205202
C40   C     C_R   0.119568 0.419649 0.028246 0.020425
C41   C     C_R   0.061036 0.504270 0.051584 0.049809
C42   C     C_R   0.037780 0.585267 0.024087 0.020131
C43   C     C_R   0.139989 0.341251 0.057424 -0.098500
C44   C     C_R   0.945790 0.670381 0.099148 -0.060028
C45   C     C_3   0.156723 0.151468 0.407855 -0.380163
C46   C     C_R   0.051093 0.659743 0.943458 -0.098612
C47   C     C_R   0.086877 0.655287 0.893591 -0.057758
C48   C     C_R   0.979976 0.667688 0.049304 -0.101404
C49   C     C_R   0.690286 0.063775 0.471973 -0.036733
C50   C     C_R   0.506347 0.195491 0.498496 0.044611
C51   C     C_R   0.361482 0.223713 0.519502 -0.274286
C52   C     C_R   0.266505 0.162797 0.542752 -0.001234
C53   C     C_R   0.315606 0.069534 0.544780 -0.078844
C54   C     C_R   0.458247 0.037410 0.521875 0.017476
C55   C     C_R   0.553894 0.099754 0.497352 -0.028067
C56   C     C_3   0.030112 0.739415 0.573700 0.293065
C57   C     C_R   0.638582 0.907244 0.497024 -0.028970
C58   C     C_R   0.734295 0.968543 0.472083 -0.004770
C59   C     C_R   0.681493 0.811412 0.495863 0.034117
C60   C     C_R   0.815031 0.777712 0.470273 -0.290137
C61   C     C_R   0.917109 0.838381 0.449196 0.016396
C62   C     C_R   0.875596 0.933791 0.448984 -0.140490
C63   C     C_R   0.503392 0.943189 0.522440 0.016197
C64   C     C_3   0.024726 0.845007 0.583351 -0.359956
C65   C     C_3   0.657874 0.342822 0.380851 0.292946
C66   C     C_3   0.666877 0.319632 0.325578 -0.362935
H1    H     H_    0.563890 0.211306 0.621513 0.030744
H2    H     H_    0.231324 0.131236 0.375693 0.130664
H3    H     H_    0.203404 0.113355 0.439959 0.053398
H4    H     H_    0.029301 0.131059 0.398994 0.117306
H5    H     H_    0.907953 0.714565 0.562209 0.004991
H6    H     H_    0.114638 0.721823 0.543763 0.073977
H7    H     H_    0.932906 0.864987 0.610990 0.155745
H8    H     H_    0.992812 0.879726 0.548851 0.057443
H9    H     H_    0.145391 0.869787 0.597637 0.137362
H10   H     H_    0.777423 0.366671 0.395802 0.011481
H11   H     H_    0.566245 0.399424 0.386725 0.082048
H12   H     H_    0.772856 0.094276 0.643587 0.114627
H13   H     H_    0.765318 0.267394 0.318377 0.136319
H14   H     H_    0.691512 0.383371 0.306305 0.070835
H15   H     H_    0.549757 0.290872 0.310552 0.132208
H16   H     H_    0.500464 0.221376 0.685186 0.032012
H17   H     H_    0.408715 0.680217 0.610165 -0.017126
H18   H     H_    0.615907 0.640026 0.626580 0.012046
H19   H     H_    0.428909 0.803673 0.677075 0.172598
H20   H     H_    0.463105 0.689304 0.700361 0.060628
H21   H     H_    0.632810 0.764532 0.693538 0.138401
H22   H     H_    0.718641 0.106098 0.707607 0.082705
H23   H     H_    0.103812 0.288783 0.740855 0.117202
H24   H     H_    0.162058 0.680605 0.339883 0.090556
H25   H     H_    0.961605 0.735135 0.338953 -0.050293
H26   H     H_    0.233225 0.804982 0.277816 0.145012
H27   H     H_    0.108536 0.709141 0.256358 0.122643
H28   H     H_    0.016973 0.823011 0.270379 0.120429
H29   H     H_    0.688608 0.780830 0.356415 -0.064058
H30   H     H_    0.510817 0.797816 0.393160 0.075488
H31   H     H_    0.596433 0.942250 0.355349 0.070332
H32   H     H_    0.395185 0.908270 0.334355 0.148688
H33   H     H_    0.028755 0.314701 0.658118 0.091507
H34   H     H_    0.563663 0.885478 0.294530 0.124494
H35   H     H_    0.141006 0.452404 0.286823 0.132307
H36   H     H_    0.122311 0.283305 0.127507 0.122161
H37   H     H_    0.513844 0.414479 0.756663 0.115466
H38   H     H_    0.294979 0.266289 0.885002 0.126114
H39   H     H_    0.236489 0.269507 0.969454 0.070137
H40   H     H_    0.183406 0.274372 0.042978 0.069235
H41   H     H_    0.684574 0.589212 0.245038 0.118824
H42   H     H_    0.901722 0.735698 0.116222 0.122629
H43   H     H_    0.006174 0.726362 0.957782 0.070268
H44   H     H_    0.236696 0.271878 0.656175 -0.055142
H45   H     H_    0.067887 0.717612 0.873342 0.125977
H46   H     H_    0.054750 0.549186 0.713859 0.131134
H47   H     H_    0.959488 0.732300 0.031755 0.069433
H48   H     H_    0.840395 0.549376 0.399477 0.080110
H49   H     H_    0.314216 0.292220 0.513695 0.121189
H50   H     H_    0.241264 0.022054 0.563133 0.095770
H51   H     H_    0.954729 0.980584 0.432010 0.071262
H52   H     H_    0.847464 0.704298 0.470367 0.058416
H53   H     H_    0.762899 0.108578 0.451604 0.096168
H54   H     H_    0.985402 0.189226 0.720661 0.132063
H55   H     H_    0.429263 0.898403 0.542348 0.114314
H56   H     H_    0.203905 0.177964 0.725124 0.150199
H57   H     H_    0.292339 0.276119 0.425981 0.001344
H58   H     H_    0.093328 0.274174 0.452804 0.048785
N1    N     N_R   0.952060 0.515676 0.204651 -0.421619
N2    N     N_R   0.242634 0.486161 0.796506 -0.423379
O1    O     O_2   0.918080 0.549800 0.616640 -0.456311
O2    O     O_3   0.614556 0.262456 0.403476 -0.645276
O3    O     O_3   0.060337 0.177970 0.630493 -0.588521
O4    O     O_2   0.271610 0.450170 0.383330 -0.465393
O5    O     O_3   0.039630 0.450200 0.443530 -0.489868
O6    O     O_3   0.531440 0.620360 0.408460 -0.476982
O7    O     O_3   0.099102 0.301309 0.378938 -0.625570
O8    O     O_3   0.643350 0.612530 0.521650 -0.488803
O9    O     O_3   0.127390 0.668260 0.431510 -0.492201
O10   O     O_2   0.253117 0.834341 0.458855 -0.494854
O11   O     O_3   0.150000 0.818398 0.367167 -0.600906
O12   O     O_3   0.150070 0.549720 0.556460 -0.477557
O13   O     O_3   0.546340 0.387390 0.478340 -0.461844
O14   O     O_2   0.398940 0.728800 0.517420 -0.475375
O15   O     O_3   0.595862 0.767630 0.596315 -0.618368
O16   O     O_2   0.423182 0.542857 0.321640 -0.497164
O17   O     O_3   0.472687 0.723869 0.325696 -0.594240
O18   O     O_2   0.024030 0.363169 0.204957 -0.596519
O19   O     O_2   0.314254 0.334472 0.804404 -0.618920
O20   O     O_2   0.882929 0.667772 0.196806 -0.621085
O21   O     O_2   0.168503 0.638345 0.796134 -0.592491
O22   O     O_3   0.658250 0.379560 0.591530 -0.453039
O23   O     O_2   0.782103 0.454026 0.677367 -0.498346
O24   O     O_3   0.082036 0.699403 0.617438 -0.627047
O25   O     O_3   0.726130 0.274069 0.674075 -0.621111
O26   O     O_2   0.790750 0.271170 0.482550 -0.469375
O27   O     O_3   0.062300 0.331660 0.568480 -0.459348
O28   O     O_2   0.927994 0.166490 0.542188 -0.484295
P1    P     P_3+3 0.090020 0.577590 0.608380 1.001208
P2    P     P_3+3 0.614340 0.285150 0.467650 0.993038
P3    P     P_3+3 0.078691 0.209467 0.569794 0.985905
P4    P     P_3+3 0.099670 0.422330 0.391610 0.996262
P5    P     P_3+3 0.111505 0.790043 0.427241 0.937510
P6    P     P_3+3 0.654877 0.382961 0.656322 0.950217
P7    P     P_3+3 0.583373 0.729703 0.533532 0.939540
P8    P     P_3+3 0.544598 0.615771 0.344544 0.944434
Cl1   Cl    Cl    0.518078 0.026385 0.656368 -0.743723
C67   C     C_2   0.407172 0.482496 0.592755 0.585339
H59   H     H_    0.481189 0.534888 0.579171 -0.000852
O29   O     O_2   0.362221 0.418348 0.564713 -0.575735

loop_
_geom_bond_atom_site_label_1
_geom_bond_atom_site_label_2
_ccdc_geom_bond_type
C25   C46   A    
C47   H45   S    
C53   C54   A    
C38   C39   S    
C7    H30   S    
C14   P4    S    
C9    N1    Am   
C17   C18   A    
C6    H28   S    
O16   P8    D    
O1    P1    D    
C5    C6    S    
C10   N1    Am   
C51   C52   A    
C12   H44   S    
C65   H10   S    
C24   C40   A    
O4    P4    D    
C62   H51   S    
C11   C16   D    
C1    H22   S    
C66   H13   S    
Ba1   P2    S    
O26   P2    D    
Ba1   O1    S    
C28   C29   A    
O12   P1    S    
C51   H49   S    
C3    O15   S    
C5    H24   S    
C31   C47   A    
C54   C63   A    
C10   C20   A    
C22   C37   D    
C4    H20   S    
C54   C55   A    
C34   C45   S    
Ba1   Ba2   S    
Ba1   O27   S    
C11   H41   S    
C52   P3    S    
C52   C53   A    
C19   H36   S    
C25   C42   A    
C56   C64   S    
C38   H46   S    
C34   H57   S    
C56   O24   S    
C14   C15   D    
C22   C36   S    
C1    Cl1   S    
C49   C55   A    
Ba1   O8    S    
C7    C8    S    
C60   H52   S    
C43   H40   S    
C3    H17   S    
C13   C21   S    
C2    O25   S    
C21   H48   S    
C57   C58   A    
C28   H38   S    
C67   O29   D    
C66   H15   S    
C39   N2    S    
C33   N2    Am   
C6    H27   S    
Ba1   O5    S    
C1    H12   S    
O15   P7    S    
C2    H1    S    
C32   O21   D    
C17   C41   A    
C31   C32   A    
C57   C63   A    
C19   C43   A    
C12   O3    S    
C50   P2    S    
C5    H25   S    
C9    C18   A    
C23   H23   S    
Ba2   O5    S    
C57   C59   A    
O27   P3    S    
C65   C66   S    
C13   P8    S    
C26   C30   A    
C17   C20   A    
C65   H11   S    
C37   C38   D    
C12   H33   S    
Ba2   O8    S    
C4    H19   S    
O22   P6    S    
C40   C43   A    
C22   C67   S    
C41   C42   A    
C45   H2    S    
C35   H37   S    
C35   C36   S    
C16   N1    S    
Ba2   O4    S    
C29   C30   A    
C2    H16   S    
O11   P5    S    
O23   P6    D    
C64   H8    S    
O9    P5    S    
C60   C61   A    
C15   C16   S    
C6    H26   S    
Ba1   O22   S    
C33   O19   D    
C8    H32   S    
C45   H3    S    
Ba1   O12   S    
C3    H18   S    
Ba2   P4    S    
C46   C47   A    
C20   C44   A    
C14   C21   D    
C11   C13   S    
C67   H59   S    
Ba2   O14   S    
C29   C33   A    
C65   O2    S    
C40   C41   A    
C1    C2    S    
C34   O7    S    
O14   P7    D    
C50   C51   A    
C56   H6    S    
C23   H54   S    
C42   C48   A    
C61   P5    S    
C64   H9    S    
O24   P1    S    
O3    P3    S    
C7    H29   S    
O7    P4    S    
C59   P7    S    
Ba2   O9    S    
O28   P3    D    
C34   H58   S    
Ba1   O26   S    
Ba2   O6    S    
C9    O18   D    
O17   P8    S    
C4    H21   S    
C44   C48   A    
C24   C26   A    
C58   C62   A    
O25   P6    S    
O2    P2    S    
O5    P4    S    
Ba2   O12   S    
C30   C31   A    
C10   O20   D    
Ba1   P1    S    
C15   H35   S    
C66   H14   S    
C44   H42   S    
C48   H47   S    
C5    O11   S    
C3    C4    S    
C49   H53   S    
C64   H7    S    
C8    H34   S    
C7    O17   S    
O6    P8    S    
C8    H31   S    
O10   P5    D    
C63   H55   S    
C12   C23   S    
C35   C39   D    
C59   C60   A    
C23   H56   S    
C45   H4    S    
Ba1   O13   S    
C50   C55   A    
C27   C28   A    
C61   C62   A    
O13   P2    S    
C36   P6    S    
C46   H43   S    
C18   C19   A    
C24   C27   A    
C32   N2    Am   
C25   C26   A    
Ba2   O13   S    
C27   H39   S    
C49   C58   A    
C53   H50   S    
C37   P1    S    
C56   H5    S    
O8    P7    S    
