data_mof_unit_49462.cif
_audit_creation_date              2012-10-26T19:20:37-0400
_audit_creation_method            fapswitch 2.2
_symmetry_space_group_name_H-M    P1
_symmetry_Int_Tables_number       1
_space_group_crystal_system       triclinic
_cell_length_a                    10.865212
_cell_length_b                    10.976741
_cell_length_c                    9.791159
_cell_angle_alpha                 112.049777
_cell_angle_beta                  97.515057
_cell_angle_gamma                 90.621739
_cell_volume                      1070.7454404

loop_
_atom_site_label
_atom_site_type_symbol
_atom_type_description
_atom_site_fract_x
_atom_site_fract_y
_atom_site_fract_z
_atom_type_partial_charge
C1    C     C_R   0.489529 0.252968 0.439556 0.551627
C2    C     C_R   0.738385 0.496447 0.496611 0.540582
C3    C     C_R   0.136104 0.470832 0.753422 0.066862
C4    C     C_R   0.837879 0.320046 0.220021 0.068108
C5    C     C_R   0.106417 0.558774 0.892840 0.033305
C6    C     C_R   0.880686 0.295620 0.082964 0.041224
C7    C     C_R   0.007256 0.640287 0.891271 -0.125937
C8    C     C_R   0.008330 0.296059 0.080236 -0.133383
C9    C     C_R   0.931131 0.622420 0.758320 -0.124288
C10   C     C_R   0.090063 0.333681 0.212454 -0.135964
C11   C     C_R   0.958669 0.530373 0.622235 -0.017131
C12   C     C_R   0.510236 0.747300 0.560674 0.573593
C13   C     C_R   0.047270 0.395832 0.351422 -0.016010
C14   C     C_R   0.077143 0.483107 0.621857 0.014164
C15   C     C_R   0.916944 0.399492 0.353502 0.012039
C16   C     C_R   0.872595 0.479396 0.488683 -0.036918
C17   C     C_R   0.129039 0.445985 0.488904 -0.045736
C18   C     C_3   0.202998 0.345590 0.737959 -0.271483
C19   C     C_3   0.114667 0.222373 0.659432 -0.461994
C20   C     C_3   0.745120 0.214981 0.219769 -0.266594
C21   C     C_3   0.782346 0.161370 0.341945 -0.439595
C22   C     C_3   0.183063 0.567843 0.038363 -0.262392
C23   C     C_2   0.480856 0.111066 0.404244 0.000717
C24   C     C_3   0.145126 0.668133 0.181124 -0.435403
C25   C     C_3   0.792215 0.256701 0.938589 -0.302813
C26   C     C_3   0.800265 0.360592 0.870725 -0.410676
C27   C     C_3   0.502559 0.983391 0.752930 -0.276675
C28   C     C_3   0.371441 0.966131 0.786132 -0.433847
C29   C     C_3   0.397286 0.023127 0.263426 -0.272313
C30   C     C_3   0.260628 0.044498 0.280489 -0.439295
C31   C     C_2   0.518485 0.889750 0.596493 0.000776
C32   C     C_2   0.542699 0.067617 0.503621 -0.157293
C33   C     C_2   0.537362 0.929877 0.486239 -0.151463
C34   C     C_2   0.513129 0.509200 0.082401 -0.040578
C35   C     C_2   0.503765 0.478426 0.917274 -0.048937
C36   C     C_R   0.263237 0.479136 0.496091 0.541455
Cu1   Cu    Cu3+1 0.521920 0.521810 0.644910 0.885720
Cu2   Cu    Cu3+1 0.478080 0.478190 0.355090 0.874214
H1    H     H_    0.044538 0.259938 0.975353 0.105717
H2    H     H_    0.386784 0.367894 0.062695 0.185950
H3    H     H_    0.033973 0.227219 0.719103 0.145166
H4    H     H_    0.080550 0.210731 0.542999 0.148773
H5    H     H_    0.164644 0.133979 0.656056 0.130054
H6    H     H_    0.244016 0.344243 0.846449 0.102549
H7    H     H_    0.279622 0.334039 0.671437 0.177112
H8    H     H_    0.769397 0.233958 0.452983 0.154340
H9    H     H_    0.723731 0.070477 0.318659 0.132132
H10   H     H_    0.880933 0.135454 0.343660 0.145119
H11   H     H_    0.651666 0.250697 0.222096 0.202903
H12   H     H_    0.982320 0.712492 0.992338 0.109530
H13   H     H_    0.738086 0.127769 0.113200 0.114502
H14   H     H_    0.048921 0.642652 0.193060 0.150893
H15   H     H_    0.208867 0.666950 0.278873 0.185157
H16   H     H_    0.152245 0.768981 0.181172 0.133869
H17   H     H_    0.178123 0.471054 0.048437 0.150161
H18   H     H_    0.280940 0.594275 0.034750 0.163144
H19   H     H_    0.779256 0.458067 0.950695 0.165684
H20   H     H_    0.894451 0.369193 0.842383 0.158139
H21   H     H_    0.732320 0.332878 0.767412 0.170608
H22   H     H_    0.814682 0.159708 0.858684 0.128681
H23   H     H_    0.852550 0.682780 0.763546 0.137727
H24   H     H_    0.694401 0.247913 0.957344 0.135644
H25   H     H_    0.301330 0.977092 0.698981 0.145622
H26   H     H_    0.355190 0.867616 0.790280 0.176196
H27   H     H_    0.359317 0.042336 0.895722 0.120612
H28   H     H_    0.571416 0.963821 0.835487 0.136989
H29   H     H_    0.519353 0.088276 0.770845 0.132875
H30   H     H_    0.235358 0.011435 0.368011 0.148953
H31   H     H_    0.242293 0.150062 0.311774 0.150712
H32   H     H_    0.201112 0.987008 0.173425 0.130666
H33   H     H_    0.419015 0.046676 0.167945 0.144489
H34   H     H_    0.185412 0.311591 0.201346 0.145864
H35   H     H_    0.411177 0.916969 0.233633 0.139622
H36   H     H_    0.549258 0.858077 0.377530 0.126737
H37   H     H_    0.600299 0.136561 0.602102 0.126117
H38   H     H_    0.453111 0.388358 0.841554 0.140985
H39   H     H_    0.578847 0.588140 0.158202 0.149618
H40   H     H_    0.601756 0.640321 0.938405 0.195472
N1    N     N_2   0.445130 0.445420 0.137360 -0.368374
N2    N     N_2   0.554870 0.554580 0.862640 -0.358657
O1    O     O_R   0.511700 0.332340 0.577400 -0.518204
O2    O     O_R   0.488300 0.667660 0.422600 -0.499165
O3    O     O_R   0.474680 0.295500 0.332650 -0.517028
O4    O     O_R   0.525320 0.704500 0.667350 -0.489846
O5    O     O_R   0.338170 0.518410 0.622370 -0.489166
O6    O     O_R   0.661830 0.481590 0.377630 -0.498021
O7    O     O_R   0.301150 0.481570 0.377630 -0.503497
O8    O     O_R   0.698850 0.518430 0.622370 -0.500789

loop_
_geom_bond_atom_site_label_1
_geom_bond_atom_site_label_2
_ccdc_geom_bond_type
C24   H14   S    
Cu2   O3    S    
Cu1   O8    S    
C32   H37   S    
C20   H11   S    
Cu2   O6    S    
C9    H23   S    
C23   C29   S    
Cu1   O5    S    
Cu1   Cu2   S    
C18   C19   S    
C20   H13   S    
C34   H39   S    
C11   C14   A    
H40   N2    S    
C6    C25   S    
C29   H35   S    
Cu2   N1    S    
C24   H16   S    
C15   C16   A    
C35   N2    D    
C12   O4    A    
C3    C18   S    
C34   C35   S    
C5    C22   S    
C31   C33   D    
Cu1   O4    S    
C2    O8    A    
C25   H22   S    
C2    C16   S    
C26   H21   S    
C19   H4    S    
C21   H10   S    
Cu2   O2    S    
C14   C17   A    
Cu1   O1    S    
C30   H32   S    
C19   H5    S    
C36   O7    A    
Cu1   N2    S    
C35   H38   S    
C27   C31   S    
C4    C6    A    
C5    C7    A    
C22   H18   S    
C25   C26   S    
C29   C30   S    
C18   H6    S    
C34   N1    D    
C26   H20   S    
C11   C16   A    
H2    N1    S    
C12   O2    A    
C9    C11   A    
C3    C14   A    
C28   H26   S    
C17   C36   S    
C1    C23   S    
C13   C15   A    
C12   C31   S    
C22   C24   S    
C18   H7    S    
C30   H31   S    
C21   H8    S    
C7    C9    A    
C7    H12   S    
C3    C5    A    
C10   C13   A    
C6    C8    A    
C22   H17   S    
C36   O5    A    
C1    O3    A    
C13   C17   A    
Cu2   O7    S    
C23   C32   D    
C4    C15   A    
C28   H27   S    
C24   H15   S    
C27   H28   S    
C32   C33   S    
C2    O6    A    
C25   H24   S    
C26   H19   S    
C27   H29   S    
C4    C20   S    
C28   H25   S    
C33   H36   S    
C20   C21   S    
C8    C10   A    
C27   C28   S    
C8    H1    S    
C21   H9    S    
C1    O1    A    
C30   H30   S    
C19   H3    S    
C29   H33   S    
C10   H34   S    
