data_mof_unit_12419.cif
_audit_creation_date              2013-03-05T16:32:58-0500
_audit_creation_method            fapswitch 2.2
_symmetry_space_group_name_H-M    P1
_symmetry_Int_Tables_number       1
_space_group_crystal_system       triclinic
_cell_length_a                    23.485425
_cell_length_b                    10.905897
_cell_length_c                    9.581828
_cell_angle_alpha                 91.681792
_cell_angle_beta                  89.446755
_cell_angle_gamma                 91.051951
_cell_volume                      2452.61733864

loop_
_atom_site_label
_atom_site_type_symbol
_atom_site_description
_atom_site_fract_x
_atom_site_fract_y
_atom_site_fract_z
_atom_type_partial_charge
O1    O     O_R   0.500000 0.319640 0.618810 -0.586182
O2    O     O_R   0.500010 0.319680 0.381230 -0.548857
C1    C     C_R   0.499428 0.263074 0.497357 0.823080
O3    O     O_R   0.417880 0.499940 0.618820 -0.545673
O4    O     O_R   0.417880 0.499980 0.381240 -0.581173
C2    C     C_R   0.391173 0.502724 0.501190 0.792639
Cu1   Cu    Cu3+1 0.500000 0.499980 0.640670 0.951686
Cu2   Cu    Cu3+1 0.500000 0.500020 0.359330 0.956279
O5    O     O_R   0.499990 0.680320 0.618770 -0.568183
O6    O     O_R   0.500000 0.680360 0.381190 -0.548050
O7    O     O_R   0.582120 0.500020 0.618760 -0.590057
O8    O     O_R   0.582120 0.500060 0.381180 -0.556965
C3    C     C_R   0.498938 0.737412 0.500685 0.810444
C4    C     C_R   0.608764 0.495930 0.499161 0.811285
C5    C     C_R   0.880255 0.568189 0.427581 0.586538
N1    N     N_R   0.851265 0.474831 0.489451 -0.448810
C6    C     C_R   0.878493 0.378678 0.544881 0.526916
C7    C     C_R   0.938566 0.374953 0.543558 -0.034779
C8    C     C_R   0.969611 0.474956 0.486822 -0.105562
C9    C     C_R   0.940423 0.567916 0.418736 -0.079526
C10   C     C_R   0.968595 0.277562 0.602240 0.116263
C11   C     C_R   0.025099 0.300293 0.645180 0.116501
C12   C     C_R   0.057793 0.392607 0.576971 -0.034472
C13   C     C_R   0.029713 0.480294 0.496233 -0.091459
C14   C     C_R   0.061359 0.575370 0.430070 -0.084042
C15   C     C_R   0.031920 0.662251 0.348388 0.084109
C16   C     C_R   0.971468 0.657524 0.343927 0.237251
C17   C     C_R   0.117777 0.397375 0.582170 0.529159
N2    N     N_R   0.147659 0.489501 0.520441 -0.432370
C18   C     C_R   0.121433 0.578035 0.447894 0.585976
O9    O     O_2   0.850486 0.661882 0.377838 -0.516440
O10   O     O_2   0.847130 0.291105 0.607687 -0.564931
O11   O     O_2   0.146747 0.309066 0.644706 -0.572889
O12   O     O_2   0.154357 0.667374 0.393742 -0.565141
C19   C     C_R   0.238686 0.587842 0.592920 0.315608
C20   C     C_R   0.298654 0.599297 0.576332 0.014844
C21   C     C_R   0.328502 0.501941 0.505986 -0.139145
C22   C     C_R   0.297963 0.398489 0.450176 0.079263
C23   C     C_R   0.238580 0.397111 0.456291 -0.196988
H1    H     H_    0.214660 0.320986 0.409277 0.172804
C24   C     C_R   0.209003 0.490640 0.525264 0.251424
C25   C     C_R   0.758822 0.407117 0.398115 -0.254392
H2    H     H_    0.780910 0.349048 0.322425 0.144707
C26   C     C_R   0.699283 0.409963 0.398779 0.215854
C27   C     C_R   0.671012 0.486816 0.497285 -0.081005
C28   C     C_R   0.702752 0.556377 0.595222 -0.372427
H3    H     H_    0.681392 0.615000 0.671080 0.159972
C29   C     C_R   0.762215 0.552493 0.595125 0.315020
C30   C     C_R   0.790261 0.477591 0.495365 0.315150
C31   C     C_R   0.518390 0.068044 0.602604 -0.108340
C32   C     C_R   0.499628 0.130801 0.489659 -0.162358
C33   C     C_R   0.480811 0.061124 0.370337 0.178036
C34   C     C_R   0.478089 0.930663 0.374964 0.177078
C35   C     C_R   0.496960 0.870565 0.496691 -0.192431
C36   C     C_R   0.517118 0.944441 0.606469 0.036441
C37   C     C_3   0.541205 0.947468 0.751691 0.484918
C38   C     C_3   0.540695 0.090188 0.746700 -0.082391
H4    H     H_    0.507987 0.135026 0.814007 0.164665
C39   C     C_R   0.548223 0.531908 0.073158 0.212214
N3    N     N_R   0.500360 0.500930 0.147930 -0.199218
C40   C     C_R   0.455808 0.450943 0.075041 -0.136580
H5    H     H_    0.420318 0.411296 0.131328 0.170023
C41   C     C_R   0.455231 0.451053 0.926435 0.318642
N4    N     N_R   0.500360 0.500890 0.852020 -0.187626
C42   C     C_R   0.548471 0.528016 0.925968 0.152371
C43   C     C_3   0.582217 0.642519 0.916817 -0.522383
C44   C     C_3   0.580019 0.653148 0.075784 -0.093387
H6    H     H_    0.624777 0.625102 0.870012 0.194817
H7    H     H_    0.557418 0.710890 0.863966 0.259210
H8    H     H_    0.552789 0.729889 0.113869 0.194578
C45   C     C_3   0.944416 0.146389 0.605345 -0.361696
C46   C     C_3   0.926781 0.098420 0.459985 -0.784844
H9    H     H_    0.890994 0.150703 0.418384 0.271204
H10   H     H_    0.963468 0.104610 0.386286 0.228467
H11   H     H_    0.912983 0.000698 0.465495 0.248659
H12   H     H_    0.977086 0.081431 0.638814 0.176627
H13   H     H_    0.908825 0.138344 0.681480 0.245500
N5    N     N_2   0.668341 0.332904 0.302746 -0.424437
H14   H     H_    0.688365 0.322222 0.206939 0.243418
C47   C     C_3   0.650876 0.216250 0.358834 -0.678168
H15   H     H_    0.688642 0.164679 0.391663 0.228931
H16   H     H_    0.628029 0.160320 0.277847 0.216282
H17   H     H_    0.621839 0.230563 0.449458 0.214662
N6    N     N_2   0.793782 0.626955 0.692251 -0.414481
H18   H     H_    0.775872 0.711385 0.712562 0.250178
C48   C     C_3   0.807487 0.566289 0.819501 -0.684547
H19   H     H_    0.833771 0.628997 0.886926 0.223862
H20   H     H_    0.832289 0.482459 0.796119 0.260050
H21   H     H_    0.767855 0.541356 0.877301 0.216280
N7    N     N_2   0.461435 0.121130 0.249720 -0.411397
H22   H     H_    0.424909 0.082713 0.207234 0.246641
C49   C     C_3   0.504865 0.144534 0.144835 -0.673154
H23   H     H_    0.525689 0.058724 0.109947 0.196013
H24   H     H_    0.538426 0.207958 0.185678 0.264848
H25   H     H_    0.485234 0.187316 0.053829 0.204687
N8    N     N_2   0.458709 0.860808 0.255507 -0.410114
H26   H     H_    0.468945 0.896652 0.160523 0.252450
C50   C     C_3   0.400482 0.816220 0.261971 -0.664692
H27   H     H_    0.370826 0.894257 0.271587 0.205449
H28   H     H_    0.394518 0.754709 0.351079 0.254573
H29   H     H_    0.390432 0.762020 0.165111 0.221090
N9    N     N_2   0.502506 0.896802 0.856228 -0.438872
H30   H     H_    0.519154 0.899103 0.955123 0.222600
C51   C     C_3   0.441948 0.921019 0.853121 -0.729197
H31   H     H_    0.433500 0.016990 0.887580 0.210673
H32   H     H_    0.419254 0.858932 0.925554 0.231088
H33   H     H_    0.424288 0.902640 0.747600 0.244017
N10   N     N_2   0.598158 0.896377 0.761953 -0.447023
H34   H     H_    0.621212 0.920617 0.849772 0.251169
C52   C     C_3   0.630510 0.858880 0.638760 -0.723637
H35   H     H_    0.675050 0.840146 0.668164 0.222383
H36   H     H_    0.631356 0.931515 0.559982 0.228198
H37   H     H_    0.611562 0.773458 0.592637 0.232132
C53   C     C_3   0.598401 0.160985 0.749980 -0.361608
C54   C     C_3   0.616031 0.194684 0.899336 -0.860366
H38   H     H_    0.585159 0.259483 0.947667 0.247620
H39   H     H_    0.618018 0.111964 0.963600 0.242453
H40   H     H_    0.658672 0.240372 0.898472 0.250950
H41   H     H_    0.632875 0.109637 0.696314 0.225509
H42   H     H_    0.594588 0.247997 0.694267 0.228030
C55   C     C_3   0.045928 0.236695 0.775064 -0.356673
C56   C     C_3   0.060804 0.329120 0.893109 -0.785599
H43   H     H_    0.096566 0.391078 0.864051 0.265149
H44   H     H_    0.023143 0.385499 0.920421 0.235505
H45   H     H_    0.073376 0.279222 0.987056 0.232271
H46   H     H_    0.012103 0.177148 0.820147 0.174483
H47   H     H_    0.081826 0.174986 0.750367 0.243543
N11   N     N_2   0.408356 0.394662 0.856173 -0.374917
H48   H     H_    0.403892 0.302659 0.876750 0.219861
C57   C     C_3   0.355239 0.458801 0.874928 -0.670563
H49   H     H_    0.339593 0.453495 0.983795 0.189939
H50   H     H_    0.322566 0.416857 0.804501 0.236515
H51   H     H_    0.361147 0.556889 0.850158 0.234242
C58   C     C_3   0.639678 0.651124 0.142661 -0.329439
C59   C     C_3   0.644724 0.744304 0.264171 -0.825745
H52   H     H_    0.641070 0.838940 0.225724 0.237395
H53   H     H_    0.610734 0.728501 0.342726 0.258309
H54   H     H_    0.686700 0.735854 0.315071 0.253321
H55   H     H_    0.649249 0.558242 0.179198 0.227701
H56   H     H_    0.673495 0.675103 0.065667 0.200202
C60   C     C_3   0.063169 0.759097 0.262492 -0.346160
C61   C     C_3   0.076181 0.875578 0.350371 -0.757219
H57   H     H_    0.099697 0.855045 0.446482 0.284057
H58   H     H_    0.102254 0.940301 0.287956 0.234079
H59   H     H_    0.036020 0.921214 0.381966 0.220120
H60   H     H_    0.101635 0.722170 0.209957 0.234404
H61   H     H_    0.038403 0.785994 0.171094 0.177660
N12   N     N_2   0.941352 0.740947 0.260672 -0.379555
H62   H     H_    0.954963 0.831285 0.265391 0.250683
C62   C     C_3   0.926924 0.694641 0.121933 -0.643348
H63   H     H_    0.965977 0.677641 0.058635 0.194951
H64   H     H_    0.900790 0.762841 0.068954 0.226529
H65   H     H_    0.901782 0.607631 0.127757 0.238591
N13   N     N_2   0.207095 0.670264 0.680598 -0.407291
H66   H     H_    0.218816 0.761232 0.677992 0.275650
C63   C     C_3   0.197584 0.628374 0.820857 -0.721332
H67   H     H_    0.169291 0.693049 0.878655 0.230210
H68   H     H_    0.238659 0.623965 0.876934 0.220632
H69   H     H_    0.176672 0.536249 0.818453 0.249113
C64   C     C_3   0.329740 0.713883 0.634925 -0.407722
C65   C     C_3   0.316974 0.829435 0.553789 -0.861693
H70   H     H_    0.299711 0.805920 0.448654 0.273063
H71   H     H_    0.286229 0.888464 0.611347 0.244939
H72   H     H_    0.356481 0.885791 0.541449 0.235910
H73   H     H_    0.318017 0.729383 0.746500 0.201623
H74   H     H_    0.376486 0.703584 0.633743 0.213521
C66   C     C_3   0.326576 0.284806 0.389202 -0.369407
C67   C     C_3   0.313790 0.266732 0.234087 -0.826140
H75   H     H_    0.268217 0.242221 0.217777 0.245524
H76   H     H_    0.323959 0.352285 0.179397 0.249601
H77   H     H_    0.339799 0.191642 0.188291 0.231890
H78   H     H_    0.373370 0.287378 0.402690 0.211147
H79   H     H_    0.310695 0.203071 0.445415 0.200472

loop_
_geom_bond_atom_site_label_1
_geom_bond_atom_site_label_2
_geom_bond_distance
_ccdc_geom_bond_type
C59   H54   1.110615 S    
C43   H6    1.108891 S    
C36   C37   1.506374 S    
C7    C10   1.418400 A    
C33   N7    1.427065 S    
C8    C9    1.412910 A    
C58   H55   1.108992 S    
C19   N13   1.425623 S    
N11   H48   1.031493 S    
C51   H32   1.109707 S    
C53   C54   1.526278 S    
N7    H22   1.029888 S    
C59   H52   1.111068 S    
C23   C24   1.391856 A    
C34   C35   1.432455 A    
C37   C38   1.558899 S    
Cu1   O7    1.937990 S    
C17   N2    1.361175 A    
C15   C16   1.420727 A    
C21   C22   1.419710 A    
C10   C45   1.530433 S    
O4    C2    1.303854 A    
C20   C21   1.431521 A    
N12   C62   1.449165 S    
C55   H47   1.107841 S    
C46   H11   1.110810 S    
C58   H56   1.111672 S    
C22   C23   1.395121 A    
O7    C4    1.300382 A    
N5    C47   1.446481 S    
C43   H7    1.093371 S    
C54   H38   1.110250 S    
N10   H34   1.030332 S    
C59   H53   1.106543 S    
C7    C8    1.419345 A    
C40   C41   1.424148 A    
O5    C3    1.308044 A    
C52   H35   1.110071 S    
C37   N10   1.463678 S    
C39   C44   1.506227 S    
C35   C36   1.387639 A    
N6    H18   1.031869 S    
C67   H77   1.108339 S    
C39   C42   1.409697 A    
C19   C20   1.419437 A    
N1    C6    1.361805 A    
C54   H39   1.109021 S    
C62   H65   1.110907 S    
N8    C50   1.444315 S    
C12   C13   1.422790 A    
C64   H74   1.105534 S    
C15   C60   1.530501 S    
N13   C63   1.446120 S    
C41   N11   1.417232 S    
C66   H79   1.111716 S    
C67   H76   1.104667 S    
C43   C44   1.524650 S    
C39   N3    1.369569 A    
O1    Cu1   1.971769 S    
C10   C11   1.408613 A    
C34   N8    1.429620 S    
C61   H59   1.109887 S    
N9    H30   1.028023 S    
C25   C26   1.399180 A    
C47   H17   1.108137 S    
C51   H31   1.109018 S    
C65   H71   1.108385 S    
C65   H70   1.110795 S    
C4    C27   1.467009 S    
C22   C66   1.520057 S    
C28   C29   1.397933 A    
C18   O12   1.345621 S    
C32   C33   1.423498 A    
Cu1   Cu2   2.695764 S    
C44   C58   1.547112 S    
N12   H62   1.030041 S    
C46   H9    1.108083 S    
O3    C2    1.296564 A    
C66   C67   1.525556 S    
C1    C32   1.442370 S    
N5    H14   1.031916 S    
C16   N12   1.428817 S    
O3    Cu1   1.941953 S    
C14   C15   1.437500 A    
C64   H73   1.110294 S    
C48   H21   1.112019 S    
C49   H25   1.109146 S    
C29   N6    1.421984 S    
N3    C40   1.360355 A    
O1    C1    1.301113 A    
C57   H50   1.110147 S    
N2    C18   1.365418 A    
C62   H64   1.110211 S    
N1    C30   1.434111 S    
N7    C49   1.449548 S    
Cu2   O8    1.941953 S    
C54   H40   1.110403 S    
N8    H26   1.025741 S    
C49   H24   1.105847 S    
C6    C7    1.412082 A    
C55   C56   1.531410 S    
C2    C21   1.471997 S    
C31   C32   1.377528 A    
C12   C17   1.410053 A    
C13   C14   1.424993 A    
N9    C51   1.452058 S    
C52   H37   1.107082 S    
N13   H66   1.025633 S    
C38   C53   1.547518 S    
C60   H60   1.106516 S    
C46   H10   1.111074 S    
C67   H75   1.109815 S    
O8    C4    1.299714 A    
C17   O11   1.347332 S    
C42   C43   1.471027 S    
C20   C64   1.530714 S    
C50   H28   1.107473 S    
C61   H58   1.110261 S    
C57   H51   1.108483 S    
C25   H2    1.083506 S    
C56   H44   1.111252 S    
C45   H13   1.108091 S    
C65   H72   1.110774 S    
C33   C34   1.425036 A    
C11   C55   1.531044 S    
C3    C35   1.455387 S    
C14   C18   1.422467 A    
Cu1   O5    1.984052 S    
C28   H3    1.079900 S    
C63   H67   1.110355 S    
N2    C24   1.441695 S    
C48   H19   1.110127 S    
C31   C38   1.492921 S    
C8    C13   1.415301 A    
C63   H69   1.109922 S    
O2    Cu2   1.984052 S    
C26   C27   1.412840 A    
C53   H41   1.106912 S    
N6    C48   1.445939 S    
C47   H15   1.111775 S    
O6    C3    1.287222 A    
N11   C57   1.448496 S    
O4    Cu2   1.937995 S    
C5    O9    1.349551 S    
C66   H78   1.107535 S    
C9    C16   1.416093 A    
C50   H29   1.110577 S    
C58   C59   1.526793 S    
C31   C36   1.349365 A    
C62   H63   1.110110 S    
C44   H8    1.113459 S    
C64   C65   1.535665 S    
C56   H45   1.110593 S    
C26   N5    1.423425 S    
C57   H49   1.105391 S    
C37   N9    1.459843 S    
C55   H46   1.109202 S    
C60   C61   1.531044 S    
Cu2   N3    2.025848 S    
C38   H4    1.109436 S    
C45   H12   1.109715 S    
C29   C30   1.405915 A    
N4    C42   1.362782 A    
C63   H68   1.111211 S    
C49   H23   1.105440 S    
C47   H16   1.109235 S    
N10   C52   1.450395 S    
O2    C1    1.288073 A    
C48   H20   1.109206 S    
C40   H5    1.079035 S    
C19   C24   1.404001 A    
C52   H36   1.109914 S    
Cu1   N4    2.024952 S    
C60   H61   1.105658 S    
C25   C30   1.398067 A    
C41   N4    1.383526 A    
C23   H1    1.083328 S    
C27   C28   1.400977 A    
C45   C46   1.531513 S    
Cu2   O6    1.971768 S    
C50   H27   1.110762 S    
C61   H57   1.108931 S    
C6    O10   1.347664 S    
C11   C12   1.425087 A    
C56   H43   1.106893 S    
C5    C9    1.414836 A    
C51   H33   1.107983 S    
C53   H42   1.107827 S    
C5    N1    1.361556 A    
