data_mof_unit_40868.cif
_audit_creation_date              2012-12-10T19:42:54-0500
_audit_creation_method            fapswitch 2.2
_symmetry_space_group_name_H-M    P1
_symmetry_Int_Tables_number       1
_space_group_crystal_system       triclinic
_cell_length_a                    10.817189
_cell_length_b                    12.973605
_cell_length_c                    11.685615
_cell_angle_alpha                 99.38391
_cell_angle_beta                  93.489303
_cell_angle_gamma                 90.993818
_cell_volume                      1614.37079178

loop_
_atom_site_label
_atom_site_type_symbol
_atom_type_description
_atom_site_fract_x
_atom_site_fract_y
_atom_site_fract_z
_atom_type_partial_charge
C1    C     C_R   0.505157 0.299559 0.478816 0.900416
C2    C     C_R   0.494843 0.700440 0.521184 0.900415
C3    C     C_R   0.871534 0.500720 0.501013 -0.142872
C4    C     C_R   0.128465 0.499280 0.498987 -0.142872
C5    C     C_R   0.937960 0.429555 0.559198 -0.076494
C6    C     C_R   0.062040 0.570445 0.440802 -0.076495
C7    C     C_R   0.483738 0.813426 0.532836 -0.066738
C8    C     C_R   0.516263 0.186574 0.467164 -0.066737
C9    C     C_R   0.576614 0.018214 0.366830 -0.284222
C10   C     C_R   0.423387 0.981786 0.633170 -0.284221
C11   C     C_R   0.574671 0.126587 0.373793 -0.027989
C12   C     C_R   0.425331 0.873413 0.626208 -0.027990
C13   C     C_R   0.466978 0.137584 0.553110 -0.232606
C14   C     C_R   0.533022 0.862416 0.446890 -0.232605
C15   C     C_R   0.472838 0.030042 0.547066 0.142509
C16   C     C_R   0.527164 0.969958 0.452934 0.142509
C17   C     C_R   0.397732 0.388618 0.023059 -0.105293
C18   C     C_R   0.602267 0.611382 0.976941 -0.105293
C19   C     C_R   0.404268 0.403387 0.145396 0.025571
C20   C     C_R   0.595732 0.596613 0.854604 0.025569
C21   C     C_R   0.542957 0.548137 0.157148 0.071872
C22   C     C_R   0.457043 0.451863 0.842852 0.071872
C23   C     C_R   0.262570 0.500696 0.500202 0.875122
C24   C     C_R   0.737430 0.499304 0.499798 0.875123
C25   C     C_R   0.536424 0.541011 0.034152 -0.039960
C26   C     C_R   0.463576 0.458989 0.965848 -0.039960
C27   C     C_R   0.208562 0.824152 0.386289 -0.136823
C28   C     C_R   0.791439 0.175847 0.613710 -0.136823
C29   C     C_R   0.148400 0.751056 0.440850 -0.127270
C30   C     C_R   0.851601 0.248944 0.559149 -0.127271
C31   C     C_R   0.128186 0.647786 0.383650 0.116984
C32   C     C_R   0.871814 0.352214 0.616350 0.116984
C33   C     C_R   0.166957 0.619111 0.270468 -0.014480
C34   C     C_R   0.833043 0.380888 0.729531 -0.014480
C35   C     C_R   0.229113 0.691930 0.217081 -0.102232
C36   C     C_R   0.770886 0.308069 0.782918 -0.102232
C37   C     C_R   0.250009 0.794377 0.275019 -0.091432
C38   C     C_R   0.749992 0.205621 0.724980 -0.091432
C39   C     C_R   0.932726 0.572304 0.443375 -0.037530
C40   C     C_R   0.067274 0.427696 0.556625 -0.037530
Cu1   Cu    Cu3+1 0.509250 0.507730 0.615930 1.004228
Cu2   Cu    Cu3+1 0.490750 0.492270 0.384070 1.004229
H1    H     H_    0.297995 0.850779 0.233630 0.150692
H2    H     H_    0.702006 0.149220 0.766369 0.150692
H3    H     H_    0.397708 0.393806 0.788078 0.174062
H4    H     H_    0.602292 0.606194 0.211922 0.174062
H5    H     H_    0.645675 0.649700 0.810277 0.158520
H6    H     H_    0.354324 0.350300 0.189722 0.158520
H7    H     H_    0.223931 0.903733 0.430628 0.155331
H8    H     H_    0.776072 0.096266 0.569371 0.155331
H9    H     H_    0.117003 0.774864 0.527187 0.164445
H10   H     H_    0.882999 0.225135 0.472812 0.164442
H11   H     H_    0.150173 0.540175 0.224400 0.143279
H12   H     H_    0.849825 0.459824 0.775599 0.143279
H13   H     H_    0.260757 0.668998 0.130715 0.144201
H14   H     H_    0.739242 0.331001 0.869284 0.144201
H15   H     H_    0.576942 0.816595 0.375195 0.197943
H16   H     H_    0.423058 0.183405 0.624805 0.197943
H17   H     H_    0.620699 0.971727 0.296031 0.140521
H18   H     H_    0.379304 0.028273 0.703970 0.140522
N1    N     N_R   0.523180 0.519350 0.790130 -0.203164
N2    N     N_R   0.476820 0.480650 0.209870 -0.203163
O1    O     O_R   0.506570 0.354460 0.582000 -0.593146
O2    O     O_R   0.493430 0.645540 0.418000 -0.593146
O3    O     O_R   0.490940 0.341410 0.386200 -0.559909
O4    O     O_R   0.509060 0.658590 0.613800 -0.559913
O5    O     O_R   0.327460 0.506540 0.597900 -0.549099
O6    O     O_R   0.672540 0.493460 0.402100 -0.549098
O7    O     O_R   0.311830 0.493480 0.402100 -0.605625
O8    O     O_R   0.688170 0.506520 0.597900 -0.605625
C41   C     C_2   0.326185 0.296343 0.959774 0.810421
O9    O     O_2   0.225128 0.273707 0.991849 -0.579694
O10   O     O_R   0.376858 0.231889 0.867721 -0.802603
H19   H     H_    0.320227 0.169871 0.834511 0.316108
C42   C     C_2   0.673814 0.703657 0.040226 0.810420
O11   O     O_2   0.774871 0.726295 0.008150 -0.579694
O12   O     O_R   0.623142 0.768111 0.132280 -0.802604
H20   H     H_    0.679773 0.830129 0.165489 0.316107
C43   C     C_2   0.862721 0.652674 0.390600 0.826464
O13   O     O_2   0.787348 0.705475 0.446229 -0.634894
O14   O     O_R   0.885006 0.669161 0.278374 -0.742670
H21   H     H_    0.836775 0.729417 0.255017 0.343669
C44   C     C_2   0.137279 0.347326 0.609400 0.826464
O15   O     O_2   0.212652 0.294525 0.553771 -0.634893
O16   O     O_R   0.114994 0.330839 0.721626 -0.742670
H22   H     H_    0.163225 0.270584 0.744983 0.343669
C45   C     C_2   0.359130 0.828133 0.714805 0.355623
H23   H     H_    0.351642 0.874028 0.800390 0.081066
O17   O     O_2   0.305922 0.742869 0.691893 -0.542297
C46   C     C_2   0.640875 0.171867 0.285197 0.355619
H24   H     H_    0.648370 0.125970 0.199615 0.081067
O18   O     O_2   0.694076 0.257134 0.308107 -0.542297

loop_
_geom_bond_atom_site_label_1
_geom_bond_atom_site_label_2
_ccdc_geom_bond_type
C45   H23   S    
C18   C42   S    
C27   C29   A    
C1    C8    S    
O10   H19   S    
C23   O7    A    
C2    C7    S    
Cu1   N1    S    
O14   H21   S    
C24   O8    A    
Cu1   O5    S    
O12   H20   S    
C8    C13   A    
C17   C26   A    
C35   C37   A    
C9    C16   A    
C10   C15   A    
C19   N2    A    
C15   C16   A    
Cu1   Cu2   S    
C23   O5    A    
C20   N1    A    
C21   C25   A    
C17   C19   A    
C28   H8    S    
C7    C14   A    
C4    C40   A    
Cu2   O3    S    
C1    O3    A    
C31   C33   A    
Cu2   N2    S    
C34   C36   A    
C5    C32   S    
C6    C31   S    
C3    C39   A    
Cu2   O6    S    
C40   C44   S    
C3    C24   S    
C18   C25   A    
C1    O1    A    
C2    O2    A    
C33   H11   S    
C7    C12   A    
C35   H13   S    
C4    C6    A    
C43   O14   S    
C4    C23   S    
C19   H6    S    
C13   H16   S    
C2    O4    A    
C25   C26   A    
O16   H22   S    
Cu2   O7    S    
C9    H17   S    
C39   C43   S    
C37   H1    S    
C10   H18   S    
C42   O11   D    
C38   H2    S    
C36   H14   S    
C42   O12   S    
C46   O18   D    
C44   O15   D    
C28   C38   A    
C9    C11   A    
C21   N2    A    
C10   C12   A    
C44   O16   S    
C34   H12   S    
C13   C15   A    
C14   C16   A    
Cu1   O1    S    
Cu2   O2    S    
C41   O10   S    
C21   H4    S    
C29   H9    S    
C14   H15   S    
C30   H10   S    
C12   C45   S    
C3    C5    A    
C17   C41   S    
Cu1   O4    S    
C28   C30   A    
C41   O9    D    
C29   C31   A    
C22   N1    A    
C30   C32   A    
C11   C46   S    
C46   H24   S    
C27   C37   A    
C8    C11   A    
C36   C38   A    
C33   C35   A    
C18   C20   A    
C20   H5    S    
C24   O6    A    
C43   O13   D    
C22   H3    S    
C22   C26   A    
C5    C40   A    
C45   O17   D    
C6    C39   A    
C27   H7    S    
C32   C34   A    
Cu1   O8    S    
