data_mof_unit_35740.cif
_audit_creation_date              2012-12-11T17:02:19-0500
_audit_creation_method            fapswitch 2.2
_symmetry_space_group_name_H-M    P1
_symmetry_Int_Tables_number       1
_space_group_crystal_system       triclinic
_cell_length_a                    21.620269
_cell_length_b                    7.080072
_cell_length_c                    14.811053
_cell_angle_alpha                 89.820013
_cell_angle_beta                  105.910632
_cell_angle_gamma                 89.910225
_cell_volume                      2180.30114309

loop_
_atom_site_label
_atom_site_type_symbol
_atom_type_description
_atom_site_fract_x
_atom_site_fract_y
_atom_site_fract_z
_atom_type_partial_charge
O1    O     O_R   0.585850 0.505770 0.002130 -0.537162
O2    O     O_R   0.414150 0.005770 0.997870 -0.537535
O3    O     O_R   0.467530 0.173560 0.861970 -0.539556
O4    O     O_R   0.532470 0.673560 0.138030 -0.537613
C1    C     C_R   0.456419 0.344885 0.825189 0.711162
C2    C     C_R   0.543644 0.844169 0.174870 0.711332
O5    O     O_R   0.588690 0.175900 0.993250 -0.545158
O6    O     O_R   0.411310 0.675900 0.006750 -0.544777
O7    O     O_R   0.536170 0.007950 0.130090 -0.537949
O8    O     O_R   0.463830 0.507950 0.869910 -0.536249
C3    C     C_R   0.615011 0.344530 0.997582 0.687905
C4    C     C_R   0.384981 0.844710 0.002361 0.688653
O9    O     O_3   0.482630 0.339970 0.044740 -0.373178
O10   O     O_3   0.517370 0.839970 0.955260 -0.373173
V1    V     V_3+5 0.503220 0.064200 0.991700 1.402685
V2    V     V_3+5 0.496780 0.564200 0.008300 1.407520
C5    C     C_R   0.292302 0.009551 0.041687 0.101204
C6    C     C_R   0.707489 0.509785 0.958025 0.101240
C7    C     C_R   0.317081 0.852796 0.005610 -0.108797
C8    C     C_R   0.682895 0.352533 0.994228 -0.107489
C9    C     C_R   0.275112 0.699875 0.974469 -0.179817
C10   C     C_R   0.725094 0.199444 0.025620 -0.181243
H1    H     H_    0.291977 0.575520 0.946328 0.135632
H2    H     H_    0.708398 0.074704 0.053853 0.134468
C11   C     C_R   0.209709 0.711526 0.972776 -0.185083
C12   C     C_R   0.790512 0.211392 0.027461 -0.184388
H3    H     H_    0.178345 0.594660 0.944363 0.134086
H4    H     H_    0.822032 0.094235 0.056004 0.133282
C13   C     C_R   0.184204 0.877019 0.001593 -0.107453
C14   C     C_R   0.815812 0.377360 0.998549 -0.105692
C15   C     C_R   0.227623 0.021347 0.039783 0.108756
C16   C     C_R   0.772171 0.521849 0.960043 0.106282
C17   C     C_3   0.224659 0.226762 0.016896 -0.421283
C18   C     C_3   0.774744 0.727108 0.982501 -0.422369
C19   C     C_3   0.295260 0.213919 0.019184 -0.401861
C20   C     C_3   0.704131 0.714013 0.980067 -0.400179
H5    H     H_    0.216009 0.314150 0.074501 0.169608
H6    H     H_    0.783304 0.814954 0.924764 0.169559
H7    H     H_    0.192537 0.257358 0.945763 0.170372
H8    H     H_    0.806745 0.757300 0.053614 0.171294
H9    H     H_    0.327341 0.293752 0.078169 0.173628
H10   H     H_    0.671961 0.794148 0.920859 0.173260
H11   H     H_    0.304028 0.237455 0.949443 0.166251
H12   H     H_    0.695237 0.737066 0.049699 0.167372
C21   C     C_R   0.925697 0.888272 0.723608 -0.031060
C22   C     C_R   0.074380 0.382015 0.276146 -0.029123
C23   C     C_R   0.570471 0.850830 0.276820 -0.078273
C24   C     C_R   0.429447 0.354055 0.723361 -0.074114
C25   C     C_R   0.935552 0.930008 0.566577 -0.163398
C26   C     C_R   0.063333 0.354885 0.433172 -0.163035
C27   C     C_R   0.963764 0.920179 0.662852 -0.175467
C28   C     C_R   0.035452 0.368499 0.336902 -0.177202
C29   C     C_R   0.859032 0.867329 0.688161 -0.212605
C30   C     C_R   0.141436 0.381892 0.311468 -0.211865
C31   C     C_R   0.828702 0.881384 0.590501 0.081845
C32   C     C_R   0.171255 0.368308 0.409234 0.081968
C33   C     C_R   0.868678 0.912064 0.530095 0.140242
C34   C     C_R   0.130529 0.354695 0.469675 0.140292
C35   C     C_R   0.760412 0.868490 0.550968 0.064940
C36   C     C_R   0.239680 0.367969 0.448924 0.065370
C37   C     C_R   0.733621 0.883460 0.451511 0.085155
C38   C     C_R   0.265977 0.355002 0.548508 0.086111
C39   C     C_R   0.775961 0.913555 0.395008 -0.188899
C40   C     C_R   0.222924 0.340949 0.605034 -0.188510
C41   C     C_R   0.841831 0.927290 0.433678 -0.209747
C42   C     C_R   0.156875 0.340796 0.566234 -0.209997
C43   C     C_R   0.718037 0.842815 0.607498 -0.217270
C44   C     C_R   0.282620 0.380342 0.392488 -0.217302
C45   C     C_R   0.652033 0.830416 0.568770 -0.184838
C46   C     C_R   0.348748 0.381933 0.431416 -0.184190
C47   C     C_R   0.624717 0.840922 0.471706 0.044658
C48   C     C_R   0.375745 0.371609 0.528573 0.043858
C49   C     C_R   0.665439 0.867753 0.411751 0.025970
C50   C     C_R   0.334383 0.357266 0.588379 0.025312
C51   C     C_R   0.557083 0.824942 0.434455 0.424829
C52   C     C_R   0.443665 0.374966 0.565926 0.431269
C53   C     C_R   0.531033 0.823619 0.335975 -0.294972
C54   C     C_R   0.469614 0.370120 0.664572 -0.297556
C55   C     C_R   0.636411 0.875062 0.313931 -0.221182
C56   C     C_R   0.363071 0.346827 0.686135 -0.221461
H13   H     H_    0.872149 0.951246 0.387313 0.122511
H14   H     H_    0.125988 0.329923 0.612666 0.122107
H15   H     H_    0.663555 0.893150 0.263537 0.102756
H16   H     H_    0.335561 0.334519 0.736377 0.101422
H17   H     H_    0.480299 0.799738 0.304441 0.102256
H18   H     H_    0.520823 0.379513 0.696908 0.095522
H19   H     H_    0.622293 0.811191 0.616243 0.163880
H20   H     H_    0.378857 0.391742 0.383940 0.164951
H21   H     H_    0.966008 0.954713 0.520517 0.116239
H22   H     H_    0.032266 0.344139 0.479310 0.116168
H23   H     H_    0.015255 0.938810 0.690118 0.104245
H24   H     H_    0.983541 0.367736 0.309699 0.103646
H25   H     H_    0.832517 0.844603 0.739088 0.093053
H26   H     H_    0.168489 0.392280 0.260473 0.091664
H27   H     H_    0.760122 0.929071 0.319948 0.120079
H28   H     H_    0.238241 0.329770 0.680292 0.119909
H29   H     H_    0.734157 0.832321 0.682819 0.123023
H30   H     H_    0.266853 0.389127 0.317101 0.123016
O11   O     O_R   0.036080 0.231270 0.130120 -0.537833
O12   O     O_R   0.963920 0.731270 0.869880 -0.538111
O13   O     O_R   0.911300 0.558970 0.006750 -0.540797
O14   O     O_R   0.088700 0.058970 0.993250 -0.540740
C57   C     C_R   0.884891 0.390046 0.001913 0.689273
C58   C     C_R   0.115113 0.889859 0.998127 0.689957
O15   O     O_R   0.032450 0.561140 0.138040 -0.538930
O16   O     O_R   0.967550 0.061140 0.861960 -0.538926
O17   O     O_R   0.085870 0.728910 0.002130 -0.540531
O18   O     O_R   0.914130 0.228910 0.997870 -0.540247
C59   C     C_R   0.045398 0.392201 0.174893 0.692115
C60   C     C_R   0.954561 0.893147 0.825045 0.692165
O19   O     O_3   0.017320 0.394650 0.955270 -0.374080
O20   O     O_3   0.982680 0.894650 0.044730 -0.373901
V3    V     V_3+5 0.996780 0.670490 0.008300 1.408499
V4    V     V_3+5 0.003220 0.170490 0.991700 1.408808
O21   O     O_3   0.519780 0.794320 0.496673 -0.550093
C61   C     C_3   0.456917 0.869678 0.464531 0.113689
H31   H     H_    0.425577 0.771154 0.413813 0.139376
H32   H     H_    0.456724 0.011435 0.431562 0.122768
C62   C     C_3   0.428681 0.891396 0.547453 -0.672887
H33   H     H_    0.460269 0.981439 0.602073 0.212092
H34   H     H_    0.380171 0.956647 0.523683 0.179937
H35   H     H_    0.424220 0.752089 0.579120 0.228215
O22   O     O_3   0.481256 0.395990 0.503175 -0.550880
C63   C     C_3   0.545228 0.330980 0.538468 0.117670
H36   H     H_    0.547089 0.190068 0.572765 0.118413
H37   H     H_    0.574085 0.435219 0.588612 0.141803
C64   C     C_3   0.575580 0.311485 0.457587 -0.672275
H38   H     H_    0.578139 0.450453 0.424471 0.229844
H39   H     H_    0.625114 0.254178 0.483941 0.180007
H40   H     H_    0.546496 0.215653 0.403359 0.211855

loop_
_geom_bond_atom_site_label_1
_geom_bond_atom_site_label_2
_ccdc_geom_bond_type
C14   C16   A    
C39   C41   A    
O12   C60   A    
C31   C35   A    
O13   V3    S    
C20   H10   S    
O1    C3    A    
C23   C55   A    
C56   H16   S    
C46   H20   S    
O11   V4    S    
O20   V4    S    
O22   C63   S    
O5    C3    A    
C17   H7    S    
O16   V4    S    
C18   H8    S    
O15   V3    S    
C7    C9    A    
C52   C54   A    
C17   C19   S    
C21   C27   A    
O18   V4    S    
O21   C61   S    
O11   C59   A    
C39   H27   S    
C25   C33   A    
C61   H31   S    
C36   C38   A    
C24   C54   A    
C45   C47   A    
O17   V3    S    
C38   C40   A    
C35   C43   A    
C34   C42   A    
C61   H32   S    
C25   C27   A    
C14   C57   S    
C26   C28   A    
C15   C17   S    
C57   O18   A    
C19   H11   S    
C18   C20   S    
C45   H19   S    
C48   C52   A    
C27   H23   S    
C54   H18   S    
O5    V1    S    
O2    C4    A    
O13   C57   A    
C50   C56   A    
C2    O7    A    
O20   V3    S    
C26   H22   S    
C22   C59   S    
C29   C31   A    
C11   C13   A    
C1    C24   S    
C30   C32   A    
C3    C8    S    
C35   C37   A    
C2    C23   S    
C29   H25   S    
C26   C34   A    
C40   H28   S    
C48   C50   A    
C25   H21   S    
C47   C49   A    
C21   C60   S    
C37   C49   A    
C21   C29   A    
C17   H5    S    
C32   C36   A    
C13   C58   S    
C43   C45   A    
C40   C42   A    
O4    V2    S    
C64   H39   S    
O14   V4    S    
C42   H14   S    
C41   H13   S    
O6    C4    A    
C22   C30   A    
C37   C39   A    
C49   C55   A    
O19   V3    S    
O1    V2    S    
O14   C58   A    
O2    V1    S    
C51   C53   A    
C62   H34   S    
C63   C64   S    
O4    C2    A    
C8    C10   A    
C12   C14   A    
C31   C33   A    
C5    C15   A    
C10   H2    S    
C28   H24   S    
C6    C16   A    
C23   C53   A    
C64   H38   S    
O3    V1    S    
C63   H37   S    
O16   C60   A    
C62   H35   S    
C9    C11   A    
C18   H6    S    
C52   O22   S    
O12   V3    S    
C33   C41   A    
O3    C1    A    
C62   H33   S    
C11   H3    S    
C12   H4    S    
C61   C62   S    
C24   C56   A    
C9    H1    S    
O7    V1    S    
C64   H40   S    
C1    O8    A    
C13   C15   A    
O8    V2    S    
C22   C28   A    
C47   C51   A    
O15   C59   A    
C4    C7    S    
C5    C7    A    
C32   C34   A    
O19   V4    S    
C6    C8    A    
C19   H9    S    
C44   H30   S    
C30   H26   S    
C20   H12   S    
C43   H29   S    
C53   H17   S    
C55   H15   S    
C51   O21   S    
C36   C44   A    
O6    V2    S    
C10   C12   A    
O9    V2    S    
C44   C46   A    
O10   V1    S    
C38   C50   A    
C46   C48   A    
C5    C19   S    
C6    C20   S    
C58   O17   A    
C16   C18   S    
C63   H36   S    
