data_mof_unit_10253.cif
_audit_creation_date              2012-12-11T16:05:04-0500
_audit_creation_method            fapswitch 2.2
_symmetry_space_group_name_H-M    P1
_symmetry_Int_Tables_number       1
_space_group_crystal_system       triclinic
_cell_length_a                    10.631429
_cell_length_b                    10.641445
_cell_length_c                    16.825905
_cell_angle_alpha                 98.811206
_cell_angle_beta                  98.814945
_cell_angle_gamma                 61.603334
_cell_volume                      1647.67822918

loop_
_atom_site_label
_atom_site_type_symbol
_atom_type_description
_atom_site_fract_x
_atom_site_fract_y
_atom_site_fract_z
_atom_type_partial_charge
C1    C     C_R   0.385206 0.701293 0.386802 0.570145
C2    C     C_3   0.803858 0.248719 0.254765 -0.137180
C3    C     C_3   0.847135 0.331228 0.327403 0.044412
C4    C     C_3   0.004251 0.253596 0.308144 -0.143674
C5    C     C_3   0.970454 0.375390 0.255702 -0.134080
C6    C     C_3   0.813267 0.452203 0.275600 -0.078790
C7    C     C_3   0.770366 0.369401 0.202740 -0.071572
C8    C     C_3   0.926362 0.294264 0.183380 0.050360
C9    C     C_3   0.483369 0.716716 0.198794 0.283013
C10   C     C_3   0.409869 0.635712 0.224906 -0.155967
C11   C     C_3   0.382380 0.733635 0.305016 0.031472
C12   C     C_R   0.369594 0.345992 0.359167 0.533194
C13   C     C_3   0.459910 0.809045 0.279692 0.258373
C14   C     C_3   0.316204 0.923847 0.243368 -0.191138
C15   C     C_3   0.238373 0.846472 0.268394 -0.167571
C16   C     C_3   0.263482 0.748915 0.188510 -0.157292
C17   C     C_3   0.339595 0.826587 0.163386 0.036091
C18   C     C_3   0.482272 0.285305 0.797340 -0.082428
C19   C     C_3   0.426601 0.430507 0.762809 0.034243
C20   C     C_3   0.383336 0.366391 0.681675 0.045304
C21   C     C_3   0.438385 0.221774 0.716217 0.100974
C22   C     C_3   0.288010 0.272222 0.741902 -0.114150
C23   C     C_R   0.782844 0.373244 0.403871 0.537479
C24   C     C_3   0.232241 0.417700 0.707390 -0.141876
C25   C     C_3   0.275594 0.481514 0.789718 -0.114885
C26   C     C_3   0.332390 0.336208 0.822362 0.020231
C27   C     C_1   0.853134 0.325506 0.704545 -0.012611
C28   C     C_1   0.899404 0.291773 0.772159 -0.027829
C29   C     C_1   0.318010 0.851884 0.703897 0.008417
C30   C     C_1   0.281096 0.897714 0.770968 -0.015285
C31   C     C_R   0.963435 0.282571 0.102283 0.571383
C32   C     C_R   0.319599 0.299922 0.120079 0.540497
C33   C     C_R   0.296667 0.887358 0.086963 0.572010
C34   C     C_R   0.352040 0.781342 0.624980 0.575078
C35   C     C_R   0.944744 0.274930 0.856111 0.549760
C36   C     C_R   0.310820 0.296944 0.894965 0.548270
C37   C     C_R   0.245597 0.944531 0.852612 0.543495
C38   C     C_R   0.410195 0.378138 0.601562 0.594269
C39   C     C_R   0.781474 0.376034 0.627987 0.557455
C40   C     C_1   0.343106 0.335409 0.275328 -0.077825
C41   C     C_1   0.331777 0.325827 0.203912 -0.069969
C42   C     C_3   0.961079 0.171362 0.233489 -0.144097
Cr1   Cr    Cr6+3 0.608340 0.611040 0.520430 1.057737
Cr2   Cr    Cr6+3 0.287650 0.601120 0.489350 1.017003
Cr3   Cr    Cr6+3 0.604040 0.287870 0.490280 0.985662
Cr4   Cr    Cr6+3 0.054020 0.052700 0.970850 1.023716
Cr5   Cr    Cr6+3 0.059230 0.375120 0.993390 1.002339
Cr6   Cr    Cr6+3 0.374950 0.061200 0.992340 1.007414
H1    H     H_    0.735375 0.196434 0.255974 0.129433
H2    H     H_    0.280032 0.041050 0.248703 0.092724
H3    H     H_    0.136875 0.898009 0.298016 0.148007
H4    H     H_    0.181235 0.724990 0.150215 0.141574
H5    H     H_    0.584665 0.231530 0.835678 0.165482
H6    H     H_    0.229816 0.207256 0.734858 0.103730
H7    H     H_    0.129355 0.471518 0.669519 0.150043
H8    H     H_    0.208784 0.587287 0.821708 0.161259
H9    H     H_    0.013887 0.059214 0.206910 0.132602
H10   H     H_    0.098646 0.205833 0.352866 0.114818
H11   H     H_    0.037026 0.429368 0.253958 0.121571
H12   H     H_    0.755773 0.567648 0.294961 0.203810
H13   H     H_    0.677921 0.407001 0.156136 0.177337
H14   H     H_    0.450392 0.517984 0.219368 0.098305
O1    O     O_R   0.751220 0.499230 0.435170 -0.516523
O2    O     O_R   0.297880 0.469080 0.560050 -0.501032
O3    O     O_R   0.489720 0.254590 0.564810 -0.504934
O4    O     O_R   0.725220 0.304230 0.585080 -0.507409
O5    O     O_3   0.500010 0.500010 0.500020 -0.301254
O6    O     O_R   0.171830 0.913880 0.057510 -0.530344
O7    O     O_R   0.940690 0.186050 0.054730 -0.492641
O8    O     O_R   0.920470 0.405720 0.075010 -0.500781
O9    O     O_R   0.196690 0.370460 0.084120 -0.521377
O10   O     O_R   0.412990 0.180750 0.091610 -0.518874
O11   O     O_R   0.366620 0.943130 0.065760 -0.509949
O12   O     O_R   0.477220 0.727600 0.436870 -0.469520
O13   O     O_R   0.160510 0.906330 0.879210 -0.501514
O14   O     O_R   0.930190 0.179050 0.889450 -0.488312
O15   O     O_R   0.909140 0.398170 0.896710 -0.468119
O16   O     O_R   0.186190 0.363460 0.918830 -0.519225
O17   O     O_R   0.401670 0.173200 0.913310 -0.510289
O18   O     O_R   0.356120 0.936130 0.900470 -0.466619
O19   O     O_3   0.162740 0.163010 0.985530 -0.320384
O20   O     O_R   0.258650 0.745120 0.411470 -0.528570
O21   O     O_R   0.297070 0.467240 0.395960 -0.504215
O22   O     O_R   0.488830 0.252610 0.387790 -0.549815
O23   O     O_R   0.724400 0.302390 0.420980 -0.510961
O24   O     O_R   0.752100 0.501210 0.612190 -0.484830
O25   O     O_R   0.478040 0.729440 0.600970 -0.455615
O26   O     O_R   0.259530 0.747110 0.588490 -0.518328
I1    I     I_    0.542844 0.549497 0.796987 -0.327931
I2    I     I_    0.572017 0.005146 0.670965 -0.349384
O27   O     O_3   0.605726 0.659522 0.155002 -0.573246
C43   C     C_3   0.658911 0.760092 0.157838 0.025223
H15   H     H_    0.753869 0.731552 0.203045 0.148894
H16   H     H_    0.579822 0.873113 0.174844 0.149116
C44   C     C_3   0.704403 0.756815 0.075596 -0.316044
H17   H     H_    0.715775 0.854550 0.072922 0.082514
H18   H     H_    0.809436 0.662635 0.065566 0.170510
H19   H     H_    0.623337 0.752945 0.026491 0.204274
O28   O     O_3   0.579091 0.813641 0.326917 -0.592195
C45   C     C_3   0.540186 0.948319 0.369311 0.002942
H20   H     H_    0.443057 0.985011 0.401861 0.158995
H21   H     H_    0.520555 0.025380 0.325750 0.152486
C46   C     C_3   0.665386 0.936252 0.430959 -0.311219
H22   H     H_    0.761067 0.908717 0.399535 0.125849
H23   H     H_    0.637689 0.038437 0.469128 0.175570
H24   H     H_    0.692162 0.851106 0.470834 0.172804

loop_
_geom_bond_atom_site_label_1
_geom_bond_atom_site_label_2
_ccdc_geom_bond_type
C13   O28   S    
C18   C21   S    
C3    C23   S    
C44   H17   S    
C1    C11   S    
C25   H8    S    
C3    C6    S    
C9    O27   S    
Cr4   O14   S    
C44   H19   S    
Cr1   O1    S    
C7    C8    S    
C22   H6    S    
Cr2   O2    S    
C24   H7    S    
C1    O12   A    
Cr6   O17   S    
C8    C42   S    
Cr2   O20   S    
C5    C6    S    
C15   C16   S    
C26   C36   S    
Cr6   O19   S    
C12   O22   A    
C18   C19   S    
C9    C13   S    
C7    H13   S    
Cr4   O7    S    
C18   H5    S    
C11   C15   S    
C31   O8    A    
C19   C20   S    
C28   C35   S    
C27   C39   S    
C16   C17   S    
C18   C26   S    
Cr3   O5    S    
C32   C41   S    
C15   H3    S    
C9    C10   S    
Cr2   O21   S    
Cr1   O12   S    
C23   O1    A    
C37   O13   A    
C21   C22   S    
C8    C31   S    
C14   C17   S    
C10   H14   S    
C17   C33   S    
Cr6   O10   S    
C42   H9    S    
C45   H21   S    
Cr4   O13   S    
C32   O9    A    
C38   O2    A    
C21   I2    S    
C37   O18   A    
C35   O14   A    
C5    H11   S    
C6    H12   S    
C24   C25   S    
C32   O10   A    
O27   C43   S    
C10   C16   S    
Cr5   O19   S    
C1    O20   A    
C29   C34   S    
C35   O15   A    
C45   C46   S    
C12   O21   A    
C12   C40   S    
Cr3   O23   S    
Cr5   O8    S    
Cr4   O6    S    
C29   C30   T    
C19   I1    S    
C2    H1    S    
Cr4   O19   S    
C20   C38   S    
O28   C45   S    
C38   O3    A    
C43   H16   S    
C46   H23   S    
C34   O26   A    
Cr5   O9    S    
C33   O11   A    
C40   C41   T    
C2    C7    S    
C39   O4    A    
C22   C24   S    
Cr3   O22   S    
Cr5   O15   S    
C3    C4    S    
Cr3   O4    S    
C9    C17   S    
Cr1   O24   S    
Cr6   O11   S    
C16   H4    S    
C4    C5    S    
C36   O17   A    
C5    C8    S    
C44   H18   S    
C6    C7    S    
C39   O24   A    
Cr1   O25   S    
Cr6   O18   S    
C2    C3    S    
C25   C26   S    
C23   O23   A    
C36   O16   A    
Cr3   O3    S    
C11   C13   S    
C14   H2    S    
C4    C42   S    
C2    C42   S    
C43   H15   S    
C46   H24   S    
Cr2   O26   S    
C34   O25   A    
C43   C44   S    
C19   C25   S    
C10   C11   S    
C31   O7    A    
C20   C21   S    
C30   C37   S    
Cr1   O5    S    
C22   C26   S    
C4    H10   S    
C46   H22   S    
C14   C15   S    
Cr2   O5    S    
C45   H20   S    
Cr5   O16   S    
C13   C14   S    
C20   C24   S    
C33   O6    A    
C27   C28   T    
