data_mof_unit_5564.cif
_audit_creation_date              2012-12-11T14:51:45-0500
_audit_creation_method            fapswitch 2.2
_symmetry_space_group_name_H-M    P1
_symmetry_Int_Tables_number       1
_space_group_crystal_system       triclinic
_cell_length_a                    6.935746
_cell_length_b                    16.696076
_cell_length_c                    16.925662
_cell_angle_alpha                 101.323986
_cell_angle_beta                  90.165148
_cell_angle_gamma                 90.5938
_cell_volume                      1921.70395246

loop_
_atom_site_label
_atom_site_type_symbol
_atom_type_description
_atom_site_fract_x
_atom_site_fract_y
_atom_site_fract_z
_atom_type_partial_charge
O1    O     O_R   0.506340 0.439070 0.579550 -0.539533
O2    O     O_R   0.170010 0.404890 0.412100 -0.544956
O3    O     O_R   0.005010 0.560930 0.420450 -0.536746
C1    C     C_R   0.338890 0.379733 0.385010 0.680958
O4    O     O_R   0.176280 0.429360 0.578400 -0.549443
O5    O     O_R   0.011320 0.585570 0.587940 -0.538417
C2    C     C_R   0.343454 0.413859 0.605515 0.689601
O6    O     O_R   0.500030 0.414430 0.412060 -0.536753
O7    O     O_3   0.340950 0.551220 0.502940 -0.361720
V1    V     V_3+5 0.064020 0.490500 0.499460 1.398878
O8    O     O_R   0.681910 0.595110 0.587900 -0.537774
C3    C     C_R   0.851368 0.617176 0.617545 0.713741
O9    O     O_R   0.675640 0.570640 0.421600 -0.538383
C4    C     C_R   0.843027 0.586239 0.394667 0.724634
V2    V     V_3+5 0.564670 0.509500 0.500540 1.420799
O10   O     O_3   0.837610 0.448780 0.497060 -0.377339
C5    C     C_R   0.924191 0.862030 0.167835 -0.069450
C6    C     C_R   0.839996 0.637989 0.332261 -0.080128
C7    C     C_R   0.654576 0.687448 0.228155 -0.047434
C8    C     C_R   0.677265 0.633805 0.281542 -0.201095
C9    C     C_R   0.983751 0.696600 0.327655 -0.200539
C10   C     C_R   0.962204 0.751862 0.274886 0.161386
C11   C     C_R   0.796293 0.748005 0.224698 0.106489
C12   C     C_R   0.778217 0.804110 0.172020 -0.230485
C13   C     C_R   0.085914 0.865314 0.218932 -0.137941
C14   C     C_R   0.104115 0.811465 0.272010 -0.141446
H1    H     H_    0.654919 0.801175 0.132115 0.134567
H2    H     H_    0.200808 0.909380 0.217150 0.120797
H3    H     H_    0.231389 0.815626 0.309966 0.116516
H4    H     H_    0.565139 0.588614 0.284150 0.128513
H5    H     H_    0.108671 0.701092 0.367000 0.125813
C15   C     C_3   0.732906 0.799901 0.750540 -0.198587
C16   C     C_3   0.880693 0.777249 0.681524 -0.097745
H6    H     H_    0.610716 0.842326 0.752082 0.162542
C17   C     C_3   0.865269 0.687171 0.688115 -0.106181
C18   C     C_3   0.717226 0.708474 0.756853 -0.076904
C19   C     C_3   0.884820 0.721014 0.819427 -0.193358
C20   C     C_3   0.032836 0.698896 0.750022 -0.147664
C21   C     C_3   0.045362 0.789716 0.743673 0.450871
C22   C     C_3   0.900788 0.811656 0.812696 -0.108905
H7    H     H_    0.580472 0.674726 0.761861 0.124819
H8    H     H_    0.886835 0.697789 0.876534 0.128128
H9    H     H_    0.157574 0.657635 0.749463 0.116776
C23   C     C_3   0.542701 0.259260 0.296253 -0.160497
C24   C     C_3   0.425444 0.177625 0.275539 -0.204707
H10   H     H_    0.463643 0.120110 0.295118 0.109565
H11   H     H_    0.676286 0.268275 0.333397 0.150869
C25   C     C_3   0.410988 0.188491 0.187604 -0.063887
C26   C     C_3   0.528580 0.268728 0.207084 -0.095778
C27   C     C_3   0.339198 0.317214 0.226770 -0.209795
C28   C     C_3   0.221770 0.236204 0.206468 -0.130653
C29   C     C_3   0.238626 0.226705 0.295000 0.484956
C30   C     C_3   0.352485 0.307746 0.315529 -0.121459
H12   H     H_    0.650101 0.285828 0.170968 0.113092
H13   H     H_    0.301838 0.374149 0.205883 0.124280
H14   H     H_    0.087548 0.227051 0.169699 0.121011
C31   C     C_R   0.427724 0.139036 0.832775 -0.076520
C32   C     C_R   0.339550 0.361249 0.667339 -0.074690
C33   C     C_R   0.149086 0.302503 0.764044 -0.196082
C34   C     C_R   0.170012 0.358078 0.712669 -0.175725
C35   C     C_R   0.490813 0.308213 0.676283 -0.239349
C36   C     C_R   0.469700 0.251360 0.727657 0.158489
C37   C     C_R   0.297085 0.248218 0.771689 0.164042
C38   C     C_R   0.276206 0.191681 0.823361 -0.244681
C39   C     C_R   0.596975 0.141807 0.787134 -0.168553
C40   C     C_R   0.617456 0.196888 0.735180 -0.207579
H15   H     H_    0.145552 0.190742 0.858185 0.123749
H16   H     H_    0.716044 0.101632 0.792309 0.126713
H17   H     H_    0.015996 0.301552 0.797257 0.124184
H18   H     H_    0.750155 0.197474 0.701621 0.123107
H19   H     H_    0.050643 0.398062 0.707391 0.130264
H20   H     H_    0.621143 0.308988 0.641221 0.121940
O11   O     O_R   0.266070 0.085680 0.087850 -0.540321
O12   O     O_R   0.590090 0.070660 0.921580 -0.543726
O13   O     O_R   0.754780 0.914400 0.912080 -0.537222
C41   C     C_R   0.423103 0.086335 0.894531 0.681965
O14   O     O_R   0.596110 0.095130 0.087880 -0.538057
O15   O     O_R   0.760850 0.939050 0.079570 -0.538006
C42   C     C_R   0.427047 0.119024 0.116133 0.699408
O16   O     O_R   0.260010 0.061030 0.920360 -0.544666
O17   O     O_3   0.425070 0.948840 0.997010 -0.362164
V3    V     V_3+5 0.702100 0.009490 0.000550 1.415708
O18   O     O_R   0.090200 0.929250 0.078500 -0.539166
C43   C     C_R   0.922685 0.913945 0.105589 0.710600
O19   O     O_R   0.084180 0.904770 0.912200 -0.531663
C44   C     C_R   0.914616 0.882023 0.883059 0.695992
V4    V     V_3+5 0.201420 0.990350 0.999580 1.432034
O20   O     O_3   0.928580 0.051150 0.002990 -0.373644
O21   O     O_3   0.227029 0.827227 0.738784 -0.581476
C45   C     C_3   0.208059 0.906809 0.723037 0.064568
H21   H     H_    0.281294 0.950120 0.772372 0.131483
H22   H     H_    0.056131 0.927831 0.721145 0.092077
C46   C     C_3   0.309617 0.910950 0.643839 -0.284139
H23   H     H_    0.467258 0.903380 0.650795 0.188496
H24   H     H_    0.256858 0.860522 0.595529 0.218530
C47   C     C_3   0.273958 0.992022 0.618377 -0.828222
H25   H     H_    0.117363 0.999760 0.608629 0.241244
H26   H     H_    0.350866 0.992857 0.561100 0.241470
H27   H     H_    0.328153 0.043476 0.665225 0.239373
O22   O     O_3   0.074258 0.196605 0.329621 -0.582775
C48   C     C_3   0.082810 0.210301 0.414582 0.049219
H28   H     H_    0.941911 0.189615 0.434972 0.150281
H29   H     H_    0.094088 0.275825 0.441739 0.128579
C49   C     C_3   0.242857 0.162513 0.446851 -0.355935
H30   H     H_    0.243730 0.098402 0.412861 0.212426
H31   H     H_    0.384815 0.191652 0.439860 0.175424
C50   C     C_3   0.213046 0.162640 0.536058 -0.820659
H32   H     H_    0.184107 0.225302 0.569386 0.238487
H33   H     H_    0.344849 0.140240 0.561559 0.242308
H34   H     H_    0.088524 0.122742 0.544103 0.235872
C51   C     C_1   0.483326 0.678965 0.178176 0.269955
N1    N     N_1   0.346300 0.672057 0.138117 -0.352840
C52   C     C_1   0.870597 0.806524 0.605316 0.255864
N2    N     N_1   0.862057 0.829459 0.545189 -0.369892

loop_
_geom_bond_atom_site_label_1
_geom_bond_atom_site_label_2
_ccdc_geom_bond_type
C23   C26   S    
O18   V4    S    
V4    O20   S    
C46   H23   S    
C1    C30   S    
C6    C9    A    
C4    C6    S    
O2    C1    A    
C7    C8    A    
C12   H1    S    
C1    O6    A    
C49   H31   S    
O17   V3    S    
C8    H4    S    
C24   H10   S    
C23   C24   S    
C13   H2    S    
C9    H5    S    
C48   H28   S    
O12   C41   A    
C45   C46   S    
C15   C18   S    
C25   C42   S    
C18   C19   S    
O16   V4    S    
O5    C3    A    
C20   C21   S    
C32   C34   A    
C26   H12   S    
C47   H27   S    
C28   H14   S    
C22   C44   S    
C19   H8    S    
O11   V4    S    
O8    V2    S    
C23   C30   S    
C25   C28   S    
C17   C18   S    
C47   H26   S    
C50   H32   S    
O1    V2    S    
O7    V1    S    
C2    C32   S    
C23   H11   S    
C32   C35   A    
O19   V4    S    
C33   C34   A    
C46   H24   S    
O9    C4    A    
C50   H33   S    
C18   H7    S    
O12   V3    S    
C49   H30   S    
O14   C42   A    
C5    C12   A    
C36   C40   A    
C28   C29   S    
C27   C30   S    
C38   H15   S    
C17   C20   S    
C21   C22   S    
O4    C2    A    
O6    V2    S    
C24   C29   S    
C13   C14   A    
O19   C44   A    
C29   O22   S    
C15   H6    S    
C7    C11   A    
C19   C20   S    
O15   V3    S    
O13   C44   A    
C45   H22   S    
O18   C43   A    
C11   C12   A    
C39   H16   S    
C47   H25   S    
C36   C37   A    
C27   C28   S    
O11   C42   A    
C16   C21   S    
C3    C17   S    
O17   V4    S    
O3    C4    A    
C33   H17   S    
C35   H20   S    
C25   C26   S    
C39   C40   A    
C46   C47   S    
O9    V2    S    
C50   H34   S    
O2    V1    S    
C29   C30   S    
C31   C41   S    
C31   C38   A    
C52   N2    T    
C24   C25   S    
C51   N1    T    
O1    C2    A    
C33   C37   A    
C41   O16   A    
C31   C39   A    
O5    V1    S    
O8    C3    A    
O13   V3    S    
C7    C51   S    
C19   C22   S    
C16   C52   S    
C27   H13   S    
C34   H19   S    
C5    C43   S    
C5    C13   A    
C15   C16   S    
O7    V2    S    
O4    V1    S    
O3    V1    S    
V1    O10   S    
C45   H21   S    
C40   H18   S    
O14   V3    S    
V3    O20   S    
O22   C48   S    
C16   C17   S    
C6    C8    A    
C15   C22   S    
C35   C36   A    
C37   C38   A    
O15   C43   A    
C20   H9    S    
C14   H3    S    
C48   H29   S    
C26   C27   S    
C10   C14   A    
C10   C11   A    
C48   C49   S    
O21   C45   S    
C9    C10   A    
C21   O21   S    
C49   C50   S    
V2    O10   S    
