data_mof_unit_31128.cif
_audit_creation_date              2012-12-10T16:57:03-0500
_audit_creation_method            fapswitch 2.2
_symmetry_space_group_name_H-M    P1
_symmetry_Int_Tables_number       1
_space_group_crystal_system       triclinic
_cell_length_a                    7.761398
_cell_length_b                    8.563661
_cell_length_c                    17.011214
_cell_angle_alpha                 91.955738
_cell_angle_beta                  81.870174
_cell_angle_gamma                 93.704159
_cell_volume                      1116.60825

loop_
_atom_site_label
_atom_site_type_symbol
_atom_type_description
_atom_site_fract_x
_atom_site_fract_y
_atom_site_fract_z
_atom_type_partial_charge
C1    C     C_R   0.546117 0.794753 0.498065 0.965257
C2    C     C_R   0.423172 0.559896 0.221229 0.141330
C3    C     C_R   0.566335 0.367270 0.846262 -0.225373
C4    C     C_R   0.409075 0.523137 0.142598 -0.243725
C5    C     C_R   0.544597 0.504185 0.892658 -0.026131
C6    C     C_R   0.487176 0.393032 0.105074 -0.031700
C7    C     C_R   0.494875 0.641169 0.860968 0.566588
C8    C     C_R   0.570094 0.289258 0.146756 0.570192
C9    C     C_R   0.454327 0.636625 0.783083 0.017521
C10   C     C_R   0.590906 0.326002 0.226076 0.013155
C11   C     C_2   0.560871 0.501458 0.976440 -0.158023
C12   C     C_R   0.453856 0.205273 0.502252 0.953661
C13   C     C_2   0.498151 0.377955 0.019672 -0.142550
C14   C     C_3   0.554711 0.211302 0.720257 -0.881564
C15   C     C_3   0.341994 0.705645 0.258278 -0.871764
C16   C     C_3   0.687804 0.218540 0.271081 -0.821741
C17   C     C_3   0.390298 0.779127 0.748462 -0.864316
C18   C     C_3   0.631497 0.868968 0.897233 -0.374759
C19   C     C_3   0.521764 0.032908 0.114283 -0.358617
C20   C     C_2   0.570449 0.958250 0.497113 -0.390463
C21   C     C_2   0.429496 0.041826 0.503704 -0.386875
C22   C     C_R   0.479840 0.501230 0.652687 0.929494
C23   C     C_R   0.519349 0.493155 0.346943 0.923020
C24   C     C_R   0.478331 0.497605 0.737007 -0.117435
C25   C     C_R   0.517253 0.462704 0.262886 -0.127992
C26   C     C_R   0.532837 0.362087 0.768536 0.146826
H1    H     H_    0.449061 0.269845 0.993319 0.163156
H2    H     H_    0.432285 0.175785 0.695852 0.233864
H3    H     H_    0.663310 0.226452 0.670696 0.260759
H4    H     H_    0.290339 0.774866 0.213766 0.223062
H5    H     H_    0.230382 0.673797 0.304303 0.266404
H6    H     H_    0.440718 0.781619 0.285154 0.226447
H7    H     H_    0.807443 0.281397 0.287679 0.253267
H8    H     H_    0.602445 0.177604 0.325320 0.221169
H9    H     H_    0.730416 0.113166 0.235873 0.264012
H10   H     H_    0.486026 0.820892 0.697600 0.220331
H11   H     H_    0.262939 0.748440 0.727564 0.250452
H12   H     H_    0.606039 0.608305 0.005555 0.178792
H13   H     H_    0.370159 0.877369 0.792277 0.276802
H14   H     H_    0.671256 0.899228 0.833894 0.171673
H15   H     H_    0.738358 0.810525 0.919470 0.173453
H16   H     H_    0.612270 0.980223 0.931747 0.211645
H17   H     H_    0.410733 0.052620 0.081803 0.175263
H18   H     H_    0.472561 0.007760 0.177481 0.170615
H19   H     H_    0.585022 0.927472 0.087413 0.212801
H20   H     H_    0.341692 0.599149 0.109016 0.185371
H21   H     H_    0.610434 0.264187 0.870740 0.166261
H22   H     H_    0.703561 0.009287 0.490841 0.182433
H23   H     H_    0.296379 0.990808 0.510028 0.183160
H24   H     H_    0.022738 0.381755 0.439871 0.190830
H25   H     H_    0.977259 0.618303 0.560091 0.192571
H26   H     H_    0.585105 0.114427 0.756736 0.228320
N1    N     N_2   0.953500 0.457650 0.478520 -0.177146
N2    N     N_2   0.046500 0.542350 0.521480 -0.175108
O1    O     O_R   0.388470 0.738640 0.505270 -0.612934
O2    O     O_3   0.645967 0.161244 0.107517 -0.608952
O3    O     O_R   0.611530 0.261360 0.494730 -0.617391
O4    O     O_R   0.679650 0.711510 0.491500 -0.630348
O5    O     O_R   0.320350 0.288490 0.508500 -0.629168
O6    O     O_R   0.337210 0.515200 0.623500 -0.614691
O7    O     O_R   0.662790 0.484800 0.376500 -0.616399
O8    O     O_R   0.628380 0.488060 0.609730 -0.628622
O9    O     O_R   0.371620 0.511940 0.390270 -0.627058
O10   O     O_3   0.473801 0.775438 0.908153 -0.619222
Zn1   Zn    Zn3+2 0.305580 0.518120 0.509190 0.937535
Zn2   Zn    Zn3+2 0.694420 0.481880 0.490810 0.932568

loop_
_geom_bond_atom_site_label_1
_geom_bond_atom_site_label_2
_ccdc_geom_bond_type
C19   O2    S    
C11   H12   S    
C2    C4    A    
C19   H19   S    
C9    C24   A    
C15   H5    S    
N1    Zn2   S    
C17   H10   S    
C16   H7    S    
C22   O8    A    
C14   H26   S    
O3    Zn2   S    
H25   N2    S    
C16   H8    S    
O9    Zn1   S    
C8    O2    S    
C21   H23   S    
C1    O1    A    
C15   H6    S    
N2    Zn1   S    
C17   H11   S    
N1    N2    D    
C14   C26   S    
C6    C13   S    
C2    C15   S    
C11   C13   D    
C18   O10   S    
C20   H22   S    
C10   C16   S    
C6    C8    A    
C12   O3    A    
C12   C21   S    
C10   C25   A    
C3    H21   S    
O1    Zn1   S    
C24   C26   A    
O6    Zn1   S    
C5    C11   S    
C2    C25   A    
C7    C9    A    
C18   H16   S    
C16   H9    S    
C22   O6    A    
C7    O10   S    
C22   C24   S    
C23   O9    A    
H24   N1    S    
O8    Zn2   S    
C14   H3    S    
C19   H18   S    
C23   O7    A    
C23   C25   S    
C20   C21   D    
C15   H4    S    
C8    C10   A    
C4    C6    A    
C17   H13   S    
C18   H15   S    
C9    C17   S    
C5    C7    A    
C18   H14   S    
C13   H1    S    
C1    C20   S    
C4    H20   S    
C14   H2    S    
C1    O4    A    
C12   O5    A    
O7    Zn2   S    
O4    Zn2   S    
C3    C26   A    
O5    Zn1   S    
C19   H17   S    
C3    C5    A    
