data_mof_unit_66696.cif
_audit_creation_date              2013-03-05T16:03:13-0500
_audit_creation_method            fapswitch 2.2
_symmetry_space_group_name_H-M    P1
_symmetry_Int_Tables_number       1
_space_group_crystal_system       triclinic
_cell_length_a                    6.980971
_cell_length_b                    14.186019
_cell_length_c                    16.381776
_cell_angle_alpha                 89.386515
_cell_angle_beta                  87.116295
_cell_angle_gamma                 88.490868
_cell_volume                      1619.63524349

loop_
_atom_site_label
_atom_site_type_symbol
_atom_site_description
_atom_site_fract_x
_atom_site_fract_y
_atom_site_fract_z
_atom_type_partial_charge
O1    O     O_R   0.361630 0.167340 0.164570 -0.576781
O2    O     O_R   0.638370 0.832660 0.835430 -0.576786
O3    O     O_R   0.690860 0.157560 0.338690 -0.576612
O4    O     O_R   0.309140 0.842440 0.661310 -0.576630
O5    O     O_R   0.861260 0.336420 0.339380 -0.571850
O6    O     O_R   0.138740 0.663580 0.660620 -0.571845
C1    C     C_R   0.520887 0.136280 0.369002 1.051321
C2    C     C_R   0.479109 0.863728 0.631004 1.051279
O7    O     O_R   0.691330 0.156310 0.165190 -0.568971
O8    O     O_R   0.308670 0.843690 0.834810 -0.568982
O9    O     O_R   0.861730 0.335160 0.164640 -0.551813
O10   O     O_R   0.138270 0.664840 0.835360 -0.551819
C3    C     C_R   0.527009 0.129398 0.139128 1.026423
C4    C     C_R   0.472990 0.870595 0.860874 1.026411
O11   O     O_R   0.361150 0.168600 0.339320 -0.583937
O12   O     O_R   0.638850 0.831400 0.660680 -0.583937
O13   O     O_3   0.527950 0.310560 0.252000 -0.219145
O14   O     O_3   0.472050 0.689440 0.748000 -0.219134
V1    V     V_3+5 0.802770 0.240990 0.251980 1.291778
V2    V     V_3+5 0.197230 0.759010 0.748020 1.291775
O15   O     O_R   0.191450 0.346190 0.165260 -0.561767
O16   O     O_R   0.808550 0.653810 0.834740 -0.561756
C5    C     C_R   0.024046 0.376630 0.143224 0.937844
C6    C     C_R   0.975954 0.623371 0.856777 0.937843
O17   O     O_R   0.190980 0.347440 0.338770 -0.565409
O18   O     O_R   0.809020 0.652560 0.661230 -0.565407
C7    C     C_R   0.017620 0.369415 0.367584 1.109886
C8    C     C_R   0.982380 0.630586 0.632415 1.109883
V3    V     V_3+5 0.302780 0.262760 0.251980 1.293876
V4    V     V_3+5 0.697220 0.737240 0.748020 1.293881
O19   O     O_3   0.027730 0.193200 0.251960 -0.265375
O20   O     O_3   0.972270 0.806800 0.748040 -0.265368
C9    C     C_3   0.905204 0.422592 0.524077 0.306471
C10   C     C_3   0.094790 0.577409 0.475921 0.306486
C11   C     C_3   0.085754 0.458985 0.563427 0.151706
C12   C     C_3   0.914240 0.541018 0.436571 0.151721
C13   C     C_3   0.999946 0.560925 0.561984 -0.535807
C14   C     C_3   0.000050 0.439077 0.438015 -0.535798
C15   C     C_3   0.819463 0.524687 0.522890 0.322117
C16   C     C_3   0.180529 0.475316 0.477110 0.322113
C17   C     C_R   0.956686 0.697168 0.016073 -0.154198
C18   C     C_R   0.043376 0.302846 0.983919 -0.154191
C19   C     C_R   0.985534 0.740739 0.088928 -0.249936
C20   C     C_R   0.014520 0.259279 0.911062 -0.249896
C21   C     C_R   0.054626 0.689202 0.153600 0.395068
C22   C     C_R   0.945363 0.310814 0.846400 0.395068
C23   C     C_R   0.087427 0.591031 0.147604 0.062881
C24   C     C_R   0.912538 0.408982 0.852403 0.062881
C25   C     C_R   0.032275 0.542501 0.076733 -0.020503
C26   C     C_R   0.967714 0.457509 0.923272 -0.020494
C27   C     C_R   0.986185 0.598816 0.007190 0.155009
C28   C     C_R   0.013832 0.401195 0.992810 0.155025
C29   C     C_R   0.028667 0.442034 0.070546 -0.177648
C30   C     C_R   0.971333 0.557973 0.929457 -0.177630
H1    H     H_    0.910513 0.742177 0.966705 0.156151
H2    H     H_    0.089592 0.257839 0.033282 0.156154
H3    H     H_    0.963672 0.816389 0.093494 0.184478
H4    H     H_    0.036416 0.183631 0.906490 0.184497
C31   C     C_3   0.384863 0.977169 0.442083 0.415548
C32   C     C_3   0.615124 0.022840 0.557922 0.415482
C33   C     C_3   0.554094 0.914388 0.470414 -0.151542
C34   C     C_3   0.445895 0.085621 0.529591 -0.151597
H5    H     H_    0.597120 0.844245 0.445103 0.210905
H6    H     H_    0.402878 0.155767 0.554899 0.210893
C35   C     C_3   0.489822 0.935376 0.560295 -0.283292
C36   C     C_3   0.510168 0.064632 0.439711 -0.283263
C37   C     C_3   0.318863 0.997179 0.531796 -0.170402
C38   C     C_3   0.681125 0.002829 0.468211 -0.170340
H7    H     H_    0.168192 0.994086 0.556333 0.208903
H8    H     H_    0.831803 0.005923 0.443679 0.208908
H9    H     H_    0.599278 0.795100 0.229675 0.210358
H10   H     H_    0.400718 0.204821 0.770307 0.210331
C39   C     C_R   0.511637 0.199939 0.967647 0.220132
C40   C     C_R   0.488404 0.800026 0.032337 0.220172
C41   C     C_R   0.487536 0.233102 0.888837 -0.170604
C42   C     C_R   0.512528 0.766843 0.111137 -0.170695
C43   C     C_R   0.435157 0.174078 0.828781 -0.056224
C44   C     C_R   0.564874 0.825857 0.171202 -0.056294
C45   C     C_R   0.407483 0.079294 0.845217 0.113566
C46   C     C_R   0.592479 0.920656 0.154797 0.113762
C47   C     C_R   0.459177 0.037345 0.921232 0.014320
C48   C     C_R   0.540808 0.962624 0.078781 0.014269
C49   C     C_R   0.501014 0.100467 0.986633 0.014661
C50   C     C_R   0.498997 0.899504 0.013371 0.014624
C51   C     C_R   0.469307 0.936705 0.933125 -0.241001
C52   C     C_R   0.530689 0.063272 0.066885 -0.241043
H11   H     H_    0.497811 0.307556 0.874540 0.199050
H12   H     H_    0.502271 0.692384 0.125420 0.199047
I1    I     I_    0.239374 0.395869 0.660311 -0.194022
I2    I     I_    0.760627 0.604139 0.339694 -0.194029
Br1   Br    Br    0.558012 0.303306 0.038507 -0.526572
Br2   Br    Br    0.442029 0.696669 0.961465 -0.526532
I3    I     I_    0.219138 0.027441 0.760611 -0.277041
I4    I     I_    0.780410 0.972552 0.239577 -0.277088
Br3   Br    Br    0.774741 0.308068 0.555423 -0.369018
Br4   Br    Br    0.225285 0.691924 0.444575 -0.368993
Br5   Br    Br    0.566460 0.575827 0.558339 -0.377351
Br6   Br    Br    0.433540 0.424188 0.441655 -0.377363
Br7   Br    Br    0.884443 0.240060 0.753662 -0.404241
Br8   Br    Br    0.115521 0.759965 0.246337 -0.404236
I5    I     I_    0.283687 0.533710 0.231438 -0.210905
I6    I     I_    0.716234 0.466301 0.768589 -0.210866
Br9   Br    Br    0.213956 0.949155 0.358257 -0.440471
Br10  Br    Br    0.786044 0.050864 0.641736 -0.440505

loop_
_geom_bond_atom_site_label_1
_geom_bond_atom_site_label_2
_geom_bond_distance
_ccdc_geom_bond_type
C36   C38   1.550208 S    
C22   Br7   1.901707 S    
C23   I5    2.128659 S    
C10   C13   1.545295 S    
O13   V3    1.728263 S    
O4    C2    1.304596 A    
V1    O19   1.694040 S    
C23   C25   1.430439 A    
O9    V1    1.982412 S    
C9    C15   1.552790 S    
C40   C42   1.385997 A    
C34   C37   1.554430 S    
C10   C16   1.552771 S    
C42   C44   1.368414 A    
C11   C13   1.551040 S    
C10   Br4   1.935357 S    
C45   I3    2.108784 S    
O3    C1    1.304626 A    
C31   C36   1.535866 S    
C16   Br6   1.954841 S    
C9    C11   1.547207 S    
C44   C46   1.385134 A    
C15   Br5   1.954835 S    
C7    C14   1.525339 S    
C6    C30   1.501130 S    
C32   C34   1.547626 S    
C21   C23   1.409057 A    
C40   Br2   1.924016 S    
C33   H5    1.110327 S    
O7    C3    1.311392 A    
C17   H1    1.081641 S    
C34   H6    1.110326 S    
C18   H2    1.081660 S    
O5    C7    1.306262 A    
O7    V1    2.065625 S    
O6    C8    1.306262 A    
C20   H4    1.082845 S    
C35   C37   1.550220 S    
C3    C52   1.516795 S    
C26   C28   1.429478 A    
O3    V1    1.982386 S    
O14   V4    1.728263 S    
C42   H12   1.082863 S    
C10   C12   1.547210 S    
C31   C37   1.544878 S    
C24   C26   1.430439 A    
C2    C35   1.533126 S    
C2    O12   1.308829 A    
C14   C16   1.544088 S    
C39   C41   1.386048 A    
C18   C20   1.376093 A    
C9    Br3   1.935376 S    
C47   C49   1.449410 A    
C20   C22   1.380544 A    
O11   V3    1.996621 S    
C43   C45   1.385084 A    
O17   V3    1.987252 S    
C13   C15   1.544099 S    
C22   C24   1.409038 A    
C31   C33   1.547636 S    
C34   C36   1.547203 S    
C50   C51   1.434001 A    
C39   Br1   1.924008 S    
C46   C48   1.432919 A    
O8    C4    1.311373 A    
O8    V2    2.065625 S    
C45   C47   1.432854 A    
C1    O11   1.308819 A    
C25   C27   1.429486 A    
C48   C52   1.439326 A    
O15   V3    2.012365 S    
C37   H7    1.108766 S    
H10   C43   1.083651 S    
C41   C43   1.368451 A    
C24   I6    2.128631 S    
O10   V2    1.982411 S    
O1    V3    2.001137 S    
C26   C30   1.430849 A    
C19   C21   1.380510 A    
C11   I1    2.135644 S    
C41   H11   1.082855 S    
C32   C35   1.535859 S    
O18   V4    1.987254 S    
C48   C50   1.449466 A    
O15   C5    1.301941 A    
O16   C6    1.301936 A    
O1    C3    1.311472 A    
C46   I4    2.109076 S    
C28   C29   1.414305 A    
V2    O20   1.694039 S    
C12   I2    2.135570 S    
O16   V4    2.012364 S    
C12   C15   1.548510 S    
C17   C19   1.376076 A    
C4    C51   1.516744 S    
C40   C50   1.444751 A    
C21   Br8   1.901703 S    
O5    V1    2.044216 S    
O17   C7    1.307834 A    
O6    V2    2.044218 S    
O10   C6    1.320540 A    
O18   C8    1.307831 A    
C9    C14   1.545294 S    
O2    V4    2.001134 S    
C27   C30   1.414303 A    
C31   Br9   1.915371 S    
C12   C14   1.551051 S    
C11   C16   1.548495 S    
V3    O19   2.181846 S    
C1    C36   1.533118 S    
V4    O20   2.181845 S    
C33   C38   1.554426 S    
C8    C13   1.525334 S    
C25   C29   1.430883 A    
C5    C29   1.501152 S    
O9    C5    1.320545 A    
O13   V1    2.134223 S    
C39   C49   1.444739 A    
O14   V2    2.134224 S    
O2    C4    1.311453 A    
C19   H3    1.082843 S    
O4    V2    1.982391 S    
C33   C35   1.547212 S    
C49   C52   1.434051 A    
C32   C38   1.544855 S    
C38   H8    1.108784 S    
C32   Br10  1.915327 S    
O12   V4    1.996620 S    
C17   C27   1.412955 A    
H9    C44   1.083652 S    
C47   C51   1.439219 A    
C18   C28   1.412952 A    
