data_mof_unit_28516.cif
_audit_creation_date              2012-12-10T19:58:56-0500
_audit_creation_method            fapswitch 2.2
_symmetry_space_group_name_H-M    P1
_symmetry_Int_Tables_number       1
_space_group_crystal_system       triclinic
_cell_length_a                    18.49523
_cell_length_b                    18.435238
_cell_length_c                    22.382642
_cell_angle_alpha                 90.05221
_cell_angle_beta                  90.03422
_cell_angle_gamma                 89.90884
_cell_volume                      7631.66022386

loop_
_atom_site_label
_atom_site_type_symbol
_atom_type_description
_atom_site_fract_x
_atom_site_fract_y
_atom_site_fract_z
_atom_type_partial_charge
C1    C     C_R   0.500023 0.999976 0.340132 0.884482
C2    C     C_R   0.999988 0.500002 0.340175 0.880882
C3    C     C_R   0.999978 0.499989 0.840132 0.885191
C4    C     C_R   0.499986 0.000003 0.840175 0.880182
C5    C     C_R   0.500014 0.000000 0.659836 0.814981
C6    C     C_R   0.999968 0.500030 0.659881 0.832115
C7    C     C_R   0.000014 0.499994 0.159836 0.815297
C8    C     C_R   0.500035 0.000017 0.159881 0.829545
C9    C     C_R   0.639719 0.140177 0.500505 0.862318
C10   C     C_R   0.859582 0.639666 0.500683 0.868410
C11   C     C_R   0.360699 0.859419 0.500755 0.864184
C12   C     C_R   0.139963 0.359766 0.500303 0.874661
C13   C     C_R   0.358632 0.138572 0.498505 0.882223
C14   C     C_R   0.139943 0.640148 0.500383 0.906011
C15   C     C_R   0.641124 0.861032 0.499131 0.883096
C16   C     C_R   0.860733 0.359238 0.499674 0.896506
C17   C     C_R   0.139252 0.640588 0.000717 0.863114
C18   C     C_R   0.360095 0.140393 0.000221 0.872748
C19   C     C_R   0.860535 0.359589 0.000660 0.864942
C20   C     C_R   0.640388 0.860333 0.000676 0.865468
C21   C     C_R   0.858959 0.639033 0.999282 0.883582
C22   C     C_R   0.639510 0.140574 0.999924 0.901276
C23   C     C_R   0.141575 0.361701 0.998198 0.866706
C24   C     C_R   0.360351 0.859512 0.999940 0.901115
C25   C     C_R   0.693651 0.746251 0.463051 -0.095976
C26   C     C_R   0.243676 0.704547 0.455718 -0.098743
C27   C     C_R   0.309784 0.256811 0.466497 -0.097170
C28   C     C_R   0.755269 0.296318 0.455948 -0.099933
C29   C     C_R   0.297746 0.753893 0.457280 -0.149948
C30   C     C_R   0.743812 0.692134 0.464974 -0.171629
C31   C     C_R   0.701263 0.246934 0.458023 -0.146488
C32   C     C_R   0.259468 0.311414 0.469518 -0.184519
C33   C     C_R   0.191115 0.244300 0.965207 -0.094087
C34   C     C_R   0.745078 0.203178 0.956351 -0.102790
C35   C     C_R   0.805969 0.753419 0.963178 -0.091864
C36   C     C_R   0.255036 0.796541 0.955741 -0.102714
C37   C     C_R   0.798989 0.252703 0.958154 -0.148847
C38   C     C_R   0.241407 0.189744 0.968463 -0.182818
C39   C     C_R   0.200966 0.747104 0.957404 -0.147434
C40   C     C_R   0.756223 0.807869 0.965149 -0.176091
C41   C     C_R   0.697483 0.805808 0.500823 -0.234169
C42   C     C_R   0.195840 0.695565 0.502910 -0.222900
C43   C     C_R   0.301192 0.192667 0.498103 -0.237321
C44   C     C_R   0.806225 0.302477 0.501209 -0.229812
C45   C     C_R   0.307828 0.801324 0.504420 -0.237163
C46   C     C_R   0.801390 0.692772 0.504900 -0.245568
C47   C     C_R   0.693945 0.197060 0.503707 -0.245739
C48   C     C_R   0.196356 0.304447 0.503120 -0.239759
C49   C     C_R   0.200147 0.308901 0.996329 -0.243019
C50   C     C_R   0.694889 0.196510 0.002083 -0.223870
C51   C     C_R   0.802545 0.694234 0.001174 -0.233452
C52   C     C_R   0.304603 0.803845 0.002025 -0.223342
C53   C     C_R   0.807113 0.302008 0.004214 -0.242758
C54   C     C_R   0.304162 0.196349 0.002495 -0.247521
C55   C     C_R   0.192094 0.698679 0.004043 -0.240605
C56   C     C_R   0.698572 0.807229 0.004982 -0.244003
C57   C     C_R   0.753996 0.806970 0.544211 0.376135
C58   C     C_R   0.205834 0.740829 0.554113 0.345118
C59   C     C_R   0.238059 0.184130 0.533163 0.371045
C60   C     C_R   0.800973 0.252535 0.549855 0.355563
C61   C     C_R   0.264682 0.790212 0.556060 0.388295
C62   C     C_R   0.800168 0.746525 0.550319 0.398054
C63   C     C_R   0.741982 0.203845 0.553018 0.391745
C64   C     C_R   0.189369 0.242091 0.540000 0.416370
C65   C     C_R   0.263859 0.317948 0.030963 0.393444
C66   C     C_R   0.701900 0.244902 0.051639 0.355058
C67   C     C_R   0.746190 0.693230 0.044631 0.374782
C68   C     C_R   0.296592 0.756397 0.051997 0.355463
C69   C     C_R   0.761112 0.293563 0.054498 0.385985
C70   C     C_R   0.311297 0.259094 0.039064 0.415430
C71   C     C_R   0.236815 0.708428 0.054834 0.380653
C72   C     C_R   0.699736 0.753523 0.050443 0.399564
C73   C     C_1   0.999988 0.499997 0.276744 -0.122664
C74   C     C_1   0.500058 0.999958 0.276736 -0.122538
C75   C     C_1   0.499981 0.000005 0.776743 -0.123519
C76   C     C_1   0.999946 0.500012 0.776736 -0.123711
C77   C     C_1   0.500018 0.000004 0.723273 -0.139638
C78   C     C_1   0.999942 0.500069 0.723286 -0.139107
C79   C     C_1   0.000023 0.499994 0.223274 -0.138968
C80   C     C_1   0.500063 0.000012 0.223286 -0.136787
C81   C     C_3   0.727509 0.667200 0.402672 0.616824
C82   C     C_3   0.326680 0.732213 0.397550 0.602537
C83   C     C_3   0.277411 0.338191 0.407746 0.618199
C84   C     C_3   0.670275 0.269565 0.399359 0.602369
C85   C     C_3   0.260487 0.679405 0.393476 0.559828
C86   C     C_3   0.676006 0.734108 0.398397 0.563644
C87   C     C_3   0.736693 0.321828 0.394127 0.566454
C88   C     C_3   0.329619 0.272272 0.402741 0.565916
C89   C     C_3   0.223582 0.161975 0.907036 0.614251
C90   C     C_3   0.828595 0.231120 0.898747 0.603825
C91   C     C_3   0.772343 0.831752 0.902455 0.624303
C92   C     C_3   0.171715 0.768702 0.897746 0.602318
C93   C     C_3   0.761863 0.179228 0.893774 0.564656
C94   C     C_3   0.170928 0.227575 0.901571 0.569401
C95   C     C_3   0.237867 0.821545 0.893501 0.561373
C96   C     C_3   0.823406 0.764543 0.898549 0.559651
O1    O     O_3   0.500000 1.000000 0.500000 -0.513788
O2    O     O_3   1.000000 0.500000 0.500000 -0.512498
O3    O     O_3   1.000000 0.500000 0.000000 -0.512984
O4    O     O_3   0.500000 0.000000 0.000000 -0.514352
O5    O     O_R   0.500000 0.939250 0.367980 -0.622107
O6    O     O_R   0.060750 0.500000 0.367980 -0.617404
O7    O     O_R   0.500000 0.060750 0.367980 -0.620787
O8    O     O_R   0.939250 0.500000 0.367980 -0.614668
O9    O     O_R   0.000000 0.439250 0.867980 -0.614687
O10   O     O_R   0.560750 0.000000 0.867980 -0.614731
O11   O     O_R   0.000000 0.560750 0.867980 -0.633373
O12   O     O_R   0.439250 0.000000 0.867980 -0.615877
O13   O     O_R   0.560720 1.000000 0.632020 -0.638854
O14   O     O_R   0.000000 0.560720 0.632020 -0.649322
O15   O     O_R   0.439280 1.000000 0.632020 -0.638712
O16   O     O_R   1.000000 0.439280 0.632020 -0.647240
O17   O     O_R   0.060720 0.500000 0.132020 -0.636576
O18   O     O_R   0.500000 0.060720 0.132020 -0.648455
O19   O     O_R   0.939280 0.500000 0.132020 -0.636687
O20   O     O_R   0.500000 0.939280 0.132020 -0.644309
O21   O     O_R   0.585450 0.146130 0.465380 -0.617018
O22   O     O_R   0.853870 0.585450 0.465380 -0.615747
O23   O     O_R   0.414550 0.853870 0.465380 -0.619761
O24   O     O_R   0.146130 0.414550 0.465380 -0.613497
O25   O     O_R   0.414550 0.146130 0.465380 -0.612201
O26   O     O_R   0.146130 0.585450 0.465380 -0.604195
O27   O     O_R   0.585450 0.853870 0.465380 -0.606828
O28   O     O_R   0.853870 0.414550 0.465380 -0.606345
O29   O     O_R   0.085450 0.646130 0.965380 -0.622995
O30   O     O_R   0.353870 0.085450 0.965380 -0.610685
O31   O     O_R   0.914550 0.353870 0.965380 -0.617334
O32   O     O_R   0.646130 0.914550 0.965380 -0.616999
O33   O     O_R   0.914550 0.646130 0.965380 -0.609796
O34   O     O_R   0.646130 0.085450 0.965380 -0.607844
O35   O     O_R   0.085450 0.353870 0.965380 -0.607475
O36   O     O_R   0.353870 0.914550 0.965380 -0.606889
O37   O     O_R   0.353850 0.914510 0.534610 -0.627515
O38   O     O_R   0.085490 0.353850 0.534610 -0.636677
O39   O     O_R   0.646150 0.085490 0.534610 -0.628849
O40   O     O_R   0.914510 0.646150 0.534610 -0.627234
O41   O     O_R   0.646150 0.914510 0.534610 -0.632391
O42   O     O_R   0.914510 0.353850 0.534610 -0.640881
O43   O     O_R   0.353850 0.085490 0.534610 -0.616438
O44   O     O_R   0.085490 0.646150 0.534610 -0.643195
O45   O     O_R   0.853850 0.414510 0.034610 -0.628254
O46   O     O_R   0.585490 0.853850 0.034610 -0.626496
O47   O     O_R   0.146150 0.585490 0.034610 -0.623099
O48   O     O_R   0.414510 0.146150 0.034610 -0.636581
O49   O     O_R   0.146150 0.414510 0.034610 -0.627701
O50   O     O_R   0.414510 0.853850 0.034610 -0.629920
O51   O     O_R   0.853850 0.585490 0.034610 -0.635189
O52   O     O_R   0.585490 0.146150 0.034610 -0.634666
Zn1   Zn    Zn3+2 0.586760 1.000000 0.549450 0.972162
Zn2   Zn    Zn3+2 1.000000 0.586760 0.549450 0.967809
Zn3   Zn    Zn3+2 0.413240 1.000000 0.549450 0.974887
Zn4   Zn    Zn3+2 1.000000 0.413240 0.549450 0.963300
Zn5   Zn    Zn3+2 0.086760 0.500000 0.049450 0.976549
Zn6   Zn    Zn3+2 0.500000 0.086760 0.049450 0.966048
Zn7   Zn    Zn3+2 0.913240 0.500000 0.049450 0.973584
Zn8   Zn    Zn3+2 0.500000 0.913240 0.049450 0.974651
Zn9   Zn    Zn3+2 0.500000 0.086720 0.450540 1.009556
Zn10  Zn    Zn3+2 0.913280 0.500000 0.450540 1.023374
Zn11  Zn    Zn3+2 0.500000 0.913280 0.450540 1.012778
Zn12  Zn    Zn3+2 0.086720 0.500000 0.450540 1.025160
Zn13  Zn    Zn3+2 1.000000 0.586720 0.950540 1.001896
Zn14  Zn    Zn3+2 0.413280 1.000000 0.950540 1.025853
Zn15  Zn    Zn3+2 1.000000 0.413280 0.950540 1.014293
Zn16  Zn    Zn3+2 0.586720 1.000000 0.950540 1.023103
O53   O     O_3   0.693039 0.597754 0.398281 -0.643760
C97   C     C_3   0.647274 0.577784 0.446784 0.110722
H1    H     H_    0.602927 0.544069 0.428140 0.133707
H2    H     H_    0.620348 0.624441 0.468701 0.174564
C98   C     C_3   0.687984 0.532292 0.493498 -0.322059
H3    H     H_    0.709661 0.482602 0.472592 0.281598
H4    H     H_    0.733965 0.562411 0.512375 0.222716
C99   C     C_3   0.639456 0.511605 0.545590 -1.053319
H5    H     H_    0.626629 0.560301 0.572851 0.283823
H6    H     H_    0.667532 0.471445 0.574422 0.276673
H7    H     H_    0.588680 0.487540 0.528708 0.273105
O54   O     O_3   0.396817 0.698919 0.398281 -0.644281
C100  C     C_3   0.412791 0.652948 0.447812 0.109700
H8    H     H_    0.440390 0.603987 0.429902 0.141249
H9    H     H_    0.364871 0.633033 0.472427 0.158794
C101  C     C_3   0.464120 0.690531 0.491775 -0.309828
H10   H     H_    0.512265 0.710690 0.467964 0.288755
H11   H     H_    0.437250 0.737133 0.512891 0.213148
C102  C     C_3   0.487717 0.640249 0.541971 -1.063856
H12   H     H_    0.441279 0.628951 0.571911 0.282758
H13   H     H_    0.531000 0.666615 0.568633 0.275887
H14   H     H_    0.508677 0.588722 0.523328 0.271817
O55   O     O_3   0.311253 0.408025 0.404869 -0.641552
C103  C     C_3   0.354784 0.427649 0.454811 0.109269
H15   H     H_    0.400189 0.461209 0.437877 0.129140
H16   H     H_    0.380310 0.380698 0.477418 0.176354
C104  C     C_3   0.311924 0.473181 0.500073 -0.324412
H17   H     H_    0.295424 0.525091 0.479457 0.268965
H18   H     H_    0.262431 0.444779 0.514213 0.231413
C105  C     C_3   0.356112 0.488350 0.556111 -1.033416
H19   H     H_    0.364184 0.437460 0.581822 0.283940
H20   H     H_    0.327214 0.528148 0.584764 0.277661
H21   H     H_    0.409501 0.510693 0.543879 0.273849
O56   O     O_3   0.600495 0.303419 0.402386 -0.647698
C106  C     C_3   0.586553 0.348290 0.453084 0.109258
H22   H     H_    0.556104 0.396389 0.436856 0.142074
H23   H     H_    0.635618 0.369796 0.475250 0.162487
C107  C     C_3   0.539708 0.308706 0.499323 -0.310054
H24   H     H_    0.492211 0.284067 0.477417 0.291838
H25   H     H_    0.570691 0.264876 0.520695 0.202705
C108  C     C_3   0.514368 0.358876 0.549189 -1.045881
H26   H     H_    0.561014 0.375354 0.577264 0.281481
H27   H     H_    0.474810 0.330035 0.577897 0.274838
H28   H     H_    0.488124 0.407780 0.530387 0.268478
O57   O     O_3   0.277559 0.604688 0.391664 -0.654997
C109  C     C_3   0.304747 0.583908 0.334961 0.117111
H29   H     H_    0.356233 0.554182 0.342602 0.159368
H30   H     H_    0.317617 0.630223 0.304676 0.146976
C110  C     C_3   0.251002 0.533034 0.304060 -0.239727
H31   H     H_    0.231953 0.491660 0.336318 0.300610
H32   H     H_    0.203135 0.564256 0.288687 0.237126
C111  C     C_3   0.285049 0.494967 0.250384 -0.929519
H33   H     H_    0.244455 0.459075 0.228902 0.291215
H34   H     H_    0.331747 0.461235 0.264772 0.259694
H35   H     H_    0.303477 0.535527 0.217102 0.266100
O58   O     O_3   0.602077 0.717619 0.390662 -0.660275
C112  C     C_3   0.585951 0.699308 0.330730 0.115135
H36   H     H_    0.555773 0.647233 0.331375 0.158465
H37   H     H_    0.634467 0.690467 0.301960 0.149819
C113  C     C_3   0.537634 0.758187 0.303424 -0.250848
H38   H     H_    0.492258 0.770448 0.334271 0.299253
H39   H     H_    0.569001 0.808830 0.296972 0.241959
C114  C     C_3   0.506959 0.734428 0.243377 -0.960390
H40   H     H_    0.551480 0.722359 0.211583 0.269326
H41   H     H_    0.472905 0.778475 0.224497 0.297574
H42   H     H_    0.472968 0.685391 0.249338 0.272653
O59   O     O_3   0.720100 0.396581 0.392242 -0.657858
C115  C     C_3   0.690571 0.416722 0.336156 0.110206
H43   H     H_    0.639839 0.447226 0.345026 0.155955
H44   H     H_    0.675691 0.370039 0.306841 0.145292
C116  C     C_3   0.743417 0.466160 0.302773 -0.242722
H45   H     H_    0.764980 0.507932 0.333684 0.299804
H46   H     H_    0.789878 0.433858 0.286041 0.235675
C117  C     C_3   0.707006 0.503563 0.249848 -0.921720
H47   H     H_    0.746975 0.538078 0.226232 0.296307
H48   H     H_    0.661866 0.538574 0.265509 0.262622
H49   H     H_    0.685793 0.462599 0.217959 0.258121
O60   O     O_3   0.403799 0.289655 0.398811 -0.660596
C118  C     C_3   0.424099 0.310753 0.340542 0.113545
H50   H     H_    0.457573 0.360467 0.345032 0.164032
H51   H     H_    0.377709 0.325549 0.311173 0.136380
C119  C     C_3   0.469863 0.250634 0.311789 -0.239696
H52   H     H_    0.508125 0.228086 0.345140 0.309335
H53   H     H_    0.434793 0.205560 0.296544 0.228827
C120  C     C_3   0.512191 0.278698 0.258335 -0.958587
H54   H     H_    0.544219 0.233865 0.238306 0.300128
H55   H     H_    0.549662 0.322577 0.272299 0.276655
H56   H     H_    0.474168 0.299718 0.224281 0.242609
O61   O     O_3   0.190450 0.091765 0.904876 -0.642403
C121  C     C_3   0.146576 0.072798 0.954707 0.107893
H57   H     H_    0.101225 0.039146 0.937701 0.129547
H58   H     H_    0.121080 0.120013 0.976998 0.175738
C122  C     C_3   0.189081 0.027700 0.000439 -0.320423
H59   H     H_    0.207103 0.976248 0.979800 0.271610
H60   H     H_    0.237570 0.057050 0.015748 0.227869
C123  C     C_3   0.143668 0.011204 0.055472 -1.036270
H61   H     H_    0.133935 0.061691 0.081395 0.284388
H62   H     H_    0.172503 0.971685 0.084396 0.277296
H63   H     H_    0.091070 0.987971 0.041983 0.273832
O62   O     O_3   0.898227 0.196790 0.900371 -0.646657
C124  C     C_3   0.913205 0.151357 0.950482 0.109161
H64   H     H_    0.943687 0.103647 0.933500 0.141980
H65   H     H_    0.864576 0.129242 0.972788 0.162651
C125  C     C_3   0.960502 0.190618 0.996717 -0.308550
H66   H     H_    0.007627 0.215611 0.974702 0.293262
H67   H     H_    0.929789 0.234225 0.018585 0.203211
C126  C     C_3   0.986497 0.140184 0.046111 -1.048835
H68   H     H_    0.940329 0.124151 0.074823 0.282398
H69   H     H_    0.026903 0.168674 0.074328 0.274299
H70   H     H_    0.011917 0.091066 0.026862 0.268338
O63   O     O_3   0.807396 0.900776 0.897049 -0.640964
C127  C     C_3   0.852908 0.921704 0.945496 0.113396
H71   H     H_    0.897419 0.954949 0.926627 0.135953
H72   H     H_    0.879604 0.875453 0.968145 0.175174
C128  C     C_3   0.812006 0.968288 0.991367 -0.325803
H73   H     H_    0.790987 0.017756 0.969710 0.281684
H74   H     H_    0.765616 0.938844 0.010145 0.226009
C129  C     C_3   0.860028 0.989441 0.043714 -1.055217
H75   H     H_    0.871882 0.941151 0.071703 0.284095
H76   H     H_    0.832062 0.030547 0.071740 0.276807
H77   H     H_    0.911314 0.012478 0.027044 0.273511
O64   O     O_3   0.101573 0.801965 0.898572 -0.646297
C130  C     C_3   0.085653 0.847676 0.948320 0.107181
H78   H     H_    0.057215 0.896289 0.930706 0.141475
H79   H     H_    0.133681 0.868266 0.972527 0.160558
C131  C     C_3   0.035301 0.809406 0.992571 -0.312050
H80   H     H_    0.987164 0.788617 0.969027 0.288179
H81   H     H_    0.062997 0.763136 0.013435 0.213674
C132  C     C_3   0.011535 0.859364 0.042991 -1.060615
H82   H     H_    0.058046 0.871098 0.072787 0.281294
H83   H     H_    0.968667 0.832557 0.069732 0.276537
H84   H     H_    0.989986 0.910722 0.024583 0.271819
O65   O     O_3   0.778272 0.104515 0.889894 -0.655611
C133  C     C_3   0.805837 0.086297 0.832675 0.110575
H85   H     H_    0.857410 0.056402 0.839429 0.154264
H86   H     H_    0.818571 0.134016 0.803867 0.150640
C134  C     C_3   0.752546 0.036755 0.799832 -0.257405
H87   H     H_    0.738348 0.990049 0.828706 0.295926
H88   H     H_    0.701959 0.066847 0.789833 0.243237
C135  C     C_3   0.784404 0.008673 0.741282 -0.924443
H89   H     H_    0.744470 0.973129 0.718588 0.296461
H90   H     H_    0.834229 0.976646 0.750036 0.261863
H91   H     H_    0.797477 0.054678 0.711150 0.266905
O66   O     O_3   0.096829 0.209798 0.897808 -0.660909
C136  C     C_3   0.077358 0.183980 0.840543 0.111407
H92   H     H_    0.044967 0.133937 0.847288 0.162115
H93   H     H_    0.124207 0.168176 0.812051 0.138034
C137  C     C_3   0.030609 0.240741 0.808526 -0.240706
H94   H     H_    0.992374 0.265975 0.840586 0.308932
H95   H     H_    0.065186 0.284616 0.790436 0.224153
C138  C     C_3   0.988014 0.207174 0.757235 -0.971678
H96   H     H_    0.957133 0.250049 0.733455 0.296639
H97   H     H_    0.949404 0.166140 0.774452 0.275790
H98   H     H_    0.025570 0.180858 0.725311 0.245425
O67   O     O_3   0.220774 0.896266 0.891544 -0.654517
C139  C     C_3   0.192749 0.916554 0.834974 0.120515
H99   H     H_    0.141610 0.946740 0.842972 0.158442
H100  H     H_    0.178989 0.869952 0.805183 0.145909
C140  C     C_3   0.246228 0.966640 0.802991 -0.235861
H101  H     H_    0.266078 0.008457 0.834596 0.300271
H102  H     H_    0.293659 0.934935 0.787386 0.237299
C141  C     C_3   0.211446 0.003967 0.749289 -0.945223
H103  H     H_    0.251789 0.039417 0.727090 0.291188
H104  H     H_    0.165057 0.038039 0.763806 0.259025
H105  H     H_    0.192390 0.962965 0.716536 0.264830
O68   O     O_3   0.897491 0.780660 0.891398 -0.663857
C142  C     C_3   0.916233 0.791432 0.830881 0.114751
H106  H     H_    0.948134 0.842378 0.828445 0.164484
H107  H     H_    0.869024 0.798621 0.800372 0.148295
C143  C     C_3   0.963631 0.728097 0.809831 -0.239221
H108  H     H_    0.006345 0.717268 0.843546 0.301609
H109  H     H_    0.930667 0.678221 0.805171 0.242168
C144  C     C_3   0.999240 0.744226 0.750090 -0.952762
H110  H     H_    0.032254 0.696927 0.735810 0.297470
H111  H     H_    0.035152 0.792053 0.754652 0.279362
H112  H     H_    0.957453 0.754980 0.715579 0.260576
Br1   Br    Br    0.810945 0.671138 0.349450 -0.500021
Br2   Br    Br    0.325232 0.812792 0.341342 -0.500195
Br3   Br    Br    0.195556 0.334757 0.352542 -0.515301
Br4   Br    Br    0.669269 0.189836 0.342145 -0.502743
Br5   Br    Br    0.179279 0.706293 0.341986 -0.567033
Br6   Br    Br    0.708693 0.818985 0.353029 -0.587047
Br7   Br    Br    0.816204 0.294217 0.341176 -0.569995
Br8   Br    Br    0.299638 0.190291 0.351900 -0.567950
Br9   Br    Br    0.305451 0.165321 0.851955 -0.514422
Br10  Br    Br    0.828988 0.311624 0.842412 -0.497850
Br11  Br    Br    0.688498 0.827665 0.849591 -0.497798
Br12  Br    Br    0.173057 0.688038 0.841468 -0.503347
Br13  Br    Br    0.680802 0.208592 0.843145 -0.571178
Br14  Br    Br    0.199473 0.308742 0.849626 -0.563467
Br15  Br    Br    0.318672 0.794408 0.841632 -0.566377
Br16  Br    Br    0.789386 0.679064 0.854179 -0.593659
O69   O     O_3   0.765321 0.866163 0.581287 -0.607814
C145  C     C_3   0.799730 0.922188 0.548395 0.170028
H113  H     H_    0.783212 0.974993 0.568184 0.177279
H114  H     H_    0.782538 0.924328 0.500573 0.136890
C146  C     C_3   0.882192 0.916221 0.552481 -0.379674
H115  H     H_    0.899689 0.931818 0.598198 0.232798
H116  H     H_    0.900049 0.859685 0.543868 0.259301
C147  C     C_3   0.918397 0.965415 0.506597 -0.958192
H117  H     H_    0.906853 0.945649 0.460678 0.285863
H118  H     H_    0.977768 0.965063 0.513444 0.266507
H119  H     H_    0.898130 0.021872 0.510893 0.271897
O70   O     O_3   0.164374 0.731325 0.605101 -0.625143
C148  C     C_3   0.103130 0.777717 0.603711 0.197117
H120  H     H_    0.056777 0.746773 0.622205 0.191523
H121  H     H_    0.086486 0.794248 0.557750 0.112038
C149  C     C_3   0.115142 0.844534 0.643246 -0.355620
H122  H     H_    0.130516 0.827103 0.689017 0.242364
H123  H     H_    0.159586 0.877859 0.625037 0.262067
C150  C     C_3   0.047743 0.892179 0.646034 -1.048859
H124  H     H_    0.035543 0.914059 0.601027 0.283459
H125  H     H_    0.057270 0.938304 0.676972 0.271468
H126  H     H_    0.000403 0.860963 0.662057 0.286128
O71   O     O_3   0.221680 0.118474 0.559646 -0.605005
C151  C     C_3   0.187697 0.074426 0.516209 0.140499
H127  H     H_    0.221564 0.069644 0.475129 0.148377
H128  H     H_    0.134018 0.097550 0.503814 0.148472
C152  C     C_3   0.176360 0.998599 0.541626 -0.346583
H129  H     H_    0.227479 0.978795 0.562002 0.278389
H130  H     H_    0.134378 0.001047 0.577031 0.223073
C153  C     C_3   0.153020 0.945698 0.492793 -0.925469
H131  H     H_    0.102077 0.964388 0.471498 0.264787
H132  H     H_    0.144082 0.891351 0.512293 0.258746
H133  H     H_    0.195844 0.940836 0.458223 0.282808
O72   O     O_3   0.848983 0.254608 0.597405 -0.621365
C154  C     C_3   0.911093 0.212193 0.584229 0.193275
H134  H     H_    0.958809 0.241823 0.601979 0.194389
H135  H     H_    0.921022 0.204384 0.535379 0.118700
C155  C     C_3   0.907299 0.138377 0.615263 -0.372935
H136  H     H_    0.894357 0.146083 0.663311 0.246026
H137  H     H_    0.863803 0.105243 0.594716 0.242663
C156  C     C_3   0.979040 0.097666 0.609634 -0.969069
H138  H     H_    0.993255 0.089598 0.561926 0.276892
H139  H     H_    0.974568 0.043953 0.631639 0.272228
H140  H     H_    0.023393 0.128496 0.631196 0.282000
O73   O     O_3   0.278744 0.827057 0.608782 -0.633010
C157  C     C_3   0.340639 0.797489 0.637164 0.106750
H141  H     H_    0.362266 0.839619 0.667853 0.180799
H142  H     H_    0.385135 0.784441 0.605402 0.091966
C158  C     C_3   0.321222 0.730285 0.674109 -0.318270
H143  H     H_    0.278587 0.744672 0.707057 0.280697
H144  H     H_    0.300061 0.686978 0.644363 0.223501
C159  C     C_3   0.387300 0.700710 0.706963 -0.873209
H145  H     H_    0.428982 0.682667 0.674487 0.247689
H146  H     H_    0.371229 0.653611 0.734814 0.291298
H147  H     H_    0.410949 0.742982 0.736402 0.293018
O74   O     O_3   0.845428 0.743164 0.599652 -0.616491
C160  C     C_3   0.820472 0.688215 0.638917 0.102826
H148  H     H_    0.866587 0.670967 0.667396 0.169648
H149  H     H_    0.802582 0.638292 0.614914 0.108942
C161  C     C_3   0.759936 0.716363 0.679813 -0.348034
H150  H     H_    0.783484 0.752475 0.714504 0.251076
H151  H     H_    0.719791 0.748190 0.653878 0.238491
C162  C     C_3   0.720151 0.653663 0.709662 -0.855009
H152  H     H_    0.690701 0.621267 0.675589 0.242273
H153  H     H_    0.680319 0.675313 0.742243 0.306666
H154  H     H_    0.758921 0.617738 0.733356 0.289351
O75   O     O_3   0.733164 0.163299 0.604659 -0.622926
C163  C     C_3   0.673598 0.190349 0.637860 0.111989
H155  H     H_    0.655608 0.146644 0.668582 0.178730
H156  H     H_    0.625987 0.203563 0.609360 0.096643
C164  C     C_3   0.694787 0.256542 0.675570 -0.331999
H157  H     H_    0.735338 0.240014 0.709631 0.272502
H158  H     H_    0.719159 0.299063 0.646895 0.229526
C165  C     C_3   0.628748 0.289278 0.706383 -0.865517
H159  H     H_    0.590892 0.311861 0.672659 0.245250
H160  H     H_    0.646041 0.333748 0.736652 0.298621
H161  H     H_    0.599925 0.247475 0.732876 0.291212
O76   O     O_3   0.130801 0.232452 0.577585 -0.619464
C166  C     C_3   0.144031 0.267564 0.632922 0.136413
H162  H     H_    0.090474 0.283542 0.651219 0.150016
H163  H     H_    0.174747 0.319402 0.628510 0.120199
C167  C     C_3   0.179811 0.216167 0.678326 -0.394888
H164  H     H_    0.156104 0.226520 0.722973 0.203375
H165  H     H_    0.168421 0.158686 0.666710 0.264098
C168  C     C_3   0.261302 0.228077 0.683603 -0.756709
H166  H     H_    0.288686 0.220982 0.640034 0.246522
H167  H     H_    0.284344 0.188159 0.715462 0.283931
H168  H     H_    0.272508 0.283545 0.700638 0.262709
O77   O     O_3   0.280387 0.383000 0.059023 -0.605987
C169  C     C_3   0.301636 0.435295 0.015985 0.162657
H169  H     H_    0.296494 0.489711 0.036992 0.173459
H170  H     H_    0.265878 0.435992 0.975914 0.133678
C170  C     C_3   0.380383 0.424608 0.996613 -0.386758
H171  H     H_    0.416133 0.429880 0.036162 0.236667
H172  H     H_    0.387773 0.369649 0.977165 0.245496
C171  C     C_3   0.401842 0.480580 0.949694 -0.927828
H173  H     H_    0.365545 0.476914 0.910245 0.288568
H174  H     H_    0.458018 0.469955 0.934582 0.279463
H175  H     H_    0.398712 0.536189 0.968725 0.260238
O78   O     O_3   0.655041 0.241352 0.099811 -0.621046
C172  C     C_3   0.596665 0.290414 0.091413 0.191217
H176  H     H_    0.546644 0.262424 0.106313 0.190413
H177  H     H_    0.587361 0.306192 0.043798 0.112362
C173  C     C_3   0.606873 0.358485 0.129858 -0.357439
H178  H     H_    0.620408 0.342441 0.176368 0.246810
H179  H     H_    0.651950 0.391484 0.111866 0.252955
C174  C     C_3   0.539060 0.405734 0.130274 -1.003580
H180  H     H_    0.528079 0.426351 0.084795 0.278590
H181  H     H_    0.547200 0.452587 0.160731 0.273892
H182  H     H_    0.491219 0.374657 0.145334 0.280057
O79   O     O_3   0.735478 0.634562 0.082320 -0.610499
C175  C     C_3   0.702863 0.577050 0.049827 0.176349
H183  H     H_    0.719995 0.525069 0.070655 0.176676
H184  H     H_    0.720945 0.574110 0.002285 0.139496
C176  C     C_3   0.620356 0.581424 0.052483 -0.380285
H185  H     H_    0.602044 0.565763 0.097914 0.233889
H186  H     H_    0.601582 0.637518 0.043258 0.257757
C177  C     C_3   0.586623 0.530995 0.006201 -0.972145
H187  H     H_    0.599516 0.550062 0.960366 0.288446
H188  H     H_    0.527193 0.531045 0.011622 0.270228
H189  H     H_    0.607255 0.474780 0.011708 0.270688
O80   O     O_3   0.343408 0.759992 0.100230 -0.618564
C178  C     C_3   0.398546 0.706789 0.094106 0.181887
H190  H     H_    0.450220 0.732405 0.108072 0.190290
H191  H     H_    0.406993 0.687621 0.047212 0.105111
C179  C     C_3   0.383851 0.641840 0.135153 -0.341766
H192  H     H_    0.370750 0.661477 0.180843 0.244291
H193  H     H_    0.337385 0.610260 0.117968 0.260651
C180  C     C_3   0.448326 0.590379 0.138119 -1.033605
H194  H     H_    0.457261 0.565135 0.093778 0.280818
H195  H     H_    0.437226 0.546688 0.170959 0.276588
H196  H     H_    0.497904 0.619612 0.152081 0.280091
O81   O     O_3   0.772385 0.332373 0.106746 -0.628224
C181  C     C_3   0.832754 0.303733 0.137940 0.111244
H197  H     H_    0.852018 0.346270 0.169320 0.179873
H198  H     H_    0.879294 0.291163 0.108118 0.093910
C182  C     C_3   0.812080 0.236477 0.174411 -0.327533
H199  H     H_    0.770012 0.251431 0.207679 0.277432
H200  H     H_    0.789740 0.193885 0.144578 0.222876
C183  C     C_3   0.877818 0.204998 0.206530 -0.868577
H201  H     H_    0.917990 0.184980 0.173546 0.246506
H202  H     H_    0.860756 0.158909 0.235115 0.293776
H203  H     H_    0.903804 0.246796 0.235052 0.292280
O82   O     O_3   0.368784 0.267942 0.077979 -0.614898
C184  C     C_3   0.354479 0.230907 0.132221 0.140238
H204  H     H_    0.407566 0.212980 0.150245 0.150146
H205  H     H_    0.322541 0.180006 0.126420 0.115930
C185  C     C_3   0.319678 0.281275 0.178891 -0.392533
H206  H     H_    0.341366 0.267000 0.223552 0.204101
H207  H     H_    0.334186 0.338722 0.169871 0.262108
C186  C     C_3   0.237559 0.273165 0.181856 -0.757640
H208  H     H_    0.211956 0.285361 0.138312 0.250623
H209  H     H_    0.215530 0.311465 0.215535 0.283299
H210  H     H_    0.223038 0.217085 0.195357 0.257476
O83   O     O_3   0.223235 0.671723 0.107626 -0.629421
C187  C     C_3   0.163253 0.703304 0.137302 0.103239
H211  H     H_    0.140393 0.661542 0.167635 0.180924
H212  H     H_    0.118700 0.718973 0.106340 0.094883
C188  C     C_3   0.186450 0.768725 0.175041 -0.321925
H213  H     H_    0.227589 0.751214 0.208282 0.276935
H214  H     H_    0.210856 0.810887 0.145987 0.224213
C189  C     C_3   0.121946 0.802248 0.207446 -0.865688
H215  H     H_    0.082590 0.824338 0.174688 0.245699
H216  H     H_    0.140776 0.847177 0.236604 0.293866
H217  H     H_    0.094394 0.761063 0.235480 0.292706
O84   O     O_3   0.654007 0.756625 0.099458 -0.617103
C190  C     C_3   0.678338 0.811578 0.139084 0.104869
H218  H     H_    0.631922 0.828261 0.167461 0.172997
H219  H     H_    0.695897 0.861736 0.115346 0.109106
C191  C     C_3   0.738908 0.783783 0.180148 -0.349530
H220  H     H_    0.715382 0.747927 0.214959 0.251610
H221  H     H_    0.779095 0.751773 0.154414 0.240056
C192  C     C_3   0.778690 0.846747 0.209762 -0.854564
H222  H     H_    0.808088 0.878885 0.175568 0.241877
H223  H     H_    0.818577 0.825382 0.242430 0.306480
H224  H     H_    0.739929 0.882845 0.233308 0.289050

loop_
_geom_bond_atom_site_label_1
_geom_bond_atom_site_label_2
_ccdc_geom_bond_type
C154  C155  S    
C105  H20   S    
C164  H157  S    
C96   O68   S    
O69   C145  S    
C27   C88   S    
C26   C29   A    
C131  C132  S    
C116  H46   S    
C172  H176  S    
O37   Zn3   S    
C111  H35   S    
C95   O67   S    
C53   C69   A    
C42   C58   A    
C144  H110  S    
O2    Zn4   S    
C134  H87   S    
C3    O9    A    
C71   O83   S    
C129  H75   S    
C46   C62   A    
C103  C104  S    
O1    Zn11  S    
C31   C47   A    
C156  H139  S    
C186  H209  S    
C105  H21   S    
C126  H68   S    
C149  H122  S    
C145  C146  S    
C89   C94   S    
C121  H58   S    
C169  C170  S    
C91   C96   S    
C135  H91   S    
O63   C127  S    
C62   O74   S    
C170  H172  S    
O28   Zn10  S    
C130  H79   S    
C141  H103  S    
C57   O69   S    
C16   C44   S    
C81   C86   S    
C99   H7    S    
C8    O18   A    
C148  C149  S    
C58   C61   A    
C108  H27   S    
C83   C88   S    
C106  H22   S    
C160  H149  S    
C112  H37   S    
C94   O66   S    
C22   O34   A    
C93   O65   S    
C96   Br16  S    
O70   C148  S    
C101  H11   S    
C110  H32   S    
C89   Br9   S    
C146  C147  S    
C117  H48   S    
C120  H55   S    
O68   C142  S    
C159  H147  S    
C91   Br11  S    
C174  H180  S    
C139  C140  S    
C162  H154  S    
C25   C41   A    
O7    Zn9   S    
C168  H168  S    
C28   C44   A    
C183  H203  S    
C81   Br1   S    
C29   C45   A    
C83   Br3   S    
C102  H12   S    
C146  H116  S    
C114  H40   S    
C54   C70   A    
C2    O8    A    
C187  H211  S    
C141  H105  S    
C115  H44   S    
C86   O58   S    
C123  H62   S    
C22   O52   A    
C179  H193  S    
C182  H200  S    
C35   C51   A    
C172  C173  S    
C158  C159  S    
C153  H133  S    
C133  H85   S    
C5    C77   S    
C152  H129  S    
C179  C180  S    
C1    O5    A    
C144  H112  S    
C185  H206  S    
C90   C93   S    
C7    C79   S    
O2    Zn2   S    
C134  C135  S    
O34   Zn16  S    
C32   C83   S    
C95   Br15  S    
C169  H170  S    
C70   O82   S    
C16   O42   A    
O14   Zn2   S    
C85   O57   S    
C150  H124  S    
C50   C66   A    
C189  H215  S    
C84   C87   S    
C112  C113  S    
C82   C85   S    
C33   C38   A    
C149  C150  S    
C161  H150  S    
C35   C40   A    
C16   O28   A    
C104  C105  S    
C29   C82   S    
C158  H143  S    
C47   C63   A    
C143  C144  S    
C177  H187  S    
O27   Zn11  S    
C18   O48   A    
C90   Br10  S    
C128  H74   S    
O48   Zn6   S    
O77   C169  S    
C165  H160  S    
O20   Zn8   S    
C23   C49   S    
C155  H136  S    
C8    O20   A    
O23   Zn11  S    
C147  H117  S    
O24   Zn12  S    
O46   Zn8   S    
C173  H179  S    
O18   Zn6   S    
C55   C71   A    
C151  H127  S    
C15   O41   A    
C64   O76   S    
C162  H152  S    
C20   C56   S    
C188  C189  S    
C33   C94   S    
C189  H217  S    
O73   C157  S    
C35   C96   S    
C164  H158  S    
C120  H54   S    
C180  H194  S    
C37   C90   S    
C1    C74   S    
C108  H28   S    
O17   Zn5   S    
O74   C160  S    
C76   C78   T    
C176  H186  S    
O61   C121  S    
C190  C191  S    
C6    C78   S    
C2    O6    A    
C65   C70   A    
C157  C158  S    
C187  C188  S    
C158  H144  S    
O32   Zn16  S    
O82   C184  S    
C103  H16   S    
C67   C72   A    
C154  H134  S    
C147  H118  S    
O62   C124  S    
C100  H9    S    
C106  C107  S    
C173  C174  S    
C138  H98   S    
C11   O37   A    
C90   O62   S    
C1    O7    A    
C36   C52   A    
C185  C186  S    
C43   C59   A    
C37   C53   A    
C135  H90   S    
C140  H101  S    
C12   O38   A    
C184  H204  S    
C97   H2    S    
C98   H4    S    
O58   C112  S    
C99   H6    S    
C192  H222  S    
C85   Br5   S    
C136  H93   S    
C68   O80   S    
C23   O35   A    
C161  C162  S    
O11   Zn13  S    
C102  H14   S    
C143  H108  S    
C121  C122  S    
C56   C72   A    
C4    O10   A    
C31   C84   S    
O3    Zn7   S    
C140  H102  S    
C139  H100  S    
C132  H82   S    
C13   O25   A    
C128  H73   S    
C118  C119  S    
C28   C87   S    
C183  H202  S    
O57   C109  S    
C73   C79   T    
O33   Zn13  S    
C51   C67   A    
C159  H145  S    
C145  H114  S    
C124  H65   S    
C21   O33   A    
C2    C73   S    
C151  C152  S    
C58   O70   S    
C9    O39   A    
C163  H155  S    
C114  H41   S    
C14   O44   A    
C179  H192  S    
C109  H30   S    
C116  C117  S    
O3    Zn15  S    
C188  H213  S    
C21   C51   S    
O51   Zn7   S    
C26   C42   A    
C157  H141  S    
C82   O54   S    
C150  H126  S    
O4    Zn6   S    
C154  H135  S    
C119  H52   S    
C135  H89   S    
C120  H56   S    
C30   C46   A    
C36   C39   A    
C88   Br8   S    
C127  H72   S    
C171  H173  S    
C190  H218  S    
C67   O79   S    
C109  C110  S    
C129  H76   S    
C147  H119  S    
C122  C123  S    
C152  C153  S    
C82   Br2   S    
C156  H138  S    
C18   O30   A    
C36   C95   S    
C26   C85   S    
O43   Zn3   S    
C149  H123  S    
C191  H221  S    
C40   C91   S    
O80   C178  S    
C142  C143  S    
O36   Zn14  S    
O84   C190  S    
C175  H183  S    
C129  H77   S    
C19   O45   A    
C170  H171  S    
C86   Br6   S    
C184  C185  S    
O1    Zn1   S    
C141  H104  S    
C168  H167  S    
C166  H163  S    
O83   C187  S    
C148  H121  S    
C119  C120  S    
C24   C52   S    
C126  H70   S    
C84   Br4   S    
C160  H148  S    
C14   O26   A    
C34   C37   A    
C32   C48   A    
C178  H190  S    
C12   C48   S    
C113  H38   S    
O76   C166  S    
C178  C179  S    
O71   C151  S    
C110  H31   S    
C99   H5    S    
C4    O12   A    
C117  H49   S    
C169  H169  S    
C107  H25   S    
C162  H153  S    
C180  H196  S    
C123  H63   S    
C88   O60   S    
O47   Zn5   S    
C33   C49   A    
C118  H50   S    
C60   O72   S    
C192  H224  S    
C131  H80   S    
O65   C133  S    
C75   C77   T    
C167  H164  S    
C4    C75   S    
O3    Zn13  S    
C163  C164  S    
C39   C55   A    
O2    Zn10  S    
C40   C56   A    
C107  C108  S    
C187  H212  S    
C174  H182  S    
C116  H45   S    
O16   Zn4   S    
O10   Zn16  S    
C22   C50   S    
O4    Zn8   S    
C105  H19   S    
C138  H96   S    
C74   C80   T    
C182  H199  S    
C172  H177  S    
C133  H86   S    
C13   O43   A    
C171  H175  S    
C144  H111  S    
C185  H207  S    
C134  H88   S    
O2    Zn12  S    
C57   C62   A    
C15   C41   S    
C92   O64   S    
C107  H24   S    
C156  H140  S    
O8    Zn10  S    
O45   Zn7   S    
C186  H210  S    
C189  H216  S    
C84   O56   S    
C108  H26   S    
C104  H17   S    
C113  H39   S    
C181  C182  S    
C161  H151  S    
C176  H185  S    
C104  H18   S    
C121  H57   S    
C87   Br7   S    
C24   O36   A    
C177  H188  S    
C130  H78   S    
C38   C54   A    
C127  C128  S    
O35   Zn15  S    
C170  C171  S    
O38   Zn4   S    
O60   C118  S    
O1    Zn3   S    
C130  C131  S    
C132  H84   S    
O4    Zn16  S    
C165  H161  S    
C159  H146  S    
C155  H137  S    
C9    C47   S    
C160  C161  S    
C11   C45   S    
O6    Zn12  S    
C113  C114  S    
C39   C92   S    
C13   C43   S    
C101  H10   S    
C177  H189  S    
C151  H128  S    
C110  C111  S    
C25   C30   A    
O52   Zn6   S    
C69   O81   S    
C117  H47   S    
O31   Zn15  S    
C27   C32   A    
C6    O16   A    
C28   C31   A    
O29   Zn13  S    
C10   O40   A    
C188  H214  S    
C155  C156  S    
C137  C138  S    
C20   O32   A    
O72   C154  S    
C138  H97   S    
C17   O47   A    
O42   Zn4   S    
C30   C81   S    
C91   O63   S    
C153  H131  S    
C41   C57   A    
O55   C103  S    
C24   O50   A    
C190  H219  S    
C5    O13   A    
C44   C60   A    
C68   C71   A    
O3    Zn5   S    
C45   C61   A    
C115  H43   S    
C137  H95   S    
O67   C139  S    
C27   C43   A    
C173  H178  S    
O5    Zn11  S    
C132  H83   S    
C100  H8    S    
C182  C183  S    
C106  H23   S    
C133  C134  S    
C125  H66   S    
O53   C97   S    
C9    O21   A    
C98   H3    S    
C153  H132  S    
C34   C93   S    
C142  H106  S    
C11   O23   A    
C72   O84   S    
C186  H208  S    
C181  H198  S    
C136  H92   S    
C137  H94   S    
C23   O49   A    
C38   C89   S    
C59   C64   A    
C49   C65   A    
C60   C63   A    
C21   O51   A    
C65   O77   S    
C122  H59   S    
C102  H13   S    
O64   C130  S    
C143  H109  S    
C66   C69   A    
C93   Br13  S    
C128  C129  S    
C7    O19   A    
C165  H159  S    
C25   C86   S    
C48   C64   A    
C12   O24   A    
C118  H51   S    
C10   C46   S    
C175  C176  S    
O56   C106  S    
C124  H64   S    
C17   C55   S    
C52   C68   A    
C101  C102  S    
C14   C42   S    
C166  C167  S    
O49   Zn5   S    
C19   C53   S    
C163  H156  S    
O25   Zn9   S    
C6    O14   A    
C191  C192  S    
C83   O55   S    
C15   O27   A    
C157  H142  S    
C150  H125  S    
C164  C165  S    
C119  H53   S    
C34   C50   A    
O21   Zn9   S    
C20   O46   A    
C111  H33   S    
C171  H174  S    
C176  C177  S    
O75   C163  S    
O78   C172  S    
C5    O15   A    
C3    O11   A    
O39   Zn1   S    
O12   Zn14  S    
C92   C95   S    
C66   O78   S    
C103  H15   S    
C122  H60   S    
O1    Zn9   S    
O9    Zn15  S    
O13   Zn1   S    
C152  H130  S    
C10   O22   A    
C112  H36   S    
C115  C116  S    
O79   C175  S    
C125  C126  S    
C100  C101  S    
C127  H71   S    
C3    C76   S    
C142  H107  S    
C167  C168  S    
C97   C98   S    
O54   C100  S    
O41   Zn1   S    
C175  H184  S    
C184  H205  S    
C97   H1    S    
C98   C99   S    
C94   Br14  S    
O44   Zn2   S    
O66   C136  S    
C8    C80   S    
C148  H120  S    
O81   C181  S    
C136  C137  S    
C126  H69   S    
C123  H61   S    
C61   O73   S    
O26   Zn12  S    
O19   Zn7   S    
C125  H67   S    
O15   Zn3   S    
O40   Zn2   S    
C178  H191  S    
C146  H115  S    
C140  C141  S    
C139  H99   S    
C7    O17   A    
C63   O75   S    
C180  H195  S    
C17   O29   A    
C168  H166  S    
C87   O59   S    
C19   O31   A    
C183  H201  S    
C192  H223  S    
C131  H81   S    
C59   O71   S    
C145  H113  S    
C124  C125  S    
C167  H165  S    
O4    Zn14  S    
O22   Zn10  S    
C18   C54   S    
C166  H162  S    
C114  H42   S    
O50   Zn8   S    
C92   Br12  S    
C109  H29   S    
C181  H197  S    
O59   C115  S    
C174  H181  S    
C81   O53   S    
C191  H220  S    
C89   O61   S    
O30   Zn14  S    
C111  H34   S    
