data_mof_unit_17497.cif
_audit_creation_date              2012-12-11T14:01:09-0500
_audit_creation_method            fapswitch 2.2
_symmetry_space_group_name_H-M    P1
_symmetry_Int_Tables_number       1
_space_group_crystal_system       triclinic
_cell_length_a                    19.286153
_cell_length_b                    10.973709
_cell_length_c                    18.911018
_cell_angle_alpha                 89.820201
_cell_angle_beta                  89.667105
_cell_angle_gamma                 90.22549
_cell_volume                      4002.22123359

loop_
_atom_site_label
_atom_site_type_symbol
_atom_type_description
_atom_site_fract_x
_atom_site_fract_y
_atom_site_fract_z
_atom_type_partial_charge
C1    C     C_R   0.273017 0.041889 0.853419 0.561691
C2    C     C_R   0.726132 0.040379 0.146034 0.547846
C3    C     C_R   0.773275 0.540799 0.853890 0.560424
C4    C     C_R   0.226074 0.539775 0.145722 0.548801
C5    C     C_R   0.488053 0.051484 0.074552 -0.075799
C6    C     C_R   0.503439 0.055594 0.928653 -0.070164
C7    C     C_R   0.994928 0.555840 0.072894 -0.072449
C8    C     C_R   0.010894 0.551186 0.927137 -0.070471
C9    C     C_R   0.002897 0.664389 0.035439 -0.112605
C10   C     C_R   0.012975 0.661567 0.962891 -0.109598
C11   C     C_R   0.487907 0.162051 0.038511 -0.114782
C12   C     C_R   0.496523 0.163819 0.965835 -0.108468
C13   C     C_2   0.247337 0.565251 0.914851 0.142419
C14   C     C_2   0.751750 0.572677 0.082428 0.139826
C15   C     C_2   0.747562 0.067761 0.915701 0.143759
C16   C     C_2   0.249647 0.074863 0.081133 0.140175
C17   C     C_2   0.246111 0.582507 0.075805 -0.103739
C18   C     C_2   0.752069 0.584388 0.923369 -0.101007
C19   C     C_2   0.745999 0.085173 0.076699 -0.102049
C20   C     C_2   0.251399 0.089352 0.921828 -0.100443
C21   C     C_2   0.286802 0.514954 0.034146 -0.159665
C22   C     C_2   0.708291 0.519649 0.964211 -0.163964
C23   C     C_2   0.788065 0.020763 0.035147 -0.157433
C24   C     C_2   0.204118 0.031684 0.961852 -0.169802
C25   C     C_2   0.299376 0.553598 0.961547 -0.139764
C26   C     C_2   0.698174 0.551767 0.038935 -0.137516
C27   C     C_2   0.799463 0.061044 0.962828 -0.141305
C28   C     C_2   0.195534 0.064694 0.036559 -0.137699
C29   C     C_2   0.435456 0.819307 0.565420 -0.127680
C30   C     C_2   0.482653 0.833180 0.411986 -0.133279
C31   C     C_2   0.935431 0.319321 0.565417 -0.128306
C32   C     C_2   0.982630 0.333209 0.411961 -0.133486
C33   C     C_2   0.466367 0.735108 0.452028 0.001872
C34   C     C_2   0.478936 0.748696 0.527893 0.023827
C35   C     C_2   0.966331 0.235157 0.452007 0.002074
C36   C     C_2   0.978917 0.248757 0.527872 0.023606
C37   C     C_2   0.251290 0.600141 0.575725 -0.101160
C38   C     C_2   0.757767 0.571452 0.414540 -0.098693
C39   C     C_2   0.751270 0.100062 0.575743 -0.101377
C40   C     C_2   0.257766 0.071454 0.414538 -0.098786
C41   C     C_2   0.241557 0.587228 0.419119 -0.099709
C42   C     C_2   0.779121 0.515229 0.567999 -0.127658
C43   C     C_2   0.741563 0.087252 0.419111 -0.099641
C44   C     C_2   0.279102 0.015276 0.568005 -0.127502
C45   C     C_R   0.471088 0.822082 0.853344 0.550819
C46   C     C_R   0.528845 0.821263 0.146507 0.534886
C47   C     C_R   0.970208 0.321375 0.854089 0.545515
C48   C     C_R   0.028466 0.321912 0.146971 0.534289
C49   C     C_2   0.192455 0.586600 0.469545 0.015311
C50   C     C_2   0.816367 0.586716 0.524905 0.001211
C51   C     C_2   0.692465 0.086588 0.469542 0.015476
C52   C     C_2   0.316353 0.086741 0.524905 0.001288
C53   C     C_2   0.209290 0.656142 0.529739 0.136569
C54   C     C_2   0.774296 0.640712 0.470153 0.149318
C55   C     C_2   0.709294 0.156106 0.529747 0.136556
C56   C     C_2   0.274284 0.140725 0.470148 0.149201
C57   C     C_R   0.260859 0.635026 0.850424 0.554461
C58   C     C_R   0.738953 0.636135 0.149016 0.550377
C59   C     C_R   0.760776 0.135208 0.850457 0.555100
C60   C     C_R   0.238573 0.136709 0.148652 0.547784
C61   C     C_R   0.292555 0.995414 0.641400 0.543092
C62   C     C_R   0.725658 0.042956 0.351628 0.542370
C63   C     C_R   0.792560 0.495403 0.641403 0.542966
C64   C     C_R   0.225651 0.542937 0.351636 0.543058
C65   C     C_R   0.433846 0.817810 0.642292 0.556929
C66   C     C_R   0.525513 0.823319 0.348665 0.533366
C67   C     C_R   0.933841 0.317812 0.642293 0.556696
C68   C     C_R   0.025501 0.323323 0.348651 0.532171
C69   C     C_R   0.263520 0.648880 0.643263 0.546419
C70   C     C_R   0.740646 0.632862 0.350510 0.539379
C71   C     C_R   0.763484 0.148750 0.643300 0.546583
C72   C     C_R   0.240648 0.132856 0.350505 0.539663
C73   C     C_R   0.498622 0.826531 0.074637 -0.020596
C74   C     C_R   0.499448 0.829642 0.925558 -0.033069
C75   C     C_R   0.996019 0.329524 0.076426 -0.022680
C76   C     C_R   0.995975 0.326569 0.927580 -0.036792
C77   C     C_R   0.496021 0.939587 0.038195 0.004537
C78   C     C_R   0.498998 0.941359 0.963374 0.003267
C79   C     C_R   0.997829 0.441400 0.038357 0.004058
C80   C     C_R   0.000466 0.439606 0.963620 0.005013
C81   C     C_R   0.505421 0.718254 0.962404 -0.002472
C82   C     C_R   0.492887 0.715641 0.035755 -0.001694
C83   C     C_R   0.995885 0.215424 0.966505 -0.006762
C84   C     C_R   0.983514 0.218658 0.039906 -0.001432
Cr1   Cr    Cr6+3 0.230530 0.836340 0.748870 0.992314
Cr2   Cr    Cr6+3 0.769470 0.836340 0.251130 0.993028
Cr3   Cr    Cr6+3 0.730530 0.336340 0.748870 0.991248
Cr4   Cr    Cr6+3 0.269470 0.336340 0.251130 0.994320
Cr5   Cr    Cr6+3 0.387420 0.989430 0.750820 0.991139
Cr6   Cr    Cr6+3 0.612580 0.989430 0.249180 0.997253
Cr7   Cr    Cr6+3 0.887420 0.489430 0.750820 0.993832
Cr8   Cr    Cr6+3 0.112580 0.489430 0.249180 0.995445
Cr9   Cr    Cr6+3 0.385640 0.677860 0.749230 0.982041
Cr10  Cr    Cr6+3 0.614360 0.677860 0.250770 0.988324
Cr11  Cr    Cr6+3 0.885640 0.177860 0.749230 0.983576
Cr12  Cr    Cr6+3 0.114360 0.177860 0.250770 0.989016
H1    H     H_    0.290844 0.633467 0.425917 0.072712
H2    H     H_    0.727910 0.487789 0.551667 0.128597
H3    H     H_    0.790841 0.133521 0.425906 0.072551
H4    H     H_    0.227880 0.987875 0.551686 0.128503
H5    H     H_    0.277300 0.515923 0.562322 0.069589
H6    H     H_    0.775026 0.477525 0.411042 0.052274
H7    H     H_    0.777286 0.015856 0.562326 0.069635
H8    H     H_    0.275032 0.977530 0.411046 0.052533
H9    H     H_    0.476695 0.055055 0.130491 0.122953
H10   H     H_    0.515019 0.063811 0.872930 0.126027
H11   H     H_    0.983013 0.563582 0.128569 0.124342
H12   H     H_    0.022203 0.554805 0.871210 0.123780
H13   H     H_    0.001606 0.750816 0.062874 0.096305
H14   H     H_    0.022545 0.744890 0.933879 0.101554
H15   H     H_    0.480651 0.246490 0.067047 0.098465
H16   H     H_    0.496996 0.249096 0.937828 0.097149
H17   H     H_    0.311577 0.432458 0.053060 0.146066
H18   H     H_    0.679220 0.443126 0.943101 0.146722
H19   H     H_    0.814629 0.939881 0.053908 0.144625
H20   H     H_    0.172395 0.958639 0.940594 0.143697
H21   H     H_    0.351011 0.587080 0.949211 0.124148
H22   H     H_    0.645789 0.564810 0.058103 0.111365
H23   H     H_    0.849546 0.101320 0.951379 0.120910
H24   H     H_    0.143887 0.088408 0.054548 0.117781
H25   H     H_    0.220826 0.663076 0.054744 0.124119
H26   H     H_    0.780393 0.660876 0.945525 0.129269
H27   H     H_    0.719565 0.164879 0.055892 0.125452
H28   H     H_    0.282250 0.162496 0.944353 0.132510
H29   H     H_    0.481851 0.922559 0.435569 0.078431
H30   H     H_    0.391972 0.861891 0.539104 0.058091
H31   H     H_    0.981841 0.422590 0.435539 0.078641
H32   H     H_    0.891930 0.361872 0.539115 0.058178
O1    O     O_R   0.215090 0.709860 0.828130 -0.522319
O2    O     O_R   0.784910 0.709860 0.171870 -0.530274
O3    O     O_R   0.715090 0.209860 0.828130 -0.521780
O4    O     O_R   0.284910 0.209860 0.171870 -0.531149
O5    O     O_R   0.445660 0.919250 0.676780 -0.524758
O6    O     O_R   0.554340 0.919250 0.323220 -0.516149
O7    O     O_R   0.945660 0.419250 0.676780 -0.524481
O8    O     O_R   0.054340 0.419250 0.323220 -0.516231
O9    O     O_R   0.456260 0.718170 0.670000 -0.516171
O10   O     O_R   0.543740 0.718170 0.330000 -0.526081
O11   O     O_R   0.956260 0.218170 0.670000 -0.512757
O12   O     O_R   0.043740 0.218170 0.330000 -0.526504
O13   O     O_R   0.320940 0.626760 0.674370 -0.526588
O14   O     O_R   0.679060 0.626760 0.325630 -0.507072
O15   O     O_R   0.820940 0.126760 0.674370 -0.525869
O16   O     O_R   0.179060 0.126760 0.325630 -0.506744
O17   O     O_3   0.334530 0.834540 0.749640 -0.290050
O18   O     O_3   0.665470 0.834540 0.250360 -0.243518
O19   O     O_3   0.834530 0.334540 0.749640 -0.290087
O20   O     O_3   0.165470 0.334540 0.250360 -0.244240
O21   O     O_R   0.236990 0.958390 0.823710 -0.493576
O22   O     O_R   0.763010 0.958390 0.176290 -0.511160
O23   O     O_R   0.736990 0.458390 0.823710 -0.494605
O24   O     O_R   0.263010 0.458390 0.176290 -0.508924
O25   O     O_R   0.332380 0.074750 0.830850 -0.508713
O26   O     O_R   0.667620 0.074750 0.169150 -0.508851
O27   O     O_R   0.832380 0.574750 0.830850 -0.506373
O28   O     O_R   0.167620 0.574750 0.169150 -0.508955
O29   O     O_R   0.445800 0.917770 0.825070 -0.505593
O30   O     O_R   0.554200 0.917770 0.174930 -0.505640
O31   O     O_R   0.945800 0.417770 0.825070 -0.502004
O32   O     O_R   0.054200 0.417770 0.174930 -0.508044
O33   O     O_R   0.456410 0.716580 0.829970 -0.513059
O34   O     O_R   0.543590 0.716580 0.170030 -0.530630
O35   O     O_R   0.956410 0.216580 0.829970 -0.518061
O36   O     O_R   0.043590 0.216580 0.170030 -0.528753
O37   O     O_R   0.321080 0.625290 0.822650 -0.512271
O38   O     O_R   0.678920 0.625290 0.177350 -0.517451
O39   O     O_R   0.821080 0.125290 0.822650 -0.521109
O40   O     O_R   0.178920 0.125290 0.177350 -0.515855
O41   O     O_R   0.214930 0.711450 0.668160 -0.523684
O42   O     O_R   0.785070 0.711450 0.331840 -0.507216
O43   O     O_R   0.714930 0.211450 0.668160 -0.523537
O44   O     O_R   0.285070 0.211450 0.331840 -0.507096
O45   O     O_R   0.236850 0.959870 0.675420 -0.505109
O46   O     O_R   0.763150 0.959870 0.324580 -0.502877
O47   O     O_R   0.736850 0.459870 0.675420 -0.505313
O48   O     O_R   0.263150 0.459870 0.324580 -0.502193
O49   O     O_R   0.332230 0.076350 0.670880 -0.529854
O50   O     O_R   0.667770 0.076350 0.329120 -0.531411
O51   O     O_R   0.832230 0.576350 0.670880 -0.529681
O52   O     O_R   0.167770 0.576350 0.329120 -0.531186
C85   C     C_3   0.546657 0.614333 0.928594 -0.246125
C86   C     C_3   0.506376 0.510969 0.892902 -0.387603
H33   H     H_    0.534481 0.424847 0.902168 0.098973
H34   H     H_    0.452601 0.502008 0.912783 0.147730
H35   H     H_    0.506094 0.521844 0.834599 0.175985
H36   H     H_    0.585517 0.651583 0.890556 0.139762
H37   H     H_    0.576713 0.571103 0.970565 0.124408
C87   C     C_3   0.476158 0.592313 0.070512 -0.248258
C88   C     C_3   0.416664 0.598188 0.124507 -0.416875
H38   H     H_    0.432357 0.634324 0.176488 0.171425
H39   H     H_    0.374837 0.656902 0.104197 0.141770
H40   H     H_    0.396521 0.504865 0.134496 0.141021
H41   H     H_    0.459013 0.526517 0.029958 0.128724
H42   H     H_    0.522848 0.550697 0.094384 0.163293
C89   C     C_3   0.029877 0.101792 0.934250 -0.243696
C90   C     C_3   0.982251 0.998275 0.908976 -0.407502
H43   H     H_    0.969580 0.933988 0.952366 0.106003
H44   H     H_    0.933557 0.030094 0.885359 0.200029
H45   H     H_    0.010110 0.944841 0.868006 0.125219
H46   H     H_    0.064367 0.129801 0.889684 0.153945
H47   H     H_    0.064659 0.061235 0.973696 0.119990
C91   C     C_3   0.961870 0.100869 0.077983 -0.246492
C92   C     C_3   0.908234 0.117882 0.137423 -0.419561
H48   H     H_    0.928759 0.160392 0.185825 0.169557
H49   H     H_    0.864978 0.174657 0.118664 0.135725
H50   H     H_    0.888182 0.027133 0.153598 0.149160
H51   H     H_    0.935708 0.040555 0.040148 0.135353
H52   H     H_    0.007734 0.050006 0.097210 0.161440
C93   C     C_3   0.120112 0.528832 0.466101 -0.243119
C94   C     C_3   0.079697 0.535667 0.536511 -0.451213
H53   H     H_    0.108781 0.494790 0.580893 0.152589
H54   H     H_    0.067533 0.631278 0.550138 0.154983
H55   H     H_    0.030083 0.487000 0.532535 0.136948
H56   H     H_    0.088276 0.576482 0.426080 0.183676
H57   H     H_    0.124713 0.431921 0.450767 0.139978
C95   C     C_3   0.887197 0.641263 0.540911 -0.237799
C96   C     C_3   0.924815 0.684973 0.473969 -0.449021
H58   H     H_    0.931188 0.609041 0.436071 0.148778
H59   H     H_    0.895213 0.758460 0.447732 0.187058
H60   H     H_    0.976494 0.722180 0.487684 0.114426
H61   H     H_    0.881632 0.720096 0.577062 0.167401
H62   H     H_    0.920200 0.572671 0.567221 0.157023
C97   C     C_3   0.620133 0.028779 0.466104 -0.243071
C98   C     C_3   0.579716 0.035613 0.536514 -0.451309
H63   H     H_    0.608852 0.994958 0.580924 0.152615
H64   H     H_    0.567437 0.131200 0.550070 0.154791
H65   H     H_    0.530172 0.986744 0.532585 0.136965
H66   H     H_    0.588286 0.076397 0.426079 0.183665
H67   H     H_    0.624750 0.931866 0.450778 0.139870
C99   C     C_3   0.387195 0.141255 0.540896 -0.237885
C100  C     C_3   0.424800 0.184967 0.473946 -0.448998
H68   H     H_    0.431178 0.109029 0.436054 0.148844
H69   H     H_    0.395188 0.258441 0.447708 0.187100
H70   H     H_    0.476475 0.222199 0.487653 0.114330
H71   H     H_    0.381648 0.220081 0.577055 0.167198
H72   H     H_    0.420198 0.072647 0.567190 0.157042
N1    N     N_2   0.180932 0.776642 0.537149 -0.509670
H73   H     H_    0.147883 0.788335 0.579477 0.276958
C101  C     C_3   0.153103 0.832525 0.473455 -0.324621
H74   H     H_    0.143879 0.930594 0.481775 0.124541
H75   H     H_    0.102914 0.789774 0.459133 0.137594
H76   H     H_    0.190187 0.824314 0.428691 0.163497
N2    N     N_2   0.746340 0.760300 0.480602 -0.500184
H77   H     H_    0.710337 0.788320 0.444066 0.258024
C102  C     C_3   0.726029 0.787826 0.552745 -0.317337
H78   H     H_    0.694027 0.870198 0.553889 0.125743
H79   H     H_    0.772277 0.803404 0.586032 0.169959
H80   H     H_    0.694558 0.712839 0.575913 0.146349
N3    N     N_2   0.680896 0.276570 0.537189 -0.509538
H81   H     H_    0.647803 0.288161 0.579493 0.276812
C103  C     C_3   0.653087 0.332497 0.473497 -0.324682
H82   H     H_    0.643821 0.430548 0.481849 0.124549
H83   H     H_    0.602921 0.289708 0.459125 0.137588
H84   H     H_    0.690203 0.324369 0.428752 0.163357
N4    N     N_2   0.246312 0.260305 0.480586 -0.500238
H85   H     H_    0.210272 0.288256 0.444076 0.257956
C104  C     C_3   0.226042 0.287882 0.552731 -0.317279
H86   H     H_    0.194053 0.370269 0.553872 0.125771
H87   H     H_    0.272305 0.303457 0.585991 0.169930
H88   H     H_    0.194568 0.212930 0.575926 0.146432
N5    N     N_2   0.179051 0.521252 0.929625 -0.509670
H89   H     H_    0.142098 0.554114 0.895669 0.254686
C105  C     C_3   0.172077 0.391583 0.943467 -0.286878
H90   H     H_    0.142084 0.347409 0.900561 0.121577
H91   H     H_    0.144516 0.377603 0.994520 0.171209
H92   H     H_    0.223052 0.345682 0.946553 0.145754
N6    N     N_2   0.820349 0.539966 0.062554 -0.517833
H93   H     H_    0.858961 0.587517 0.087867 0.258994
C106  C     C_3   0.832224 0.409910 0.059265 -0.291051
H94   H     H_    0.860573 0.388016 0.009830 0.173477
H95   H     H_    0.783220 0.356346 0.059185 0.143043
H96   H     H_    0.862503 0.381512 0.106066 0.123236
N7    N     N_2   0.679662 0.022398 0.931204 -0.510886
H97   H     H_    0.641087 0.056858 0.899594 0.255310
C107  C     C_3   0.673731 0.892177 0.943166 -0.289398
H98   H     H_    0.647560 0.848594 0.897590 0.120628
H99   H     H_    0.642902 0.875279 0.991933 0.169986
H100  H     H_    0.725030 0.848455 0.949722 0.146581
N8    N     N_2   0.317333 0.036069 0.061417 -0.517637
H101  H     H_    0.356214 0.074390 0.090947 0.258092
C108  C     C_3   0.325348 0.906035 0.051032 -0.290157
H102  H     H_    0.355231 0.889780 0.001724 0.172499
H103  H     H_    0.274763 0.858257 0.046193 0.147024
H104  H     H_    0.353336 0.866202 0.096604 0.119883
C109  C     C_3   0.455212 0.607879 0.421846 -0.233403
C110  C     C_3   0.409002 0.526874 0.468681 -0.448534
H105  H     H_    0.440266 0.465316 0.502126 0.136618
H106  H     H_    0.375905 0.582422 0.503872 0.161799
H107  H     H_    0.375397 0.468919 0.435144 0.155437
H108  H     H_    0.429673 0.616517 0.369475 0.150719
H109  H     H_    0.505728 0.561450 0.414042 0.168040
C111  C     C_3   0.549256 0.708745 0.555534 -0.230429
C112  C     C_3   0.552002 0.573705 0.575069 -0.411250
H110  H     H_    0.601253 0.554028 0.602899 0.137580
H111  H     H_    0.508150 0.545987 0.609687 0.185365
H112  H     H_    0.550511 0.517711 0.526814 0.125273
H113  H     H_    0.588664 0.726449 0.513668 0.133411
H114  H     H_    0.565258 0.764349 0.601690 0.160617
C113  C     C_3   0.955141 0.107940 0.421818 -0.233475
C114  C     C_3   0.908978 0.026922 0.468691 -0.448521
H115  H     H_    0.940280 0.965436 0.502143 0.136683
H116  H     H_    0.875872 0.082465 0.503875 0.161796
H117  H     H_    0.875384 0.968902 0.435181 0.155440
H118  H     H_    0.929553 0.116608 0.369472 0.149937
H119  H     H_    0.005644 0.061498 0.413955 0.168224
C115  C     C_3   0.049249 0.208854 0.555497 -0.230668
C116  C     C_3   0.052032 0.073790 0.574942 -0.410213
H120  H     H_    0.101273 0.054114 0.602814 0.138178
H121  H     H_    0.008138 0.045969 0.609500 0.186493
H122  H     H_    0.050597 0.017906 0.526634 0.124886
H123  H     H_    0.088655 0.226694 0.513654 0.133370
H124  H     H_    0.065223 0.264376 0.601694 0.160920

loop_
_geom_bond_atom_site_label_1
_geom_bond_atom_site_label_2
_ccdc_geom_bond_type
N4    C104  S    
C61   O49   A    
C37   C69   S    
C97   C98   S    
C60   O4    A    
C38   C70   S    
C85   H37   S    
C5    H9    S    
C108  H104  S    
C31   C67   S    
C92   H49   S    
C59   O3    A    
C72   O44   A    
C32   H31   S    
C7    C79   A    
C43   H3    S    
C47   C76   S    
Cr6   O6    S    
C72   O16   A    
C45   O33   A    
C86   H33   S    
Cr8   O52   S    
Cr1   O1    S    
C107  H98   S    
C51   C97   S    
Cr12  O40   S    
C99   H72   S    
C34   C111  S    
C65   O9    A    
C102  H78   S    
C111  H113  S    
C76   C83   A    
C41   C49   D    
C70   O14   A    
C91   C92   S    
C105  H90   S    
C85   C86   S    
Cr1   O41   S    
Cr2   O46   S    
C86   H35   S    
C19   C23   D    
Cr11  O35   S    
Cr12  O16   S    
C15   C27   D    
Cr9   O33   S    
Cr3   O43   S    
C115  C116  S    
C6    H10   S    
C45   O29   A    
C14   C26   D    
C18   H26   S    
C89   H47   S    
C33   C109  S    
C106  H95   S    
C68   O12   A    
C74   C81   A    
C5    C77   A    
C59   O39   A    
C114  H115  S    
C71   O15   A    
C105  H91   S    
C1    C20   S    
C110  H107  S    
C2    C19   S    
C113  H119  S    
C90   H43   S    
Cr5   O29   S    
C48   O36   A    
C26   H22   S    
Cr11  O11   S    
Cr8   O32   S    
C110  H106  S    
C49   C53   S    
C100  H70   S    
C51   C55   S    
N8    C108  S    
C83   C89   S    
C89   C90   S    
C8    C10   A    
C102  H80   S    
C73   C77   A    
C31   C36   D    
C116  H121  S    
C75   C79   A    
C2    O22   A    
C52   C99   S    
Cr7   O19   S    
C47   O31   A    
Cr5   O17   S    
C48   O32   A    
C19   H27   S    
N3    H81   S    
C93   H57   S    
Cr1   O17   S    
Cr2   O22   S    
N5    H89   S    
C75   C84   A    
C6    C78   A    
C13   C57   S    
C46   O30   A    
C104  H86   S    
C16   C60   S    
Cr3   O3    S    
C15   N7    S    
C66   O6    A    
C64   O48   A    
C67   O11   A    
C113  H118  S    
C114  H117  S    
C37   C53   D    
C44   C52   D    
C30   H29   S    
C2    O26   A    
N1    H73   S    
C99   C100  S    
C90   H45   S    
C33   C34   S    
C4    O24   A    
Cr5   O5    S    
Cr10  O14   S    
C107  H100  S    
Cr11  O19   S    
C21   H17   S    
C28   H24   S    
C53   N1    S    
Cr2   O2    S    
C103  H84   S    
C96   H58   S    
Cr12  O36   S    
C82   C87   S    
C45   C74   S    
C112  H110  S    
C83   C84   A    
C66   O10   A    
C55   N3    S    
C93   C94   S    
C101  H75   S    
C69   O41   A    
C42   C50   D    
C29   C65   S    
C87   H41   S    
C24   H20   S    
C94   H54   S    
C91   H51   S    
C74   C78   A    
C41   H1    S    
Cr6   O18   S    
C14   N6    S    
C21   C25   S    
C39   C71   S    
C40   C72   S    
Cr2   O42   S    
C76   C80   A    
Cr11  O39   S    
Cr12  O12   S    
N6    H93   S    
C44   C61   S    
C108  H103  S    
C94   H55   S    
Cr3   O47   S    
C109  H109  S    
C115  H123  S    
Cr4   O48   S    
C104  H88   S    
C54   N2    S    
C37   H5    S    
C44   H4    S    
N7    C107  S    
C7    H11   S    
C58   O38   A    
C86   H34   S    
C20   H28   S    
C22   H18   S    
C46   C73   S    
Cr10  O18   S    
Cr6   O50   S    
Cr11  O15   S    
Cr8   O20   S    
C111  H114  S    
C101  H74   S    
C12   H16   S    
C98   H63   S    
Cr10  O38   S    
C103  H82   S    
C77   C78   A    
C96   H60   S    
C50   C54   S    
Cr3   O19   S    
C5    C11   A    
C112  H112  S    
C42   H2    S    
C6    C12   A    
C57   O37   A    
C69   O13   A    
N2    H77   S    
C36   C115  S    
C95   H61   S    
C39   C55   D    
C40   C56   D    
N8    H101  S    
C1    O21   A    
Cr6   O26   S    
Cr7   O31   S    
C47   O35   A    
C18   C22   D    
C106  H94   S    
Cr8   O8    S    
Cr12  O20   S    
Cr2   O18   S    
C114  H116  S    
C9    H13   S    
C14   C58   S    
C92   H50   S    
C11   H15   S    
C116  H120  S    
C24   C28   S    
C90   H44   S    
C29   C34   D    
C25   H21   S    
C67   O7    A    
C113  C114  S    
C109  C110  S    
C38   C54   D    
C50   C95   S    
C85   H36   S    
C3    O27   A    
C99   H71   S    
C100  H69   S    
C1    O25   A    
C4    C17   S    
C17   H25   S    
C4    O28   A    
C102  H79   S    
Cr10  O10   S    
C98   H65   S    
C73   C82   A    
Cr9   O13   S    
C15   C59   S    
C39   H7    S    
C35   C113  S    
C93   H56   S    
C116  H122  S    
C70   O42   A    
N6    C106  S    
C43   C51   D    
C58   O2    A    
C10   H14   S    
C88   H38   S    
C17   C21   D    
Cr7   O7    S    
C38   H6    S    
C22   C26   S    
C106  H96   S    
C49   C93   S    
C41   C64   S    
C42   C63   S    
C97   H67   S    
C43   C62   S    
C16   C28   D    
C105  H92   S    
C92   H48   S    
Cr4   O44   S    
C81   C85   S    
C81   C82   A    
C60   O40   A    
C57   O1    A    
C111  C112  S    
C107  H99   S    
C16   N8    S    
C110  H105  S    
C64   O52   A    
C103  H83   S    
C62   O46   A    
C63   O51   A    
C3    C18   S    
C88   H39   S    
C20   C24   D    
N2    C102  S    
Cr7   O51   S    
Cr1   O45   S    
Cr9   O17   S    
C23   C27   S    
Cr10  O34   S    
C32   C68   S    
Cr9   O37   S    
Cr3   O23   S    
C29   H30   S    
Cr4   O24   S    
C48   C75   S    
C13   C25   D    
C31   H32   S    
C8    H12   S    
C95   H62   S    
Cr4   O20   S    
N3    C103  S    
C32   C35   D    
C68   O8    A    
C61   O45   A    
C95   C96   S    
N5    C105  S    
C97   H66   S    
C108  H102  S    
C23   H19   S    
C109  H108  S    
C115  H124  S    
C87   C88   S    
C104  H87   S    
Cr6   O30   S    
C88   H40   S    
Cr7   O27   S    
C40   H8    S    
Cr5   O25   S    
N7    H97   S    
Cr8   O28   S    
C30   C66   S    
Cr5   O49   S    
N1    C101  S    
Cr4   O4    S    
N4    H85   S    
C89   H46   S    
C9    C10   A    
C84   C91   S    
C7    C9    A    
C30   C33   D    
C98   H64   S    
C62   O50   A    
C11   C12   A    
C63   O47   A    
C27   H23   S    
C96   H59   S    
C3    O23   A    
C71   O43   A    
C112  H111  S    
C101  H76   S    
Cr1   O21   S    
Cr9   O9    S    
C87   H42   S    
C79   C80   A    
C94   H53   S    
C46   O34   A    
C56   N4    S    
C100  H68   S    
C8    C80   A    
C91   H52   S    
C35   C36   S    
C13   N5    S    
C65   O5    A    
C52   C56   S    
