data_mof_unit_50209.cif
_audit_creation_date              2012-12-11T14:25:01-0500
_audit_creation_method            fapswitch 2.2
_symmetry_space_group_name_H-M    P1
_symmetry_Int_Tables_number       1
_space_group_crystal_system       triclinic
_cell_length_a                    19.055124
_cell_length_b                    11.007179
_cell_length_c                    18.807024
_cell_angle_alpha                 89.913298
_cell_angle_beta                  90.824898
_cell_angle_gamma                 90.060674
_cell_volume                      3944.22920608

loop_
_atom_site_label
_atom_site_type_symbol
_atom_type_description
_atom_site_fract_x
_atom_site_fract_y
_atom_site_fract_z
_atom_type_partial_charge
C1    C     C_R   0.729105 0.373048 0.144788 0.532296
C2    C     C_R   0.270138 0.373285 0.854941 0.531523
C3    C     C_R   0.229105 0.873046 0.144787 0.532535
C4    C     C_R   0.770126 0.873312 0.854927 0.531428
C5    C     C_3   0.497236 0.054078 0.024636 -0.079512
C6    C     C_3   0.547086 0.065482 0.960408 -0.123595
C7    C     C_3   0.997219 0.554086 0.024636 -0.079601
C8    C     C_3   0.047074 0.565498 0.960415 -0.124148
C9    C     C_R   0.753066 0.901841 0.929508 0.008677
C10   C     C_R   0.243004 0.899149 0.069308 0.041739
C11   C     C_R   0.253117 0.401741 0.929544 0.008451
C12   C     C_R   0.743002 0.399156 0.069310 0.041519
C13   C     C_R   0.701641 0.838150 0.969880 0.014657
C14   C     C_R   0.303323 0.857589 0.033207 0.053290
C15   C     C_R   0.201668 0.338091 0.969908 0.014413
C16   C     C_R   0.803330 0.357629 0.033215 0.053221
C17   C     C_R   0.706415 0.840313 0.045361 -0.020264
C18   C     C_R   0.301636 0.853022 0.957763 0.034424
C19   C     C_R   0.206435 0.340244 0.045390 -0.020478
C20   C     C_R   0.801649 0.353058 0.957771 0.034496
C21   C     C_R   0.805523 0.977231 0.038245 -0.145824
C22   C     C_R   0.187301 0.946162 0.956003 -0.104045
C23   C     C_R   0.305612 0.477004 0.038299 -0.145923
C24   C     C_R   0.687300 0.446150 0.956002 -0.104043
C25   C     C_R   0.803322 0.971043 0.965556 -0.154251
C26   C     C_R   0.184637 0.936118 0.028593 -0.083870
C27   C     C_R   0.303422 0.470819 0.965609 -0.154640
C28   C     C_R   0.684632 0.436097 0.028592 -0.084107
C29   C     C_R   0.646153 0.771369 0.938672 -0.121965
C30   C     C_R   0.363753 0.814812 0.069013 -0.125469
C31   C     C_R   0.146164 0.271356 0.938694 -0.121972
C32   C     C_R   0.863764 0.314881 0.069026 -0.125537
C33   C     C_R   0.103028 0.199076 0.980032 -0.136367
C34   C     C_R   0.913695 0.248267 0.032708 -0.158425
C35   C     C_R   0.603032 0.699071 0.980015 -0.136362
C36   C     C_R   0.413677 0.748189 0.032688 -0.158369
C37   C     C_R   0.611001 0.694668 0.053970 0.222444
C38   C     C_R   0.405865 0.726988 0.959641 0.220722
C39   C     C_R   0.110989 0.194663 0.053988 0.222408
C40   C     C_R   0.905887 0.227048 0.959662 0.220672
C41   C     C_R   0.662960 0.764185 0.085939 -0.015987
C42   C     C_R   0.352156 0.783994 0.922167 -0.009336
C43   C     C_R   0.162956 0.264154 0.085964 -0.015953
C44   C     C_R   0.852179 0.284043 0.922181 -0.009346
C45   C     C_R   0.561371 0.151361 0.137223 0.559033
C46   C     C_R   0.468723 0.155339 0.854767 0.556909
C47   C     C_R   0.061362 0.651363 0.137222 0.559604
C48   C     C_R   0.968720 0.655341 0.854768 0.556948
C49   C     C_R   0.754921 0.918371 0.078782 -0.003632
C50   C     C_R   0.247016 0.912139 0.920129 0.031186
C51   C     C_R   0.254958 0.418258 0.078820 -0.003763
C52   C     C_R   0.747022 0.412148 0.920132 0.031271
C53   C     C_R   0.495134 0.169153 0.575480 -0.005690
C54   C     C_R   0.507413 0.151834 0.427478 0.001513
C55   C     C_R   0.995134 0.669152 0.575480 -0.005690
C56   C     C_R   0.007413 0.651833 0.427478 0.001522
C57   C     C_R   0.529359 0.068795 0.546296 0.023819
C58   C     C_R   0.523004 0.049557 0.472671 0.038218
C59   C     C_R   0.029359 0.568795 0.546296 0.023818
C60   C     C_R   0.023005 0.549557 0.472671 0.038219
C61   C     C_R   0.478584 0.255752 0.457396 -0.150298
C62   C     C_R   0.467063 0.259422 0.530222 -0.144480
C63   C     C_R   0.978584 0.755751 0.457396 -0.150296
C64   C     C_R   0.967062 0.759421 0.530222 -0.144480
C65   C     C_R   0.560741 0.978920 0.590061 -0.083630
C66   C     C_R   0.530448 0.928065 0.448679 -0.088710
C67   C     C_R   0.060741 0.478919 0.590061 -0.083630
C68   C     C_R   0.030448 0.428065 0.448679 -0.088709
C69   C     C_R   0.069778 0.362156 0.564742 -0.116280
C70   C     C_R   0.054415 0.337124 0.494115 -0.148998
C71   C     C_R   0.569778 0.862157 0.564742 -0.116280
C72   C     C_R   0.554415 0.837124 0.494115 -0.148998
C73   C     C_R   0.750139 0.915092 0.574930 -0.000828
C74   C     C_R   0.240886 0.927006 0.425751 0.003877
C75   C     C_R   0.250139 0.415092 0.574930 -0.000830
C76   C     C_R   0.740887 0.427007 0.425751 0.003870
C77   C     C_R   0.785128 0.014823 0.545978 0.022683
C78   C     C_R   0.181057 0.957051 0.467901 0.039630
C79   C     C_R   0.285129 0.514822 0.545978 0.022681
C80   C     C_R   0.681057 0.457053 0.467900 0.039628
C81   C     C_R   0.801848 0.009436 0.474097 0.040277
C82   C     C_R   0.183938 0.930185 0.540318 0.022589
C83   C     C_R   0.301848 0.509435 0.474097 0.040281
C84   C     C_R   0.683938 0.430186 0.540318 0.022590
C85   C     C_R   0.720271 0.839890 0.457666 -0.154469
C86   C     C_R   0.311269 0.921267 0.531071 -0.139444
C87   C     C_R   0.220271 0.339889 0.457666 -0.154469
C88   C     C_R   0.811269 0.421267 0.531071 -0.139443
C89   C     C_R   0.742835 0.967649 0.149757 0.519366
C90   C     C_R   0.257648 0.966865 0.850155 0.539160
C91   C     C_R   0.242842 0.467628 0.149767 0.519592
C92   C     C_R   0.757649 0.466868 0.850156 0.539181
C93   C     C_R   0.720621 0.825185 0.530399 -0.139274
C94   C     C_R   0.306029 0.911805 0.458127 -0.153520
C95   C     C_R   0.220622 0.325184 0.530399 -0.139275
C96   C     C_R   0.806029 0.411806 0.458127 -0.153520
C97   C     C_R   0.813638 0.107924 0.589371 -0.080010
C98   C     C_R   0.118592 0.011848 0.441213 -0.085828
C99   C     C_R   0.313638 0.607924 0.589371 -0.080010
C100  C     C_R   0.618593 0.511850 0.441213 -0.085828
C101  C     C_R   0.869885 0.176242 0.566044 -0.114209
C102  C     C_R   0.058499 0.016798 0.482018 -0.144993
C103  C     C_R   0.369885 0.676242 0.566044 -0.114209
C104  C     C_R   0.558500 0.516800 0.482017 -0.144993
C105  C     C_R   0.893172 0.161676 0.497164 -0.146577
C106  C     C_R   0.060023 0.976571 0.551828 -0.115403
C107  C     C_R   0.393171 0.661676 0.497163 -0.146578
C108  C     C_R   0.560023 0.476572 0.551827 -0.115403
C109  C     C_R   0.860611 0.078552 0.451734 -0.086096
C110  C     C_R   0.121526 0.928373 0.580168 -0.080568
C111  C     C_R   0.360612 0.578551 0.451734 -0.086096
C112  C     C_R   0.621526 0.428374 0.580167 -0.080567
C113  C     C_R   0.759493 0.933221 0.428717 0.005759
C114  C     C_R   0.250325 0.924705 0.572701 -0.001360
C115  C     C_R   0.259493 0.433220 0.428717 0.005768
C116  C     C_R   0.750325 0.424706 0.572700 -0.001359
C117  C     C_R   0.729759 0.381519 0.353983 0.546138
C118  C     C_R   0.268749 0.379056 0.646250 0.529551
C119  C     C_R   0.229759 0.881519 0.353983 0.546106
C120  C     C_R   0.768749 0.879057 0.646250 0.529548
C121  C     C_R   0.533161 0.154966 0.353910 0.551743
C122  C     C_R   0.467255 0.158343 0.647064 0.526181
C123  C     C_R   0.033161 0.654966 0.353910 0.551720
C124  C     C_R   0.967254 0.658343 0.647064 0.526177
C125  C     C_R   0.743901 0.971652 0.356412 0.547793
C126  C     C_R   0.257896 0.970096 0.644124 0.527055
C127  C     C_R   0.243901 0.471652 0.356412 0.547759
C128  C     C_R   0.757896 0.470096 0.644124 0.527057
C129  C     C_3   0.537399 0.266191 0.964450 -0.126029
C130  C     C_3   0.487523 0.254630 0.029256 -0.140831
C131  C     C_3   0.037379 0.766210 0.964461 -0.125879
C132  C     C_3   0.987499 0.754637 0.029260 -0.140868
C133  C     C_3   0.585860 0.169422 0.998625 0.205791
C134  C     C_3   0.449089 0.150267 0.990950 0.240944
C135  C     C_3   0.085838 0.669444 0.998637 0.205630
C136  C     C_3   0.949071 0.650273 0.990949 0.240961
C137  C     C_3   0.537234 0.158433 0.062366 0.009678
C138  C     C_3   0.497796 0.161634 0.927281 0.020900
C139  C     C_3   0.037210 0.658442 0.062371 0.010061
C140  C     C_3   0.997785 0.661647 0.927285 0.021003
Cr1   Cr    Cr6+3 0.772820 0.169820 0.252640 1.007450
Cr2   Cr    Cr6+3 0.227180 0.169820 0.747360 1.004767
Cr3   Cr    Cr6+3 0.272820 0.669820 0.252640 1.007559
Cr4   Cr    Cr6+3 0.727180 0.669820 0.747360 1.004773
Cr5   Cr    Cr6+3 0.615040 0.323610 0.249150 1.042599
Cr6   Cr    Cr6+3 0.384960 0.323610 0.750850 1.027942
Cr7   Cr    Cr6+3 0.115040 0.823610 0.249150 1.042698
Cr8   Cr    Cr6+3 0.884960 0.823610 0.750850 1.027939
Cr9   Cr    Cr6+3 0.616720 0.011130 0.250660 1.014060
Cr10  Cr    Cr6+3 0.383280 0.011130 0.749340 1.022482
Cr11  Cr    Cr6+3 0.116720 0.511130 0.250660 1.014108
Cr12  Cr    Cr6+3 0.883280 0.511130 0.749340 1.022486
H1    H     H_    0.462595 0.331596 0.424188 0.123612
H2    H     H_    0.435586 0.332710 0.551044 0.147673
H3    H     H_    0.962595 0.831596 0.424188 0.123612
H4    H     H_    0.935585 0.832709 0.551044 0.147674
H5    H     H_    0.573769 0.996454 0.645351 0.123037
H6    H     H_    0.513360 0.897465 0.396855 0.141184
H7    H     H_    0.073770 0.496453 0.645351 0.123035
H8    H     H_    0.013360 0.397464 0.396855 0.141183
H9    H     H_    0.088278 0.290972 0.600043 0.125859
H10   H     H_    0.061762 0.247282 0.473716 0.106569
H11   H     H_    0.588278 0.790973 0.600043 0.125859
H12   H     H_    0.561762 0.747283 0.473716 0.106570
H13   H     H_    0.690921 0.777450 0.424085 0.119861
H14   H     H_    0.363320 0.927354 0.554656 0.152884
H15   H     H_    0.190921 0.277449 0.424085 0.119858
H16   H     H_    0.863320 0.427354 0.554656 0.152884
H17   H     H_    0.796357 0.120912 0.643465 0.120361
H18   H     H_    0.115607 0.056558 0.390074 0.136255
H19   H     H_    0.296357 0.620912 0.643464 0.120361
H20   H     H_    0.615608 0.556561 0.390074 0.136259
H21   H     H_    0.895767 0.239698 0.601661 0.123260
H22   H     H_    0.010988 0.053164 0.459014 0.097283
H23   H     H_    0.395767 0.739697 0.601661 0.123262
H24   H     H_    0.510988 0.553167 0.459013 0.097282
H25   H     H_    0.936181 0.215722 0.478406 0.104683
H26   H     H_    0.013891 0.984266 0.584361 0.124061
H27   H     H_    0.436181 0.715722 0.478406 0.104683
H28   H     H_    0.513891 0.484267 0.584360 0.124062
H29   H     H_    0.885468 0.064983 0.401154 0.136217
H30   H     H_    0.121336 0.896969 0.634782 0.123399
H31   H     H_    0.385468 0.564982 0.401154 0.136214
H32   H     H_    0.621336 0.396970 0.634782 0.123402
H33   H     H_    0.551885 0.351685 0.937481 0.109137
H34   H     H_    0.461920 0.330516 0.057759 0.122354
H35   H     H_    0.051872 0.851705 0.937497 0.109137
H36   H     H_    0.961891 0.830516 0.057766 0.122321
H37   H     H_    0.480251 0.968441 0.050035 0.152744
H38   H     H_    0.572251 0.990396 0.931045 0.133772
H39   H     H_    0.980239 0.468452 0.050040 0.152748
H40   H     H_    0.072249 0.490417 0.931056 0.133677
H41   H     H_    0.845368 0.034416 0.062391 0.151697
H42   H     H_    0.142430 0.982321 0.927496 0.117847
H43   H     H_    0.345485 0.534121 0.062455 0.151699
H44   H     H_    0.642428 0.482297 0.927493 0.117853
H45   H     H_    0.843434 0.017728 0.937051 0.185491
H46   H     H_    0.134420 0.950330 0.052145 0.173219
H47   H     H_    0.343576 0.517422 0.937120 0.185562
H48   H     H_    0.634411 0.450284 0.052140 0.173196
H49   H     H_    0.066381 0.141403 0.953203 0.139948
H50   H     H_    0.956742 0.210204 0.062383 0.148470
H51   H     H_    0.566388 0.641384 0.953191 0.139881
H52   H     H_    0.456724 0.710116 0.062359 0.148395
H53   H     H_    0.670667 0.753976 0.142736 0.155751
H54   H     H_    0.346512 0.763562 0.866110 0.145183
H55   H     H_    0.170654 0.253946 0.142762 0.155728
H56   H     H_    0.846536 0.263592 0.866126 0.145175
O1    O     O_R   0.788190 0.043000 0.172520 -0.518966
O2    O     O_R   0.211810 0.043000 0.827480 -0.524392
O3    O     O_R   0.288190 0.543000 0.172520 -0.518886
O4    O     O_R   0.711810 0.543000 0.827480 -0.524391
O5    O     O_R   0.556550 0.253260 0.323480 -0.489367
O6    O     O_R   0.443450 0.253260 0.676520 -0.510150
O7    O     O_R   0.056550 0.753260 0.323480 -0.489395
O8    O     O_R   0.943450 0.753260 0.676520 -0.510153
O9    O     O_R   0.545830 0.051610 0.330160 -0.534150
O10   O     O_R   0.454170 0.051610 0.669840 -0.529257
O11   O     O_R   0.045830 0.551610 0.330160 -0.534167
O12   O     O_R   0.954170 0.551610 0.669840 -0.529261
O13   O     O_R   0.681920 0.959720 0.327070 -0.497558
O14   O     O_R   0.318080 0.959720 0.672930 -0.517450
O15   O     O_R   0.181920 0.459720 0.327070 -0.497588
O16   O     O_R   0.818080 0.459720 0.672930 -0.517451
O17   O     O_3   0.668190 0.168190 0.250820 -0.267837
O18   O     O_3   0.331810 0.168190 0.749180 -0.245308
O19   O     O_3   0.168190 0.668190 0.250820 -0.267772
O20   O     O_3   0.831810 0.668190 0.749180 -0.245297
O21   O     O_R   0.766240 0.292300 0.176860 -0.518164
O22   O     O_R   0.233760 0.292300 0.823140 -0.514913
O23   O     O_R   0.266240 0.792300 0.176860 -0.518069
O24   O     O_R   0.733760 0.792300 0.823140 -0.514920
O25   O     O_R   0.670310 0.409160 0.168720 -0.500501
O26   O     O_R   0.329690 0.409160 0.831280 -0.512465
O27   O     O_R   0.170310 0.909160 0.168720 -0.500510
O28   O     O_R   0.829690 0.909160 0.831280 -0.512478
O29   O     O_R   0.556160 0.251900 0.173380 -0.492838
O30   O     O_R   0.443840 0.251900 0.826620 -0.505474
O31   O     O_R   0.056160 0.751900 0.173380 -0.492851
O32   O     O_R   0.943840 0.751900 0.826620 -0.505473
O33   O     O_R   0.545410 0.050140 0.168240 -0.520338
O34   O     O_R   0.454590 0.050140 0.831760 -0.502147
O35   O     O_R   0.045410 0.550140 0.168240 -0.520473
O36   O     O_R   0.954590 0.550140 0.831760 -0.502125
O37   O     O_R   0.681530 0.958350 0.176970 -0.530080
O38   O     O_R   0.318470 0.958350 0.823030 -0.504542
O39   O     O_R   0.181530 0.458350 0.176970 -0.530030
O40   O     O_R   0.818470 0.458350 0.823030 -0.504549
O41   O     O_R   0.788610 0.044480 0.334450 -0.535055
O42   O     O_R   0.211390 0.044480 0.665550 -0.527667
O43   O     O_R   0.288610 0.544480 0.334450 -0.535084
O44   O     O_R   0.711390 0.544480 0.665550 -0.527667
O45   O     O_R   0.766630 0.293670 0.326970 -0.495279
O46   O     O_R   0.233370 0.293670 0.673030 -0.514887
O47   O     O_R   0.266630 0.793670 0.326970 -0.495311
O48   O     O_R   0.733370 0.793670 0.673030 -0.514890
O49   O     O_R   0.670730 0.410640 0.330640 -0.533304
O50   O     O_R   0.329270 0.410640 0.669360 -0.522312
O51   O     O_R   0.170730 0.910640 0.330640 -0.533328
O52   O     O_R   0.829270 0.910640 0.669360 -0.522316
O53   O     O_3   0.658913 0.177742 0.002330 -0.709853
H57   H     H_    0.673887 0.116625 0.038076 0.322815
O54   O     O_3   0.376119 0.137811 0.986145 -0.687464
H58   H     H_    0.359070 0.212833 0.962473 0.328987
O55   O     O_3   0.158884 0.677789 0.002400 -0.710345
H59   H     H_    0.173879 0.615852 0.037540 0.323269
O56   O     O_3   0.876103 0.637818 0.986133 -0.687467
H60   H     H_    0.859054 0.712866 0.962490 0.328945
H61   H     H_    0.698286 0.742420 0.551611 0.153135
H62   H     H_    0.352523 0.895412 0.427063 0.123483
H63   H     H_    0.198286 0.242418 0.551611 0.153134
H64   H     H_    0.852523 0.395412 0.427062 0.123485
H65   H     H_    0.633219 0.775197 0.882813 0.159928
H66   H     H_    0.373035 0.830388 0.125012 0.148611
H67   H     H_    0.133236 0.275191 0.882835 0.159954
H68   H     H_    0.873039 0.330464 0.125026 0.148647
O57   O     O_3   0.070220 0.121623 0.096445 -0.724052
H69   H     H_    0.039838 0.070213 0.065556 0.293039
O58   O     O_3   0.946447 0.144484 0.924317 -0.736765
H70   H     H_    0.960340 0.080990 0.959283 0.292437
O59   O     O_3   0.570241 0.621623 0.096434 -0.724017
H71   H     H_    0.539857 0.570209 0.065549 0.293022
O60   O     O_3   0.446440 0.644464 0.924283 -0.736731
H72   H     H_    0.460361 0.580978 0.959243 0.292399

loop_
_geom_bond_atom_site_label_1
_geom_bond_atom_site_label_2
_ccdc_geom_bond_type
C99   C103  A    
C124  O12   A    
C133  C137  S    
C129  H33   S    
Cr1   O41   S    
Cr11  O19   S    
C73   C93   A    
C136  C140  S    
C128  O16   A    
Cr6   O26   S    
C75   C95   A    
C112  H32   S    
C135  C139  S    
C84   C112  A    
Cr3   O43   S    
C136  O56   S    
C4    O24   A    
C79   C99   A    
Cr12  O36   S    
C55   C59   A    
C5    C6    S    
C100  C104  A    
C9    C13   A    
C131  C140  S    
C3    O27   A    
C11   C15   A    
C50   C90   S    
C66   C72   A    
C12   C16   A    
C1    O25   A    
C88   H16   S    
C87   C115  A    
C80   C84   A    
C104  C108  A    
C59   C60   A    
C8    C135  S    
C101  C105  A    
C132  H36   S    
C130  C134  S    
Cr8   O52   S    
C70   H10   S    
Cr5   O49   S    
C56   C123  S    
C105  H25   S    
C98   C102  A    
Cr5   O17   S    
C121  O5    A    
C32   H68   S    
C78   C82   A    
C11   C27   A    
C16   C20   A    
Cr9   O9    S    
Cr6   O6    S    
C71   H11   S    
C38   O60   S    
C129  C133  S    
Cr11  O11   S    
C3    O23   A    
Cr1   O1    S    
C107  H27   S    
Cr5   O25   S    
Cr8   O32   S    
Cr3   O19   S    
C39   C43   A    
C5    C137  S    
C118  O50   A    
C54   C61   A    
C29   C35   A    
C30   C36   A    
C8    C140  S    
C85   H13   S    
C125  O41   A    
C5    H37   S    
C76   C96   A    
C8    H40   S    
C89   O37   A    
C69   C70   A    
C45   O29   A    
Cr11  O35   S    
C93   H61   S    
C73   C77   A    
C103  C107  A    
Cr8   O28   S    
C68   H8    S    
C75   C79   A    
C131  H35   S    
C47   O35   A    
C88   C116  A    
C134  O54   S    
C100  H20   S    
C101  H21   S    
Cr8   O20   S    
C21   C49   A    
C92   O40   A    
C7    C8    S    
C104  H24   S    
C132  C139  S    
C133  O53   S    
C21   C25   A    
Cr7   O7    S    
C53   C122  S    
C18   C42   A    
O53   H57   S    
C114  C126  S    
Cr2   O22   S    
C59   C67   A    
C85   C93   A    
Cr6   O30   S    
C40   O58   S    
C87   C95   A    
C77   C97   A    
C84   C116  A    
Cr3   O47   S    
O57   H69   S    
C4    O28   A    
C1    C12   S    
C2    C11   S    
Cr8   O8    S    
C20   C44   A    
C29   H65   S    
C87   H15   S    
C48   C140  S    
C83   C115  A    
C27   H47   S    
C91   O3    A    
C10   C14   A    
C17   C49   A    
Cr7   O19   S    
C89   O1    A    
C132  C136  S    
C111  H31   S    
C110  H30   S    
C47   O31   A    
C54   C121  S    
C74   C78   A    
C92   O4    A    
C81   C113  A    
C37   O59   S    
C129  C130  S    
C109  H29   S    
Cr10  O38   S    
C105  C109  A    
C121  O9    A    
C24   C28   A    
C67   H7    S    
O56   H60   S    
C15   C31   A    
Cr7   O31   S    
C16   C32   A    
Cr2   O46   S    
C13   C17   A    
C85   C113  A    
C7    C136  S    
C57   C58   A    
C34   H50   S    
Cr11  O15   S    
C37   C41   A    
C61   C62   A    
C26   H46   S    
Cr6   O50   S    
C2    O22   A    
C63   C64   A    
C98   H18   S    
C40   C44   A    
C56   C60   A    
C23   H43   S    
O60   H72   S    
Cr3   O23   S    
C4    C9    S    
C106  H26   S    
C24   C52   A    
C119  O51   A    
C88   C96   A    
Cr10  O18   S    
C123  O7    A    
C74   C94   A    
C86   H14   S    
C48   O36   A    
C31   H67   S    
C9    C25   A    
O54   H58   S    
C15   C19   A    
Cr4   O48   S    
C12   C28   A    
C13   C29   A    
C6    C133  S    
Cr11  O39   S    
C24   H44   S    
Cr1   O21   S    
C94   H62   S    
C123  O11   A    
C51   C91   S    
C2    O26   A    
O58   H70   S    
C130  H34   S    
C22   C50   A    
C73   C120  S    
Cr10  O14   S    
C7    H39   S    
C75   C118  S    
C107  C111  A    
C48   O32   A    
C19   C43   A    
Cr2   O18   S    
C91   O39   A    
C43   H55   S    
C76   C80   A    
C65   H5    S    
C53   C57   A    
Cr6   O18   S    
C108  C112  A    
C77   C81   A    
C103  H23   S    
C72   H12   S    
C128  O44   A    
Cr5   O5    S    
C81   C109  A    
C30   H66   S    
C125  O13   A    
Cr12  O16   S    
C54   C58   A    
C83   C111  A    
C52   C92   S    
C102  H22   S    
C46   O34   A    
C131  C132  S    
Cr4   O4    S    
C18   C50   A    
C55   C124  S    
Cr9   O37   S    
Cr4   O24   S    
C57   C65   A    
C119  O47   A    
C95   H63   S    
C76   C117  S    
C126  O42   A    
Cr1   O45   S    
C36   C38   A    
C120  O52   A    
C79   C83   A    
C90   O38   A    
C42   H54   S    
Cr12  O40   S    
C122  O6    A    
Cr10  O34   S    
C113  C125  S    
C60   C68   A    
C22   C26   A    
C47   C139  S    
C130  C137  S    
C32   C34   A    
Cr7   O27   S    
Cr2   O42   S    
Cr9   O17   S    
C14   C18   A    
C97   H17   S    
C74   C119  S    
C33   C39   A    
C28   H48   S    
C34   C40   A    
C82   C110  A    
C35   C37   A    
C69   H9    S    
C38   C42   A    
C131  C135  S    
C99   H19   S    
C44   H56   S    
C115  C127  S    
C108  H28   S    
C86   C94   A    
Cr12  O20   S    
C58   C66   A    
C129  C138  S    
Cr5   O29   S    
C78   C98   A    
C31   C33   A    
C23   C27   A    
C118  O46   A    
O55   H59   S    
C127  O15   A    
C46   C138  S    
C10   C26   A    
Cr4   O44   S    
C80   C100  A    
Cr7   O51   S    
Cr9   O13   S    
C14   C30   A    
Cr1   O17   S    
C5    C134  S    
C117  O45   A    
C82   C114  A    
C124  O8    A    
C90   O2    A    
Cr3   O3    S    
O59   H71   S    
C65   C71   A    
C62   H2    S    
C67   C69   A    
C6    C138  S    
C120  O48   A    
C19   C51   A    
C117  O49   A    
C53   C62   A    
C39   O57   S    
C23   C51   A    
C55   C64   A    
C6    H38   S    
C45   C137  S    
Cr10  O10   S    
C56   C63   A    
C68   C70   A    
Cr2   O2    S    
C45   O33   A    
C66   H6    S    
C106  C110  A    
C122  O10   A    
C22   H42   S    
C49   C89   S    
C61   H1    S    
C134  C138  S    
C126  O14   A    
C96   H64   S    
C64   H4    S    
C86   C114  A    
C21   H41   S    
C63   H3    S    
C20   C52   A    
C3    C10   S    
C7    C139  S    
C35   H51   S    
Cr12  O12   S    
C33   H49   S    
C102  C106  A    
C127  O43   A    
C46   O30   A    
C41   H53   S    
C17   C41   A    
C25   H45   S    
C1    O21   A    
C71   C72   A    
Cr9   O33   S    
C116  C128  S    
C135  O55   S    
Cr4   O20   S    
C36   H52   S    
C97   C101  A    
