data_mof_unit_32310.cif
_audit_creation_date              2013-03-05T16:00:36-0500
_audit_creation_method            fapswitch 2.2
_symmetry_space_group_name_H-M    P1
_symmetry_Int_Tables_number       1
_space_group_crystal_system       triclinic
_cell_length_a                    8.612283
_cell_length_b                    13.172937
_cell_length_c                    19.26483
_cell_angle_alpha                 102.963888
_cell_angle_beta                  91.971451
_cell_angle_gamma                 98.812216
_cell_volume                      2099.35521015

loop_
_atom_site_label
_atom_site_type_symbol
_atom_site_description
_atom_site_fract_x
_atom_site_fract_y
_atom_site_fract_z
_atom_type_partial_charge
P1    P     P_3+3 0.042930 0.392230 0.337410 0.490613
O1    O     O_2   0.875110 0.423180 0.326290 -0.367395
O2    O     O_3   0.123410 0.433040 0.414950 -0.308796
O3    O     O_3   0.661010 0.625070 0.369680 -0.290579
O4    O     O_2   0.727117 0.494543 0.250261 -0.437146
O5    O     O_3   0.009741 0.254910 0.325248 -0.585885
O6    O     O_3   0.698382 0.677863 0.236630 -0.522238
H1    H     H_    0.651331 0.805307 0.312837 0.088654
C1    C     C_3   0.645816 0.834475 0.206935 -1.108638
H2    H     H_    0.572018 0.897535 0.218716 0.238181
H3    H     H_    0.772178 0.868333 0.212128 0.282037
P2    P     P_3+3 0.672230 0.754900 0.555730 0.609086
P3    P     P_3+3 0.138308 0.821521 0.416107 0.500364
O7    O     O_2   0.847800 0.768730 0.534310 -0.391800
O8    O     O_3   0.082250 0.684470 0.405440 -0.295486
O9    O     O_2   0.035828 0.875542 0.472655 -0.424068
O10   O     O_3   0.748226 0.832388 0.646271 -0.577518
O11   O     O_3   0.075152 0.851764 0.336844 -0.522555
C2    C     C_3   0.169559 0.811295 0.282680 0.455236
H4    H     H_    0.142789 0.723671 0.268349 0.108204
H5    H     H_    0.296735 0.839305 0.299133 0.050570
C3    C     C_3   0.133901 0.849400 0.216033 -1.033165
H6    H     H_    0.011547 0.816014 0.193995 0.281828
H7    H     H_    0.150714 0.936802 0.228724 0.253506
C4    C     C_3   0.121023 0.788216 0.633607 0.477494
H8    H     H_    0.133159 0.746646 0.578141 0.132069
H9    H     H_    0.996526 0.782984 0.643955 0.155046
C5    C     C_3   0.193147 0.902963 0.640479 -0.812740
H10   H     H_    0.306125 0.906723 0.614652 0.232802
H11   H     H_    0.112884 0.942424 0.613257 0.274060
H12   H     H_    0.214277 0.945261 0.697252 0.265562
Ba1   Ba    Ba6+2 0.853180 0.547790 0.465300 1.688617
C6    C     C_3   0.881154 0.201923 0.276648 0.700208
H13   H     H_    0.769808 0.223053 0.298631 0.093617
C7    C     C_3   0.893682 0.223599 0.201581 -1.120068
H14   H     H_    0.839808 0.293340 0.199446 0.254390
H15   H     H_    0.826439 0.157942 0.159768 0.248358
H16   H     H_    0.017403 0.234329 0.187145 0.263164
C8    C     C_3   0.699060 0.823999 0.716050 1.267264
C9    C     C_3   0.599590 0.906934 0.751983 -0.752834
H17   H     H_    0.665062 0.987706 0.767459 0.241913
H18   H     H_    0.559483 0.892607 0.803670 0.242551
H19   H     H_    0.489402 0.902296 0.719562 0.242009
P4    P     P_3+3 0.146790 0.607860 0.662600 0.606825
O12   O     O_2   0.314600 0.576860 0.673750 -0.261429
O13   O     O_3   0.066300 0.567050 0.585060 -0.407662
O14   O     O_3   0.528700 0.375020 0.630330 -0.374360
O15   O     O_3   0.194637 0.746515 0.684191 -0.490240
P5    P     P_3+3 0.069247 0.179094 0.586765 0.522897
O16   O     O_3   0.611760 0.365720 0.463870 -0.376645
O17   O     O_3   0.107460 0.315620 0.594570 -0.419778
O18   O     O_2   0.212400 0.134024 0.553453 -0.373230
O19   O     O_3   0.089664 0.166386 0.675606 -0.485963
Ba2   Ba    Ba6+2 0.336650 0.452300 0.534710 1.681426
P6    P     P_3+3 0.620588 0.576418 0.276256 0.483378
C10   C     C_3   0.613711 0.761411 0.257002 0.459167
H20   H     H_    0.484605 0.734145 0.252449 0.064688
H21   H     H_    0.619026 0.789694 0.151131 0.272250
O20   O     O_3   0.577950 0.634370 0.536140 -0.300583
C11   C     C_3   0.425165 0.249252 0.321909 0.321856
H22   H     H_    0.321678 0.271792 0.350820 0.123822
H23   H     H_    0.514265 0.320815 0.324906 0.087630
C12   C     C_3   0.363675 0.197726 0.244623 -0.547439
H24   H     H_    0.267975 0.238452 0.230749 0.179913
H25   H     H_    0.310973 0.113708 0.239505 0.213493
P7    P     P_3+3 0.519584 0.227802 0.444169 0.443744
O21   O     O_2   0.341900 0.231310 0.465740 -0.369032
O22   O     O_3   0.496142 0.178937 0.351566 -0.611688
H26   H     H_    0.215196 0.822945 0.174917 0.230949
C13   C     C_3   0.083626 0.264670 0.722930 0.472918
H27   H     H_    0.195744 0.318933 0.724502 0.132878
H28   H     H_    0.989119 0.303052 0.705432 0.089999
C14   C     C_3   0.050768 0.252785 0.798622 -0.921759
H29   H     H_    0.110804 0.323744 0.838237 0.251232
H30   H     H_    0.922536 0.244805 0.805454 0.238936
H31   H     H_    0.089162 0.182612 0.811451 0.302640
P8    P     P_3+3 0.573274 0.402619 0.722969 0.477054
C15   C     C_3   0.507119 0.217834 0.745838 0.220138
H32   H     H_    0.632170 0.224895 0.764981 0.129167
O23   O     O_2   0.501467 0.502243 0.751659 -0.314910
O24   O     O_3   0.458782 0.315622 0.764518 -0.580796
H33   H     H_    0.485571 0.186983 0.687132 0.170993
H34   H     H_    0.444878 0.062475 0.762627 0.084002
C16   C     C_3   0.410304 0.139720 0.780903 0.148990
H35   H     H_    0.285506 0.129090 0.763291 0.123391
C17   C     C_R   0.073991 0.565270 0.802270 -0.193346
H36   H     H_    0.172634 0.627282 0.822710 0.174207
C18   C     C_R   0.030199 0.543883 0.727614 0.269200
C19   C     C_R   0.847286 0.440935 0.817492 -0.368193
H37   H     H_    0.779092 0.390969 0.846708 0.172083
C20   C     C_R   0.787255 0.439071 0.748771 0.301387
C21   C     C_R   0.355509 0.539550 0.177081 -0.372372
H38   H     H_    0.438990 0.579951 0.149216 0.151656
C22   C     C_R   0.418642 0.514225 0.237922 0.305855
C23   C     C_R   0.097785 0.460001 0.199857 -0.279102
H39   H     H_    0.975412 0.433475 0.186912 0.163888
C24   C     C_R   0.161605 0.435235 0.263023 0.188357
C25   C     C_R   0.987648 0.509320 0.849067 0.081347
C26   C     C_R   0.885626 0.480484 0.702314 -0.311962
H40   H     H_    0.844474 0.469069 0.646983 0.150404
C27   C     C_R   0.193344 0.514315 0.154069 0.117189
C28   C     C_R   0.323989 0.453733 0.275330 -0.394563
H41   H     H_    0.372536 0.438878 0.322898 0.154306
C29   C     C_R   0.759659 0.511437 0.966226 -0.142783
C30   C     C_R   0.649165 0.488446 0.013699 -0.110013
C31   C     C_R   0.697988 0.494512 0.083513 -0.079490
C32   C     C_R   0.855522 0.525923 0.106035 -0.140251
C33   C     C_R   0.971366 0.523272 0.056914 0.051162
C34   C     C_R   0.922749 0.517258 0.983000 0.124634
C35   C     C_R   0.132616 0.540469 0.082088 -0.063820
C36   C     C_R   0.235465 0.579708 0.033664 0.105007
C37   C     C_R   0.196845 0.550469 0.958008 0.095099
C38   C     C_R   0.036439 0.522590 0.930001 -0.042141
C39   C     C_R   0.362895 0.662525 0.057695 -0.211193
C40   C     C_R   0.472036 0.691551 0.010653 -0.089572
C41   C     C_R   0.456656 0.636327 0.939546 -0.060906
C42   C     C_R   0.322013 0.562213 0.913817 -0.216819
H42   H     H_    0.714022 0.526449 0.917581 0.140358
H43   H     H_    0.524737 0.473126 0.998054 0.147498
H44   H     H_    0.613451 0.479626 0.120963 0.144367
H45   H     H_    0.885912 0.558441 0.162015 0.188444
H46   H     H_    0.373323 0.707955 0.112170 0.125890
H47   H     H_    0.571031 0.754228 0.029407 0.141540
H48   H     H_    0.546879 0.652876 0.904079 0.192840
H49   H     H_    0.313555 0.518915 0.858819 0.168783
C43   C     C_R   0.785129 0.169516 0.504892 -0.445864
C44   C     C_R   0.450802 0.801450 0.463411 0.179242
C45   C     C_R   0.411351 0.976680 0.448974 -0.265475
C46   C     C_R   0.352265 0.870017 0.444681 0.094379
C47   C     C_R   0.595349 0.845157 0.502793 0.125797
C48   C     C_R   0.657493 0.958028 0.507578 -0.218086
C49   C     C_R   0.564742 0.022107 0.477228 -0.041050
C50   C     C_R   0.625420 0.132499 0.481361 0.260691
C51   C     C_R   0.875953 0.108367 0.535350 0.104889
C52   C     C_R   0.791237 0.017237 0.552510 0.550491
H50   H     H_    0.334802 0.024197 0.430432 0.187126
H51   H     H_    0.837506 0.248584 0.502251 0.169632
C53   C     C_3   0.875950 0.082993 0.268353 -0.455406
C54   C     C_3   0.875705 0.047593 0.338814 -0.337866
C55   C     C_3   0.033943 0.081248 0.382895 -0.589252
H52   H     H_    0.039858 0.031787 0.421725 0.235022
H53   H     H_    0.133995 0.072271 0.348413 0.233728
H54   H     H_    0.046444 0.163577 0.414703 0.251208
H55   H     H_    0.847981 0.960379 0.327053 0.234296
H56   H     H_    0.780219 0.077694 0.369468 0.183004
H57   H     H_    0.765473 0.043445 0.236184 0.155924
H58   H     H_    0.975838 0.056772 0.238106 0.207225
S1    S     S_3+6 0.861357 0.832387 0.780565 -0.024071
O25   O     O_2   0.801727 0.841897 0.853855 -0.289033
O26   O     O_2   0.931863 0.734225 0.762979 -0.336677
O27   O     O_3   0.003071 0.936362 0.783793 -0.545131
H59   H     H_    0.087047 0.929462 0.818057 0.394017
S2    S     S_3+6 0.582644 0.709095 0.706664 0.013513
O28   O     O_2   0.513923 0.699010 0.776061 -0.297604
O29   O     O_2   0.462269 0.724079 0.653655 -0.345556
O30   O     O_3   0.680585 0.611873 0.671855 -0.573321
H60   H     H_    0.604643 0.561146 0.636507 0.402510
C56   C     C_3   0.493235 0.205748 0.192829 -0.349497
C57   C     C_3   0.426540 0.207892 0.118734 -0.307733
C58   C     C_3   0.558708 0.220316 0.069211 -0.681794
H61   H     H_    0.657876 0.282369 0.095985 0.224298
H62   H     H_    0.602836 0.144459 0.051171 0.268426
H63   H     H_    0.512804 0.245283 0.022674 0.317895
H64   H     H_    0.342558 0.134024 0.095618 0.238012
H65   H     H_    0.362615 0.276133 0.123157 0.212180
H66   H     H_    0.577387 0.280260 0.212838 0.207909
H67   H     H_    0.556679 0.137638 0.189198 0.211010
S3    S     S_3+6 0.440545 0.175381 0.875656 -0.046890
O31   O     O_2   0.367951 0.083931 0.904910 -0.250774
O32   O     O_2   0.614287 0.200006 0.896991 -0.322099
O33   O     O_3   0.355437 0.280689 0.909530 -0.529698
H68   H     H_    0.421920 0.341122 0.896846 0.357319
S4    S     S_3+6 0.742907 0.057902 0.640004 -0.100690
O34   O     O_2   0.755233 0.175861 0.658908 -0.432198
O35   O     O_2   0.575988 0.010623 0.645528 -0.407566
O36   O     O_3   0.871410 0.023064 0.693370 -0.480807
H69   H     H_    0.873537 0.073860 0.739628 0.387973
S5    S     S_3+6 0.376194 0.662500 0.434643 0.007993
O37   O     O_2   0.451619 0.566114 0.426537 -0.226915
O38   O     O_2   0.251145 0.642252 0.484364 -0.253859
O39   O     O_3   0.327203 0.664584 0.350014 -0.680997
H70   H     H_    0.235129 0.610873 0.333181 0.355868

loop_
_geom_bond_atom_site_label_1
_geom_bond_atom_site_label_2
_geom_bond_distance
_ccdc_geom_bond_type
P7    O22   1.748682 S    
O33   H68   0.989201 S    
C12   H25   1.111164 S    
C43   H51   1.082738 S    
C14   H29   1.108247 S    
C23   H39   1.060665 S    
C55   H54   1.106693 S    
O6    P6    1.742412 S    
P5    C51   1.902013 S    
C45   C46   1.402094 A    
H1    C10   1.111722 S    
S5    O37   1.493040 D    
O8    Ba1   2.909187 S    
S4    O34   1.500428 D    
C41   C42   1.392825 A    
C4    C5    1.518247 S    
O16   Ba2   3.021425 S    
P2    C47   1.905474 S    
P3    O11   1.751696 S    
C8    S2    1.651888 S    
C11   C12   1.529750 S    
C52   S4    1.735740 S    
O1    Ba1   2.838892 S    
C5    H10   1.107389 S    
C7    H15   1.110923 S    
C55   H53   1.110447 S    
C1    H21   1.101667 S    
C48   C52   1.427442 A    
C45   H50   1.079158 S    
C57   C58   1.523276 S    
C37   C42   1.407797 A    
O2    Ba2   2.839559 S    
C17   C18   1.427741 A    
P8    O23   1.535228 D    
C31   C32   1.380982 A    
C40   C41   1.390734 A    
C33   C34   1.451689 A    
C11   H23   1.109831 S    
P1    O1    1.580971 D    
O10   C8    1.445717 S    
C35   C36   1.433516 A    
C37   C38   1.427863 A    
P2    O20   1.624097 S    
C16   H35   1.094252 S    
C9    H19   1.103944 S    
C54   H56   1.100223 S    
C26   H40   1.081749 S    
C43   C50   1.409815 A    
C49   C50   1.451362 A    
P5    O17   1.749072 S    
C8    S1    1.811672 S    
O27   H59   0.990594 S    
S1    O27   1.677445 S    
C13   H27   1.104999 S    
C19   C20   1.398235 A    
C1    H2    1.110212 S    
C53   H58   1.110919 S    
C3    H26   1.108207 S    
C24   C28   1.385006 A    
C34   C38   1.444293 A    
S3    O32   1.504084 D    
P7    O21   1.604162 D    
S2    O28   1.505103 D    
P2    Ba1   3.501979 S    
C14   H30   1.108437 S    
C28   H41   1.063980 S    
O6    C10   1.403145 S    
P6    C22   1.856080 S    
O19   C13   1.415772 S    
C45   C49   1.400609 A    
Ba1   Ba2   4.762743 S    
C29   C30   1.389086 A    
P8    C20   1.852714 S    
P4    O13   1.566913 S    
C56   H67   1.110456 S    
C39   C40   1.398211 A    
C29   H42   1.073974 S    
Ba2   O20   2.917367 S    
S4    O35   1.493889 D    
C40   H47   1.080922 S    
P1    O5    1.748021 S    
S5    O39   1.677243 S    
C58   H63   1.102708 S    
S3    O31   1.502596 D    
C7    H16   1.106584 S    
C55   H52   1.101333 S    
P1    C24   1.925299 S    
C8    C9    1.547531 S    
C17   H36   1.078935 S    
O11   C2    1.405572 S    
C25   C38   1.564707 S    
Ba2   O21   2.924195 S    
C4    H8    1.102384 S    
O39   H70   0.970577 S    
P1    Ba1   3.460885 S    
C57   H65   1.113069 S    
C11   H22   1.110739 S    
P1    O2    1.566886 S    
C7    H14   1.098735 S    
C58   H62   1.110558 S    
P2    O10   1.852199 S    
C44   C46   1.423452 A    
C16   S3    1.779228 S    
P4    Ba2   3.461439 S    
P7    C50   1.905132 S    
C1    H3    1.103191 S    
C54   H55   1.106211 S    
C15   H33   1.111260 S    
H34   C16   1.089642 S    
C57   H64   1.111788 S    
P8    O24   1.745255 S    
C6    C53   1.532197 S    
C32   C33   1.397457 A    
P5    O18   1.546623 D    
O13   Ba2   3.036904 S    
C13   C14   1.532374 S    
C21   C22   1.402807 A    
C6    H13   1.110505 S    
C1    C10   1.512094 S    
S1    O25   1.504394 D    
S2    O30   1.669108 S    
O16   P7    1.817402 S    
C4    O15   1.399187 S    
Ba1   O16   2.917974 S    
O3    Ba1   2.883855 S    
C21   C27   1.416551 A    
O14   Ba2   2.883227 S    
O36   H69   0.984784 S    
P2    O7    1.575453 D    
O12   Ba2   2.839308 S    
P3    O8    1.759074 S    
O3    P6    1.772621 S    
C56   C57   1.528049 S    
C14   H31   1.102474 S    
C3    H7    1.107486 S    
S2    O29   1.495617 D    
C10   H20   1.108967 S    
O14   P8    1.756019 S    
C48   C49   1.445106 A    
P4    O12   1.581266 D    
C56   H66   1.109198 S    
S4    O36   1.667747 S    
C9    H17   1.095995 S    
P3    C46   1.875705 S    
C41   H48   1.081484 S    
C36   C37   1.434842 A    
C31   H44   1.070004 S    
C15   H32   1.109559 S    
C44   S5    1.797297 S    
Ba1   O13   2.838935 S    
O4    P6    1.532390 D    
C5    H12   1.105262 S    
S1    O26   1.487856 D    
S5    O38   1.498691 D    
C54   C55   1.530108 S    
C23   C24   1.440961 A    
C51   C52   1.417393 A    
C4    H9    1.091944 S    
C30   C31   1.376474 A    
C23   C27   1.456029 A    
C12   C56   1.529572 S    
O5    C6    1.410245 S    
C19   C25   1.418700 A    
O17   Ba2   2.909806 S    
C58   H61   1.109171 S    
C2    H4    1.110325 S    
C5    H11   1.109278 S    
C47   C48   1.482201 A    
C27   C35   1.592103 S    
C44   C47   1.405796 A    
C15   O24   1.388801 S    
C29   C34   1.416962 A    
C53   H57   1.106102 S    
P5    O19   1.762124 S    
O30   H60   0.984519 S    
C9    H18   1.111061 S    
C21   H38   1.061050 S    
C6    C7    1.539840 S    
C33   C35   1.422352 A    
C36   C39   1.407307 A    
O2    Ba1   3.036023 S    
C17   C25   1.444046 A    
C18   C26   1.393670 A    
C11   O22   1.394606 S    
C53   C54   1.531001 S    
C12   H24   1.105992 S    
C39   H46   1.078336 S    
C15   C16   1.515955 S    
O7    Ba1   2.923988 S    
C43   C51   1.406587 A    
C2    C3    1.517901 S    
P3    O9    1.543657 D    
C32   H45   1.074252 S    
C3    H6    1.107923 S    
C30   H43   1.078951 S    
C13   H28   1.102460 S    
S3    O33   1.681009 S    
Ba1   O20   3.022309 S    
C20   C26   1.394987 A    
C19   H37   1.079560 S    
P4    C18   1.894222 S    
C42   H49   1.078896 S    
P4    O15   1.759439 S    
C22   C28   1.384876 A    
C2    H5    1.111778 S    
