data_mof_unit_41540.cif
_audit_creation_date              2013-03-05T15:46:20-0500
_audit_creation_method            fapswitch 2.2
_symmetry_space_group_name_H-M    P1
_symmetry_Int_Tables_number       1
_space_group_crystal_system       triclinic
_cell_length_a                    11.022507
_cell_length_b                    11.00706
_cell_length_c                    18.771574
_cell_angle_alpha                 90.506354
_cell_angle_beta                  90.600239
_cell_angle_gamma                 59.84214
_cell_volume                      1969.07592173

loop_
_atom_site_label
_atom_site_type_symbol
_atom_site_description
_atom_site_fract_x
_atom_site_fract_y
_atom_site_fract_z
_atom_type_partial_charge
O1    O     O_R   0.748800 0.497470 0.428000 -0.517997
O2    O     O_R   0.476420 0.724060 0.429470 -0.490207
C1    C     C_R   0.356677 0.777378 0.399216 0.544909
O3    O     O_R   0.264580 0.744340 0.416750 -0.552592
O4    O     O_R   0.309380 0.472470 0.418200 -0.507480
C2    C     C_R   0.377618 0.349367 0.391893 0.522886
O5    O     O_R   0.501710 0.260430 0.414300 -0.491978
O6    O     O_R   0.728090 0.305600 0.428960 -0.460819
C3    C     C_R   0.714031 0.414395 0.394867 0.536347
O7    O     O_R   0.738760 0.495930 0.588610 -0.508273
O8    O     O_R   0.467110 0.722640 0.578360 -0.497238
C4    C     C_R   0.366894 0.713691 0.611593 0.547613
O9    O     O_R   0.254530 0.742800 0.577360 -0.409645
O10   O     O_R   0.300070 0.471040 0.567100 -0.473851
C5    C     C_R   0.371985 0.351294 0.596647 0.526210
O11   O     O_R   0.491670 0.258900 0.574910 -0.496993
O12   O     O_R   0.718780 0.304180 0.577850 -0.478438
C6    C     C_R   0.760793 0.378313 0.611374 0.542310
Cr1   Cr    Cr6+3 0.601770 0.606860 0.505860 1.082650
Cr2   Cr    Cr6+3 0.291380 0.601660 0.495070 1.092316
Cr3   Cr    Cr6+3 0.606880 0.291510 0.499120 1.127103
O13   O     O_3   0.500010 0.500010 0.500020 -0.325888
C7    C     C_R   0.841799 0.845985 0.216695 -0.033811
C8    C     C_R   0.807583 0.967116 0.256138 -0.027670
C9    C     C_R   0.682151 0.089862 0.243301 -0.058991
C10   C     C_R   0.579342 0.086752 0.199360 0.046091
H1    H     H_    0.492051 0.105019 0.327488 0.190896
C11   C     C_R   0.316448 0.278499 0.178550 0.006210
C12   C     C_R   0.412358 0.188101 0.294849 -0.153315
C13   C     C_R   0.430208 0.179650 0.221271 -0.032510
C14   C     C_R   0.102175 0.658436 0.337943 -0.086317
C15   C     C_R   0.002160 0.763040 0.382612 -0.095898
C16   C     C_R   0.622415 0.969838 0.154557 -0.086885
C17   C     C_R   0.753742 0.850459 0.162503 -0.122974
C18   C     C_R   0.200926 0.391620 0.212994 -0.132024
C19   C     C_R   0.207356 0.417399 0.285663 -0.011684
C20   C     C_R   0.878134 0.764721 0.397703 0.239146
C21   C     C_R   0.853297 0.664941 0.365568 -0.087683
C22   C     C_R   0.959567 0.551988 0.327954 -0.160996
C23   C     C_R   0.088740 0.543668 0.318082 0.005524
C24   C     C_R   0.324123 0.317285 0.325917 0.000251
H2    H     H_    0.782630 0.757988 0.130182 0.119446
H3    H     H_    0.017041 0.845873 0.404013 0.163881
H4    H     H_    0.938791 0.750191 0.225354 0.165861
H5    H     H_    0.879890 0.968877 0.294624 0.126223
H6    H     H_    0.656824 0.181017 0.276094 0.136038
H7    H     H_    0.194467 0.659904 0.321034 0.170399
H8    H     H_    0.552867 0.960906 0.118905 0.177339
H9    H     H_    0.108619 0.464976 0.182989 0.161445
H10   H     H_    0.752475 0.674980 0.370661 0.178549
H11   H     H_    0.941958 0.472071 0.306031 0.145102
C25   C     C_R   0.890922 0.268539 0.305824 -0.134734
H12   H     H_    0.959069 0.199933 0.347477 0.138522
C26   C     C_R   0.938742 0.248045 0.236398 -0.109435
H13   H     H_    0.044405 0.165131 0.225010 0.136360
C27   C     C_R   0.853536 0.338716 0.182489 0.045262
C28   C     C_R   0.719548 0.450177 0.197776 -0.134784
H14   H     H_    0.652868 0.519736 0.156038 0.122132
C29   C     C_R   0.671775 0.471220 0.267639 -0.168645
H15   H     H_    0.567115 0.554780 0.279724 0.116385
C30   C     C_R   0.759259 0.383600 0.321769 0.005979
C31   C     C_R   0.456575 0.828006 0.292894 -0.141918
H16   H     H_    0.554891 0.795230 0.319180 0.162256
C32   C     C_R   0.452416 0.832593 0.218636 -0.203013
H17   H     H_    0.547114 0.799934 0.189720 0.116729
C33   C     C_R   0.330264 0.861012 0.182558 0.017718
C34   C     C_R   0.214750 0.876994 0.223143 0.206009
C35   C     C_R   0.213702 0.891470 0.295704 -0.162816
H18   H     H_    0.120827 0.911861 0.324077 0.109443
C36   C     C_R   0.338956 0.848126 0.331309 -0.006110
C37   C     C_R   0.457602 0.298877 0.718120 -0.115793
H19   H     H_    0.560904 0.270322 0.699422 0.143603
C38   C     C_R   0.438579 0.293975 0.790057 -0.128853
H20   H     H_    0.528042 0.256406 0.825820 0.134493
C39   C     C_R   0.306161 0.330526 0.815105 0.025246
C40   C     C_R   0.190881 0.378365 0.768246 -0.128401
H21   H     H_    0.088224 0.404162 0.787378 0.137591
C41   C     C_R   0.210595 0.382400 0.695464 -0.094799
H22   H     H_    0.122876 0.415658 0.658958 0.158304
C42   C     C_R   0.344948 0.339929 0.670484 0.043822
C43   C     C_R   0.782276 0.463805 0.728240 -0.145966
H23   H     H_    0.766330 0.560245 0.704886 0.152494
C44   C     C_R   0.782073 0.457332 0.801031 -0.139319
H24   H     H_    0.767502 0.548640 0.830659 0.137566
C45   C     C_R   0.818165 0.330445 0.834717 0.016130
C46   C     C_R   0.834166 0.215726 0.793948 -0.133308
H25   H     H_    0.862714 0.116300 0.818726 0.168883
C47   C     C_R   0.820386 0.227464 0.719906 -0.123701
H26   H     H_    0.826192 0.141585 0.688994 0.214063
C48   C     C_R   0.797884 0.350823 0.686596 0.009656
C49   C     C_R   0.219272 0.775871 0.723815 0.212034
C50   C     C_R   0.212563 0.798651 0.796602 -0.123609
H27   H     H_    0.119037 0.818557 0.824536 0.171520
C51   C     C_R   0.315236 0.814659 0.832291 -0.014854
C52   C     C_R   0.436754 0.789001 0.797044 -0.144440
H28   H     H_    0.517426 0.801208 0.823972 0.143661
C53   C     C_R   0.450812 0.756684 0.725186 -0.172342
H29   H     H_    0.543660 0.742161 0.698636 0.155654
C54   C     C_R   0.343051 0.751904 0.687139 0.005775
O14   O     O_R   0.186690 0.923650 0.086970 -0.413647
O15   O     O_R   0.957250 0.194250 0.084630 -0.455748
C55   C     C_R   0.910222 0.316167 0.111508 0.531184
O16   O     O_R   0.934970 0.407490 0.085330 -0.546007
O17   O     O_R   0.203780 0.365190 0.067090 -0.486938
C56   C     C_R   0.303641 0.258271 0.101822 0.560112
O18   O     O_R   0.417600 0.174890 0.067840 -0.521124
O19   O     O_R   0.375320 0.946260 0.070860 -0.563741
C57   C     C_R   0.305466 0.900452 0.106561 0.536501
O20   O     O_R   0.160600 0.919630 0.926660 -0.518095
O21   O     O_R   0.933060 0.190520 0.936020 -0.500953
C58   C     C_R   0.879520 0.310586 0.905713 0.542171
O22   O     O_R   0.908880 0.403460 0.925020 -0.528672
O23   O     O_R   0.179600 0.361450 0.918490 -0.499298
C59   C     C_R   0.295049 0.289915 0.886191 0.560323
O24   O     O_R   0.391510 0.170860 0.907530 -0.505958
O25   O     O_R   0.351130 0.942530 0.922260 -0.500984
C60   C     C_R   0.278512 0.888587 0.900014 0.552287
Cr4   Cr    Cr6+3 0.062440 0.063090 0.008210 1.096581
Cr5   Cr    Cr6+3 0.062880 0.375170 0.998920 1.026056
Cr6   Cr    Cr6+3 0.374700 0.061720 0.992470 1.006588
O26   O     O_3   0.166667 0.166667 0.999870 -0.287175
S1    S     S_3+6 0.755366 0.890623 0.456578 0.012105
O27   O     O_2   0.788258 0.831256 0.530633 -0.221981
O28   O     O_2   0.765622 0.021551 0.454788 -0.274482
O29   O     O_3   0.592098 0.928575 0.434042 -0.576220
H30   H     H_    0.530424 0.998600 0.469857 0.371233
N1    N     N_R   0.104326 0.862348 0.191953 0.049489
O30   O     O_R   0.992391 0.975016 0.170068 -0.338116
O31   O     O_R   0.136052 0.741880 0.163305 -0.370078
S2    S     S_3+6 0.060127 0.801987 0.683288 0.025767
O32   O     O_2   0.007555 0.920962 0.631132 -0.218166
O33   O     O_2   0.084037 0.672714 0.644008 -0.261416
O34   O     O_3   0.933975 0.842982 0.744119 -0.552632
H31   H     H_    0.954470 0.751916 0.764652 0.337993

loop_
_geom_bond_atom_site_label_1
_geom_bond_atom_site_label_2
_geom_bond_distance
_ccdc_geom_bond_type
C22   H11   1.069721 S    
O15   C55   1.272265 A    
H1    C12   1.083875 S    
C38   H20   1.084169 S    
C47   C48   1.403399 A    
C52   H28   1.083360 S    
C17   H2    1.083031 S    
O21   Cr4   1.954674 S    
C43   H23   1.081224 S    
O20   C60   1.272992 A    
O4    Cr2   1.957006 S    
C45   C46   1.404707 A    
C14   C23   1.391124 A    
C4    O9    1.279774 A    
O8    Cr1   1.946903 S    
C20   C21   1.389966 A    
O29   H30   0.991033 S    
C44   H24   1.083980 S    
C3    C30   1.443114 S    
C8    H5    1.077376 S    
C40   C41   1.390237 A    
C25   C30   1.398333 A    
O4    C2    1.271834 A    
C51   C60   1.450403 S    
C41   C42   1.395205 A    
C28   C29   1.391878 A    
C5    O11   1.263739 A    
O25   C60   1.278183 A    
C31   C36   1.406465 A    
O21   C58   1.281049 A    
C37   C42   1.402061 A    
C4    C54   1.463975 S    
C31   C32   1.394736 A    
C53   C54   1.402875 A    
O23   Cr5   1.949089 S    
C58   O22   1.266691 A    
C11   C18   1.414142 A    
C35   H18   1.077261 S    
C2    C24   1.480666 S    
C18   H9    1.083968 S    
O19   C57   1.305009 A    
O7    Cr1   2.077420 S    
O17   Cr5   1.962410 S    
C12   C24   1.384055 A    
C33   C34   1.423176 A    
C29   H15   1.078854 S    
C14   H7    1.076698 S    
Cr3   O13   1.984498 S    
C38   C39   1.390797 A    
C19   C24   1.418142 A    
C55   O16   1.270184 A    
O17   C56   1.310955 A    
C43   C44   1.368971 A    
C25   C26   1.384517 A    
O20   Cr4   2.069510 S    
C53   H29   1.079921 S    
Cr5   O26   1.984542 S    
C26   C27   1.399397 A    
O14   C57   1.253058 A    
C29   C30   1.398159 A    
C34   C35   1.369457 A    
C6    C48   1.457299 S    
O10   Cr2   1.948787 S    
C19   C23   1.478965 S    
Cr1   O13   1.993477 S    
O1    C3    1.306488 A    
C8    C9    1.384513 A    
C49   C50   1.382978 A    
C49   S2    1.791017 S    
C41   H22   1.083235 S    
O6    C3    1.301014 A    
C9    C10   1.408748 A    
O5    Cr3   2.084739 S    
O1    Cr1   2.066458 S    
O12   Cr3   1.963650 S    
C7    H4    1.071405 S    
O25   Cr6   1.957137 S    
Cr4   O26   1.991744 S    
C32   C33   1.389531 A    
S2    O33   1.498857 D    
C39   C40   1.406442 A    
N1    O31   1.301994 A    
C12   C13   1.392857 A    
C34   N1    1.425055 S    
C10   C16   1.401471 A    
C5    C42   1.440396 S    
O10   C5    1.275600 A    
C11   C56   1.471614 S    
C7    C8    1.396883 A    
C7    C17   1.382577 A    
C1    C36   1.459100 S    
C31   H16   1.071044 S    
C50   C51   1.393933 A    
O12   C6    1.280935 A    
C39   C59   1.436818 S    
C15   C20   1.389999 A    
C40   H21   1.083459 S    
C43   C48   1.399254 A    
C44   C45   1.400290 A    
Cr2   O13   1.990199 S    
C10   C13   1.494921 S    
O34   H31   0.990876 S    
S2    O34   1.683676 S    
O14   Cr4   2.074319 S    
C27   C28   1.396718 A    
O15   Cr4   1.950076 S    
S1    O28   1.501802 D    
N1    O30   1.299999 A    
O19   Cr6   1.950541 S    
C22   C23   1.394337 A    
C25   H12   1.083530 S    
C37   C38   1.374400 A    
O23   C59   1.268029 A    
C26   H13   1.081129 S    
O9    Cr2   2.073959 S    
O18   Cr6   2.079343 S    
O2    Cr1   1.956969 S    
C46   H25   1.083031 S    
C14   C15   1.403941 A    
O16   Cr5   2.068612 S    
C33   C57   1.477126 S    
C45   C58   1.455682 S    
O6    Cr3   1.947369 S    
O22   Cr5   2.080850 S    
O8    C4    1.320578 A    
C52   C53   1.382230 A    
O11   Cr3   2.066503 S    
C59   O24   1.268301 A    
C2    O5    1.286846 A    
C21   H10   1.065366 S    
C56   O18   1.294278 A    
C32   H17   1.069956 S    
S1    O29   1.680456 S    
C11   C13   1.422242 A    
O2    C1    1.273137 A    
C27   C55   1.443309 S    
C37   H19   1.079502 S    
C28   H14   1.083234 S    
C21   C22   1.398178 A    
O7    C6    1.268579 A    
C50   H27   1.080766 S    
C15   H3    1.077943 S    
C16   C17   1.389984 A    
S2    O32   1.502531 D    
C46   C47   1.396634 A    
C51   C52   1.395283 A    
C20   S1    1.758712 S    
O3    Cr2   2.068991 S    
C47   H26   1.079201 S    
C35   C36   1.380184 A    
O24   Cr6   2.069655 S    
C16   H8    1.053106 S    
Cr6   O26   1.988500 S    
C18   C19   1.399162 A    
C49   C54   1.435231 A    
S1    O27   1.502789 D    
C9    H6    1.083904 S    
C1    O3    1.284961 A    
