data_mof_unit_61076.cif
_audit_creation_date              2012-12-10T18:12:39-0500
_audit_creation_method            fapswitch 2.2
_symmetry_space_group_name_H-M    P1
_symmetry_Int_Tables_number       1
_space_group_crystal_system       triclinic
_cell_length_a                    39.331996
_cell_length_b                    32.236399
_cell_length_c                    21.958949
_cell_angle_alpha                 90.547012
_cell_angle_beta                  124.980689
_cell_angle_gamma                 89.906766
_cell_volume                      22811.1119694

loop_
_atom_site_label
_atom_site_type_symbol
_atom_type_description
_atom_site_fract_x
_atom_site_fract_y
_atom_site_fract_z
_atom_type_partial_charge
C1    C     C_R   0.420415 0.499901 0.420344 0.819481
C2    C     C_R   0.579574 0.500078 0.579673 0.820236
C3    C     C_R   0.920413 0.999901 0.420313 0.817376
C4    C     C_R   0.079580 0.000061 0.579687 0.818415
C5    C     C_R   0.271688 0.536448 0.278689 0.456529
C6    C     C_R   0.727578 0.498694 0.671885 0.455560
C7    C     C_R   0.772044 0.029353 0.305845 0.456918
C8    C     C_R   0.228022 0.024043 0.685646 0.456667
C9    C     C_R   0.293578 0.499147 0.294011 0.013574
C10   C     C_R   0.706365 0.500579 0.705951 0.015347
C11   C     C_R   0.793582 0.998700 0.295066 0.015160
C12   C     C_R   0.206373 0.999106 0.704949 0.014605
C13   C     C_R   0.271869 0.461613 0.265311 -0.292502
C14   C     C_R   0.728721 0.502952 0.783495 -0.292351
C15   C     C_R   0.771552 0.967164 0.242106 -0.294215
C16   C     C_R   0.228268 0.973015 0.766504 -0.293513
C17   C     C_1   0.161459 0.499095 0.163057 -0.029689
C18   C     C_1   0.838505 0.500232 0.837204 -0.031718
C19   C     C_1   0.661455 0.998739 0.163374 -0.029130
C20   C     C_1   0.338507 0.998960 0.836505 -0.029237
C21   C     C_1   0.338381 0.499287 0.338617 0.011066
C22   C     C_1   0.661582 0.500351 0.661563 0.009882
C23   C     C_1   0.838375 0.999170 0.338928 0.011706
C24   C     C_1   0.161595 0.999710 0.661100 0.010899
C25   C     C_1   0.375829 0.499603 0.375890 -0.170607
C26   C     C_1   0.624142 0.500237 0.624235 -0.171008
C27   C     C_1   0.875824 0.999593 0.375953 -0.170993
C28   C     C_1   0.124157 0.000066 0.624062 -0.170858
C29   C     C_1   0.124010 0.499620 0.125363 -0.177531
C30   C     C_1   0.875965 0.500111 0.874550 -0.178355
C31   C     C_1   0.624008 0.999444 0.125485 -0.177246
C32   C     C_1   0.375968 0.999568 0.874411 -0.177236
C33   C     C_R   0.499914 0.420400 0.999814 0.827067
C34   C     C_R   0.999914 0.920400 0.999814 0.827288
C35   C     C_R   0.499421 0.496248 0.881853 0.831882
C36   C     C_R   0.500606 0.503716 0.118201 0.830900
C37   C     C_R   0.999416 0.996260 0.881844 0.832304
C38   C     C_R   0.000612 0.003697 0.118205 0.830426
C39   C     C_R   0.500087 0.579589 0.000203 0.826309
C40   C     C_R   0.000093 0.079585 0.000214 0.827035
C41   C     C_R   0.502799 0.500363 0.620296 0.852465
C42   C     C_R   0.497059 0.499625 0.379582 0.851834
C43   C     C_R   0.002813 0.000363 0.620308 0.850030
C44   C     C_R   0.997024 0.999626 0.379550 0.850164
C45   C     C_R   0.000033 0.420630 0.999790 0.820837
C46   C     C_R   0.500018 0.920634 0.999774 0.820153
C47   C     C_R   0.079423 0.499980 0.079850 0.819878
C48   C     C_R   0.920569 0.499996 0.920123 0.819498
C49   C     C_R   0.579423 0.999957 0.079866 0.820349
C50   C     C_R   0.420570 0.999969 0.920115 0.820275
C51   C     C_R   0.999996 0.579493 0.000242 0.822082
C52   C     C_R   0.499997 0.079493 0.000243 0.823753
C53   C     C_R   0.001203 0.728728 0.056895 -0.174973
C54   C     C_R   0.998172 0.727750 0.943491 -0.175303
C55   C     C_R   0.499276 0.228717 0.054947 -0.172876
C56   C     C_R   0.500107 0.227760 0.945427 -0.172222
C57   C     C_R   0.999729 0.706374 0.000343 0.152333
C58   C     C_R   0.499736 0.206375 0.000342 0.151651
C59   C     C_R   0.500040 0.271200 0.945139 -0.174949
C60   C     C_R   0.499211 0.272158 0.054661 -0.173144
C61   C     C_R   0.998109 0.771189 0.943208 -0.177030
C62   C     C_R   0.001141 0.772168 0.056613 -0.175649
C63   C     C_R   0.499600 0.293540 0.999765 0.154293
C64   C     C_R   0.999602 0.793540 0.999778 0.155225
C65   C     C_1   0.999835 0.661599 0.000629 -0.068037
C66   C     C_1   0.499839 0.161599 0.000629 -0.064989
C67   C     C_1   0.499638 0.338311 0.999600 -0.065956
C68   C     C_1   0.999640 0.838311 0.999609 -0.068399
C69   C     C_1   0.499730 0.375782 0.999611 -0.173366
C70   C     C_1   0.999730 0.875781 0.999615 -0.175522
C71   C     C_2   0.531450 0.484387 0.815306 -0.182267
C72   C     C_2   0.468669 0.516161 0.184808 -0.182702
C73   C     C_2   0.031421 0.984305 0.815276 -0.181889
C74   C     C_2   0.968732 0.016223 0.184867 -0.183340
C75   C     C_1   0.999919 0.624124 0.000640 -0.167994
C76   C     C_1   0.499922 0.124123 0.000642 -0.165297
C77   C     C_R   0.962191 0.271500 0.958633 0.139960
C78   C     C_R   0.038629 0.272013 0.041287 0.142156
C79   C     C_R   0.462489 0.771647 0.969717 0.140990
C80   C     C_R   0.538088 0.771926 0.030159 0.141680
C81   C     C_R   0.000375 0.293569 0.999747 0.026417
C82   C     C_R   0.500256 0.793592 0.999701 0.025636
C83   C     C_R   0.537435 0.728175 0.029924 -0.171614
C84   C     C_R   0.463240 0.727907 0.970606 -0.170892
C85   C     C_R   0.037979 0.228254 0.040887 -0.170348
C86   C     C_R   0.962963 0.227768 0.959759 -0.170019
C87   C     C_R   0.500357 0.706431 0.000406 0.048716
C88   C     C_R   0.000491 0.206406 0.000485 0.048948
C89   C     C_1   0.000282 0.338623 0.999492 -0.091457
C90   C     C_1   0.500194 0.838638 0.999432 -0.092523
C91   C     C_1   0.500360 0.661645 0.000538 -0.045209
C92   C     C_1   0.000472 0.161628 0.000634 -0.044609
C93   C     C_1   0.500276 0.624187 0.000470 -0.176116
C94   C     C_1   0.000322 0.124174 0.000516 -0.175921
C95   C     C_1   0.000167 0.376067 0.999452 -0.171914
C96   C     C_1   0.500112 0.876077 0.999402 -0.173370
C97   C     C_2   0.496847 0.484418 0.814372 -0.032613
C98   C     C_2   0.503344 0.515255 0.185977 -0.031429
C99   C     C_2   0.996810 0.984476 0.814313 -0.031379
C100  C     C_2   0.003388 0.015209 0.186012 -0.030555
C101  C     C_2   0.530363 0.476259 0.747925 0.164684
C102  C     C_2   0.469797 0.524189 0.252269 0.167963
C103  C     C_2   0.030314 0.976177 0.747876 0.168416
C104  C     C_2   0.969950 0.024357 0.252373 0.166768
C105  C     C_2   0.507655 0.502652 0.691173 -0.413890
C106  C     C_2   0.491907 0.497306 0.308441 -0.416245
C107  C     C_2   0.007714 0.002657 0.691224 -0.414348
C108  C     C_2   0.991772 0.997284 0.308320 -0.416729
C109  C     C_R   0.228225 0.460643 0.221982 0.176963
C110  C     C_R   0.772357 0.502863 0.828122 0.174964
C111  C     C_R   0.727909 0.966052 0.198584 0.176923
C112  C     C_R   0.271894 0.971851 0.810199 0.176782
C113  C     C_R   0.206304 0.498200 0.207791 0.065181
C114  C     C_R   0.793656 0.500370 0.793746 0.062422
C115  C     C_R   0.706297 0.997593 0.208269 0.065203
C116  C     C_R   0.293644 0.997878 0.791857 0.064067
C117  C     C_R   0.228193 0.535665 0.236626 -0.311254
C118  C     C_R   0.771116 0.498067 0.716054 -0.308951
C119  C     C_R   0.728504 0.028996 0.261504 -0.312346
C120  C     C_R   0.271559 0.023788 0.729954 -0.309936
Cu1   Cu    Cu3+1 0.500000 0.541020 0.500000 0.943278
Cu2   Cu    Cu3+1 0.000000 0.041020 0.500000 0.956088
Cu3   Cu    Cu3+1 0.500000 0.458980 0.500000 0.946951
Cu4   Cu    Cu3+1 0.000000 0.958980 0.500000 0.937360
Cu5   Cu    Cu3+1 0.541020 0.500000 0.040980 0.943671
Cu6   Cu    Cu3+1 0.458980 0.500000 0.959020 0.944858
Cu7   Cu    Cu3+1 0.041020 0.000000 0.040980 0.941482
Cu8   Cu    Cu3+1 0.958980 0.000000 0.959020 0.941451
Cu9   Cu    Cu3+1 0.000010 0.500040 0.061000 0.958698
Cu10  Cu    Cu3+1 0.999990 0.500040 0.939000 0.958196
Cu11  Cu    Cu3+1 0.500010 0.000040 0.061000 0.957458
Cu12  Cu    Cu3+1 0.499990 0.000040 0.939000 0.958458
H1    H     H_    0.561305 0.492354 0.865943 0.154284
H2    H     H_    0.438655 0.509157 0.133775 0.154662
H3    H     H_    0.061307 0.992125 0.865968 0.154955
H4    H     H_    0.938685 0.009281 0.133859 0.154474
H5    H     H_    0.002414 0.712597 0.101155 0.138102
H6    H     H_    0.997024 0.710854 0.899454 0.137593
H7    H     H_    0.498984 0.212577 0.097696 0.138935
H8    H     H_    0.500462 0.210870 0.902905 0.138760
H9    H     H_    0.435170 0.709982 0.948276 0.157840
H10   H     H_    0.565542 0.710453 0.052507 0.157349
H11   H     H_    0.934590 0.209748 0.929186 0.157673
H12   H     H_    0.066402 0.210609 0.071743 0.157520
H13   H     H_    0.493434 0.529284 0.699001 0.150243
H14   H     H_    0.505553 0.470368 0.300030 0.150251
H15   H     H_    0.993601 0.029350 0.699156 0.148528
H16   H     H_    0.005100 0.970164 0.299636 0.147928
H17   H     H_    0.289035 0.433009 0.277030 0.158590
H18   H     H_    0.712064 0.504532 0.809247 0.156016
H19   H     H_    0.788475 0.943326 0.234890 0.157077
H20   H     H_    0.211252 0.953422 0.780281 0.156219
H21   H     H_    0.211518 0.564470 0.226243 0.162750
H22   H     H_    0.787289 0.495773 0.689492 0.164657
H23   H     H_    0.712053 0.053413 0.268637 0.163339
H24   H     H_    0.288092 0.043956 0.715941 0.164390
H25   H     H_    0.498878 0.289050 0.097206 0.137033
H26   H     H_    0.500351 0.287344 0.902410 0.135455
H27   H     H_    0.002312 0.789066 0.100672 0.135719
H28   H     H_    0.996919 0.787323 0.898968 0.134627
O1    O     O_R   0.440150 0.534640 0.440170 -0.581363
O2    O     O_R   0.559850 0.534640 0.559830 -0.582336
O3    O     O_R   0.940150 0.034640 0.440170 -0.578125
O4    O     O_R   0.059850 0.034640 0.559830 -0.570389
O5    O     O_R   0.059850 0.500040 0.111340 -0.578309
O6    O     O_R   0.940150 0.500040 0.888660 -0.578930
O7    O     O_R   0.559850 0.000040 0.111340 -0.580184
O8    O     O_R   0.440150 0.000040 0.888660 -0.579804
O9    O     O_R   0.059840 0.499970 0.008270 -0.579963
O10   O     O_R   0.940160 0.499970 0.991730 -0.579694
O11   O     O_R   0.559840 0.999970 0.008270 -0.578758
O12   O     O_R   0.440160 0.999970 0.991730 -0.579139
O13   O     O_R   0.000010 0.559880 0.051460 -0.579602
O14   O     O_R   0.999990 0.559880 0.948540 -0.579770
O15   O     O_R   0.500010 0.059880 0.051460 -0.579426
O16   O     O_R   0.499990 0.059880 0.948540 -0.578882
O17   O     O_R   0.440150 0.465360 0.440130 -0.581456
O18   O     O_R   0.559850 0.465360 0.559870 -0.580570
O19   O     O_R   0.940150 0.965360 0.440130 -0.582744
O20   O     O_R   0.059850 0.965360 0.559870 -0.589900
O21   O     O_R   0.500010 0.534640 0.589030 -0.578681
O22   O     O_R   0.499990 0.534640 0.410970 -0.593468
O23   O     O_R   0.000010 0.034640 0.589030 -0.578516
O24   O     O_R   0.999990 0.034640 0.410970 -0.591343
O25   O     O_R   0.500010 0.465360 0.588990 -0.592173
O26   O     O_R   0.499990 0.465360 0.411010 -0.578218
O27   O     O_R   0.000010 0.965360 0.588990 -0.593113
O28   O     O_R   0.999990 0.965360 0.411010 -0.581046
O29   O     O_R   0.534640 0.440150 0.034560 -0.577589
O30   O     O_R   0.465360 0.440150 0.965440 -0.585093
O31   O     O_R   0.034640 0.940150 0.034560 -0.578600
O32   O     O_R   0.965360 0.940150 0.965440 -0.585475
O33   O     O_R   0.534630 0.500000 0.945560 -0.597912
O34   O     O_R   0.465370 0.500000 0.054440 -0.597882
O35   O     O_R   0.034630 0.000000 0.945560 -0.597479
O36   O     O_R   0.965370 0.000000 0.054440 -0.597572
O37   O     O_R   0.465350 0.500000 0.876310 -0.583508
O38   O     O_R   0.534650 0.500000 0.123690 -0.583600
O39   O     O_R   0.965350 0.000000 0.876310 -0.584537
O40   O     O_R   0.034650 0.000000 0.123690 -0.584670
O41   O     O_R   0.534640 0.559850 0.034640 -0.586687
O42   O     O_R   0.465360 0.559850 0.965360 -0.578854
O43   O     O_R   0.034640 0.059850 0.034640 -0.585925
O44   O     O_R   0.965360 0.059850 0.965360 -0.579424
O45   O     O_R   0.000000 0.440190 0.051560 -0.579347
O46   O     O_R   0.000000 0.440190 0.948440 -0.579395
O47   O     O_R   0.500000 0.940190 0.051560 -0.579987
O48   O     O_R   0.500000 0.940190 0.948440 -0.580033
C121  C     C_3   0.921576 0.295581 0.914607 -0.377967
C122  C     C_3   0.881795 0.269533 0.871826 -0.859079
H29   H     H_    0.881176 0.249498 0.829764 0.252940
H30   H     H_    0.879145 0.250275 0.910612 0.252414
H31   H     H_    0.854545 0.290454 0.842274 0.249798
H32   H     H_    0.919909 0.316273 0.953601 0.209211
H33   H     H_    0.921927 0.315495 0.873916 0.210445
C123  C     C_3   0.079161 0.296667 0.084999 -0.379221
C124  C     C_3   0.119034 0.271187 0.128321 -0.866560
H34   H     H_    0.119677 0.251960 0.170673 0.253752
H35   H     H_    0.121802 0.251164 0.089930 0.253960
H36   H     H_    0.146203 0.292496 0.157567 0.244608
H37   H     H_    0.080802 0.316602 0.045717 0.209057
H38   H     H_    0.078702 0.317367 0.125301 0.209280
C125  C     C_3   0.422346 0.795880 0.937559 -0.377779
C126  C     C_3   0.382994 0.770009 0.906517 -0.867468
H39   H     H_    0.376911 0.749939 0.859822 0.254131
H40   H     H_    0.385787 0.750796 0.950894 0.252250
H41   H     H_    0.356093 0.791055 0.885011 0.247259
H42   H     H_    0.426046 0.816645 0.981724 0.208716
H43   H     H_    0.417364 0.815739 0.892006 0.208868
C127  C     C_3   0.578194 0.796461 0.062163 -0.378117
C128  C     C_3   0.617656 0.770877 0.094137 -0.869309
H44   H     H_    0.623565 0.751672 0.141001 0.253274
H45   H     H_    0.615131 0.750825 0.050283 0.253305
H46   H     H_    0.644542 0.792114 0.115647 0.245253
H47   H     H_    0.574587 0.816326 0.017711 0.209171
H48   H     H_    0.582973 0.817233 0.107189 0.208628
C129  C     C_3   0.455169 0.467816 0.748305 -0.373067
C130  C     C_3   0.445987 0.424944 0.764901 -0.813304
H49   H     H_    0.470880 0.402902 0.777198 0.247581
H50   H     H_    0.443710 0.426239 0.812973 0.260546
H51   H     H_    0.416008 0.413197 0.715747 0.237702
H52   H     H_    0.430044 0.489613 0.735689 0.207865
H53   H     H_    0.453504 0.464641 0.696493 0.218485
C131  C     C_3   0.545471 0.530512 0.252860 -0.375079
C132  C     C_3   0.555918 0.573333 0.238404 -0.814694
H54   H     H_    0.558117 0.572459 0.190232 0.261087
H55   H     H_    0.531713 0.595988 0.227337 0.249779
H56   H     H_    0.586250 0.583991 0.288091 0.234210
H57   H     H_    0.547245 0.533218 0.304815 0.216285
H58   H     H_    0.569992 0.508126 0.264512 0.207647
C133  C     C_3   0.955060 0.968075 0.748131 -0.376502
C134  C     C_3   0.945711 0.925197 0.764408 -0.817211
H59   H     H_    0.970504 0.903072 0.776490 0.248062
H60   H     H_    0.943467 0.926413 0.812520 0.261014
H61   H     H_    0.915675 0.913608 0.715187 0.234890
H62   H     H_    0.930023 0.989952 0.735685 0.204482
H63   H     H_    0.953364 0.964990 0.696280 0.216684
C135  C     C_3   0.045547 0.030383 0.252913 -0.377943
C136  C     C_3   0.055903 0.073330 0.238748 -0.811832
H64   H     H_    0.057949 0.072684 0.190397 0.260208
H65   H     H_    0.031726 0.095909 0.228090 0.250778
H66   H     H_    0.086283 0.083916 0.288403 0.235789
H67   H     H_    0.047421 0.032820 0.304991 0.216666
H68   H     H_    0.070064 0.008085 0.264233 0.203991
C137  C     C_3   0.555507 0.441378 0.745067 -0.326321
C138  C     C_3   0.582387 0.417701 0.817867 -0.857143
H69   H     H_    0.605799 0.438742 0.863018 0.248926
H70   H     H_    0.562783 0.403662 0.833784 0.259028
H71   H     H_    0.599022 0.392414 0.810621 0.243232
H72   H     H_    0.533934 0.418739 0.701122 0.219131
H73   H     H_    0.576125 0.454407 0.730534 0.192003
C139  C     C_3   0.445356 0.559585 0.255837 -0.324991
C140  C     C_3   0.418753 0.583642 0.183410 -0.866361
H74   H     H_    0.438483 0.597302 0.167458 0.260620
H75   H     H_    0.394935 0.562963 0.138061 0.248815
H76   H     H_    0.402607 0.609237 0.191189 0.240762
H77   H     H_    0.424605 0.547005 0.270420 0.191446
H78   H     H_    0.467387 0.581885 0.300012 0.218756
C141  C     C_3   0.055305 0.941177 0.744882 -0.325882
C142  C     C_3   0.082099 0.917409 0.817600 -0.862936
H79   H     H_    0.105599 0.938365 0.862812 0.249855
H80   H     H_    0.062448 0.903463 0.833490 0.259404
H81   H     H_    0.098628 0.892046 0.810258 0.241092
H82   H     H_    0.033632 0.918615 0.700875 0.218054
H83   H     H_    0.075967 0.954101 0.730367 0.192284
C143  C     C_3   0.946059 0.060194 0.256294 -0.323862
C144  C     C_3   0.919916 0.084578 0.184139 -0.852638
H84   H     H_    0.939920 0.097847 0.168472 0.258589
H85   H     H_    0.895811 0.064233 0.138499 0.249272
H86   H     H_    0.904146 0.110483 0.192124 0.245406
H87   H     H_    0.925074 0.048017 0.270643 0.195675
H88   H     H_    0.968422 0.082191 0.300741 0.219866
C145  C     C_3   0.205940 0.419482 0.191401 -0.399562
C146  C     C_3   0.190729 0.403053 0.236857 -0.809888
H89   H     H_    0.217362 0.398762 0.295610 0.253737
H90   H     H_    0.168234 0.424771 0.235000 0.257041
H91   H     H_    0.175071 0.372624 0.213702 0.235134
H92   H     H_    0.179314 0.422769 0.132335 0.202602
H93   H     H_    0.226970 0.395998 0.192329 0.195679
C147  C     C_3   0.795294 0.505256 0.911738 -0.398077
C148  C     C_3   0.810699 0.462584 0.946544 -0.800211
H94   H     H_    0.784112 0.440779 0.923884 0.250498
H95   H     H_    0.832860 0.449904 0.935280 0.256157
H96   H     H_    0.826782 0.465181 0.007658 0.237979
H97   H     H_    0.821876 0.527202 0.935748 0.205113
H98   H     H_    0.774639 0.517476 0.927012 0.193964
C149  C     C_3   0.705272 0.931411 0.142020 -0.390822
C150  C     C_3   0.689431 0.898660 0.169949 -0.826269
H99   H     H_    0.715770 0.885177 0.222620 0.251687
H100  H     H_    0.666938 0.912288 0.179579 0.254472
H101  H     H_    0.673587 0.873398 0.127838 0.237844
H102  H     H_    0.678931 0.944161 0.088517 0.205973
H103  H     H_    0.726215 0.915995 0.130129 0.195299
C151  C     C_3   0.294361 0.943008 0.875972 -0.390143
C152  C     C_3   0.309735 0.904357 0.858121 -0.825489
H104  H     H_    0.283178 0.887376 0.809916 0.251077
H105  H     H_    0.332247 0.912762 0.845094 0.253891
H106  H     H_    0.325415 0.883497 0.906843 0.238977
H107  H     H_    0.320913 0.959433 0.925141 0.206754
H108  H     H_    0.273412 0.932961 0.891814 0.194905
O49   O     O_3   0.292894 0.573472 0.308399 -0.567571
C153  C     C_3   0.294030 0.594258 0.253292 0.059191
H109  H     H_    0.262285 0.603946 0.206889 0.138942
H110  H     H_    0.307708 0.574257 0.230859 0.135815
C154  C     C_3   0.320965 0.632918 0.287367 -0.762700
H111  H     H_    0.353042 0.624142 0.333274 0.252440
H112  H     H_    0.321994 0.649620 0.244442 0.192117
H113  H     H_    0.307979 0.653898 0.309568 0.250212
O50   O     O_3   0.705757 0.494752 0.595530 -0.568667
C155  C     C_3   0.701946 0.534391 0.565509 0.061095
H114  H     H_    0.732840 0.546266 0.582539 0.139491
H115  H     H_    0.687724 0.556926 0.583536 0.137508
C156  C     C_3   0.673940 0.531284 0.481096 -0.770720
H116  H     H_    0.642675 0.519969 0.462464 0.246062
H117  H     H_    0.670782 0.562287 0.456772 0.193753
H118  H     H_    0.687418 0.509461 0.460944 0.251078
O51   O     O_3   0.793533 0.061181 0.356599 -0.567514
C157  C     C_3   0.796310 0.052185 0.422094 0.059035
H119  H     H_    0.810753 0.021259 0.444323 0.135470
H120  H     H_    0.765047 0.052833 0.411603 0.140252
C158  C     C_3   0.823392 0.084803 0.481044 -0.764226
H121  H     H_    0.809628 0.116045 0.461155 0.251979
H122  H     H_    0.825766 0.078089 0.532865 0.192446
H123  H     H_    0.855006 0.084528 0.493346 0.250902
O52   O     O_3   0.206697 0.050595 0.626024 -0.567207
C159  C     C_3   0.202029 0.031213 0.563705 0.061861
H124  H     H_    0.187132 0.000055 0.552484 0.135148
H125  H     H_    0.232691 0.027892 0.572293 0.140633
C160  C     C_3   0.174330 0.057797 0.495517 -0.771183
H126  H     H_    0.188470 0.088992 0.504194 0.252075
H127  H     H_    0.170500 0.042900 0.446106 0.192675
H128  H     H_    0.143296 0.061208 0.485099 0.250290

loop_
_geom_bond_atom_site_label_1
_geom_bond_atom_site_label_2
_ccdc_geom_bond_type
C153  H110  S    
C87   C91   S    
C125  C126  S    
Cu7   O40   S    
C15   H19   S    
O51   C157  S    
C156  H116  S    
Cu10  O14   S    
C41   C105  S    
C143  H87   S    
C53   H5    S    
C134  H60   S    
C7    O51   S    
C56   H8    S    
C86   C88   A    
C156  H118  S    
C153  C154  S    
C140  H76   S    
C55   H7    S    
C131  C132  S    
C33   O29   A    
C9    C13   A    
C62   C64   A    
C11   C15   A    
C73   H3    S    
C139  C140  S    
C74   H4    S    
C144  H85   S    
C127  H48   S    
C98   C131  S    
C150  H101  S    
C33   C69   S    
C132  H54   S    
C151  H108  S    
Cu9   O13   S    
C80   C83   A    
C85   H12   S    
C83   H10   S    
C86   H11   S    
C111  C115  A    
C130  H50   S    
C155  H114  S    
C7    C119  A    
C38   C100  S    
C57   C65   S    
C74   C100  D    
C151  C152  S    
C148  H94   S    
C42   O22   A    
Cu3   O25   S    
C137  H72   S    
Cu7   O35   S    
Cu5   O33   S    
Cu1   O1    S    
C92   C94   T    
C2    C26   S    
C142  H79   S    
C42   C106  S    
C52   O15   A    
C155  H115  S    
C129  H52   S    
C122  H30   S    
C117  H21   S    
C38   O40   A    
C147  C148  S    
C49   O11   A    
C148  H96   S    
C139  H78   S    
C135  H68   S    
C80   C127  S    
C136  H65   S    
C54   C61   A    
C97   C129  S    
C59   C63   A    
C56   C59   A    
C34   O32   A    
Cu8   O39   S    
C9    C21   S    
C133  H62   S    
C109  C145  S    
C47   O5    A    
C43   O23   A    
C128  H46   S    
C36   O34   A    
Cu1   Cu3   S    
Cu6   O42   S    
C73   C103  S    
C46   C96   S    
O49   C153  S    
C132  H56   S    
C103  C107  D    
C104  C143  S    
C134  H59   S    
C108  H16   S    
C147  H97   S    
C45   O46   A    
Cu11  O47   S    
C2    O2    A    
C17   C113  S    
C46   O48   A    
C71   C97   D    
C121  H33   S    
C29   C47   S    
C37   O35   A    
C30   C48   S    
Cu8   O44   S    
C79   C84   A    
C59   H26   S    
Cu10  O9    S    
Cu2   O4    S    
C149  H102  S    
C11   C23   S    
C145  H92   S    
C154  H112  S    
C13   C109  A    
C40   O44   A    
C110  C114  A    
Cu11  O7    S    
C129  C130  S    
C154  H111  S    
C47   O9    A    
C150  H100  S    
C158  H122  S    
C131  H57   S    
C12   C16   A    
Cu9   O10   S    
C60   H25   S    
C80   C82   A    
C10   C14   A    
C61   H28   S    
Cu4   O28   S    
C124  H34   S    
Cu7   O31   S    
C116  C120  A    
C110  C147  S    
Cu8   O32   S    
C51   O14   A    
C5    C9    A    
C145  C146  S    
Cu10  O46   S    
C159  H125  S    
C8    C12   A    
C121  C122  S    
C138  H70   S    
C134  H61   S    
C113  C117  A    
C78   C85   A    
Cu2   O23   S    
Cu5   O38   S    
C160  H128  S    
C157  H120  S    
C50   O8    A    
C39   O42   A    
Cu2   Cu4   S    
C45   C95   S    
C112  C116  A    
C35   O37   A    
C159  C160  S    
C74   C104  S    
Cu9   Cu10  S    
C20   C32   T    
C85   C88   A    
C151  H107  S    
C14   C110  A    
C21   C25   T    
C152  H106  S    
C24   C28   T    
C40   C94   S    
C52   C76   S    
C138  H71   S    
C79   C82   A    
C90   C96   T    
C122  H31   S    
C12   C24   S    
C115  C119  A    
C143  H88   S    
C3    C27   S    
C135  C136  S    
C72   C102  S    
C140  H75   S    
C38   O36   A    
C118  H22   S    
C5    O49   S    
Cu1   O22   S    
C36   C98   S    
C2    O18   A    
C54   C57   A    
C83   C87   A    
C17   C29   T    
C142  H81   S    
Cu3   O17   S    
C19   C31   T    
C126  H39   S    
C133  C134  S    
C10   C22   S    
C124  H36   S    
C130  H51   S    
Cu5   O41   S    
C160  H126  S    
C102  C139  S    
C141  H83   S    
C31   C49   S    
Cu3   O18   S    
C146  H89   S    
C120  H24   S    
Cu12  O16   S    
C123  H37   S    
C39   C93   S    
Cu4   O19   S    
C155  C156  S    
C141  C142  S    
C149  H103  S    
C34   C70   S    
C3    O3    A    
C81   C89   S    
C156  H117  S    
C153  H109  S    
C71   C101  S    
C1    O1    A    
C152  H104  S    
C55   C60   A    
C41   O21   A    
C4    O20   A    
C148  H95   S    
C112  C151  S    
C100  C135  S    
Cu11  O12   S    
C129  H53   S    
C149  C150  S    
Cu8   O36   S    
C146  H91   S    
C53   C57   A    
C33   O30   A    
C89   C95   T    
C61   C64   A    
C111  C149  S    
C91   C93   T    
Cu9   O45   S    
Cu10  O6    S    
C72   H2    S    
C144  H84   S    
C77   C81   A    
C105  H13   S    
C14   H18   S    
C144  H86   S    
C127  H47   S    
C128  H45   S    
C43   C107  S    
C141  H82   S    
C79   C125  S    
C48   O10   A    
C99   C133  S    
C132  H55   S    
Cu5   Cu6   S    
Cu7   Cu8   S    
C157  C158  S    
C126  H41   S    
C64   C68   S    
C104  C108  D    
C16   C112  A    
Cu1   O21   S    
C147  H98   S    
C101  C137  S    
C130  H49   S    
C45   O45   A    
C51   C75   S    
C106  H14   S    
C6    C10   A    
C121  H32   S    
C82   C90   S    
Cu9   O5    S    
Cu3   O26   S    
C137  H73   S    
C133  H63   S    
C78   C81   A    
C84   H9    S    
Cu1   O2    S    
Cu11  O15   S    
C127  C128  S    
C35   O33   A    
C48   O6    A    
C22   C26   T    
C55   C58   A    
Cu7   O43   S    
C125  H43   S    
C139  H77   S    
O50   C155  S    
C135  H67   S    
C84   C87   A    
C103  C141  S    
C136  H66   S    
C18   C114  S    
C72   C98   D    
C158  H121  S    
C7    C11   A    
C131  H58   S    
C60   C63   A    
C34   O31   A    
C142  H80   S    
C49   O7    A    
C122  H29   S    
C143  C144  S    
C107  H15   S    
C6    O50   S    
Cu6   O30   S    
C51   O13   A    
Cu6   O34   S    
C3    O19   A    
C1    O17   A    
C58   C66   S    
C88   C92   S    
C56   C58   A    
C4    O4    A    
C18   C30   T    
Cu12  O11   S    
C23   C27   T    
C137  C138  S    
C44   O24   A    
C77   C121  S    
C42   O26   A    
Cu2   O24   S    
C66   C76   T    
C160  H127  S    
C1    C25   S    
C4    C28   S    
C44   C108  S    
C101  C105  D    
C46   O47   A    
C63   C67   S    
C152  H105  S    
C15   C111  A    
C123  C124  S    
C16   H20   S    
C78   C123  S    
C20   C116  S    
C125  H42   S    
C8    O52   S    
Cu2   O3    S    
C5    C117  A    
C67   C69   T    
C145  H93   S    
C154  H113  S    
C53   C62   A    
C40   O43   A    
C19   C115  S    
C140  H74   S    
C41   O25   A    
C32   C50   S    
C114  C118  A    
C44   O28   A    
Cu6   O37   S    
C77   C86   A    
Cu12  O48   S    
C136  H64   S    
C37   C99   S    
C150  H99   S    
C8    C120  A    
C158  H123  S    
C73   C99   D    
C119  H23   S    
C62   H27   S    
Cu12  O8    S    
C126  H40   S    
C43   O27   A    
C71   H1    S    
Cu4   O27   S    
C50   O12   A    
C109  C113  A    
C124  H35   S    
C65   C75   T    
C39   O41   A    
C13   H17   S    
C146  H90   S    
C159  H124  S    
C54   H6    S    
C102  C106  D    
C37   O39   A    
C36   O38   A    
C123  H38   S    
Cu4   O20   S    
C138  H69   S    
C68   C70   T    
C157  H119  S    
C128  H44   S    
C52   O16   A    
Cu5   O29   S    
O52   C159  S    
C35   C97   S    
C6    C118  A    
Cu11  Cu12  S    
