data_mof_unit_41763.cif
_audit_creation_date              2012-12-11T15:39:36-0500
_audit_creation_method            fapswitch 2.2
_symmetry_space_group_name_H-M    P1
_symmetry_Int_Tables_number       1
_space_group_crystal_system       triclinic
_cell_length_a                    17.468581
_cell_length_b                    24.413048
_cell_length_c                    15.008861
_cell_angle_alpha                 90.054553
_cell_angle_beta                  125.046299
_cell_angle_gamma                 89.936455
_cell_volume                      5240.17325488

loop_
_atom_site_label
_atom_site_type_symbol
_atom_type_description
_atom_site_fract_x
_atom_site_fract_y
_atom_site_fract_z
_atom_type_partial_charge
C1    C     C_R   0.353684 0.347561 0.910147 -0.116780
C2    C     C_R   0.661588 0.353483 0.092599 -0.049826
C3    C     C_R   0.849339 0.849045 0.908748 -0.101290
C4    C     C_R   0.190389 0.878417 0.092016 -0.099791
C5    C     C_R   0.380919 0.683182 0.004803 -0.136333
C6    C     C_R   0.686820 0.637083 0.000491 -0.025249
C7    C     C_R   0.812445 0.136599 0.998158 -0.045923
C8    C     C_R   0.188288 0.136594 0.001863 -0.003641
C9    C     C_R   0.474493 0.502508 0.302484 -0.216076
C10   C     C_R   0.420314 0.501446 0.627201 -0.092292
C11   C     C_R   0.024398 0.999405 0.342374 -0.273777
C12   C     C_R   0.920096 0.999579 0.628653 -0.140557
C13   C     C_R   0.175306 0.500604 0.718254 -0.283597
C14   C     C_R   0.804065 0.500490 0.361032 -0.212815
C15   C     C_R   0.688135 0.998785 0.646968 -0.228203
C16   C     C_R   0.300368 0.001017 0.365116 -0.178054
C17   C     C_R   0.047018 0.538784 0.550186 -0.100590
C18   C     C_R   0.955920 0.539910 0.464487 0.033545
C19   C     C_R   0.546332 0.023027 0.474584 -0.119089
C20   C     C_R   0.451016 0.025611 0.408234 -0.020276
C21   C     C_R   0.077068 0.504049 0.637698 0.103891
C22   C     C_R   0.892851 0.504481 0.461919 0.105289
C23   C     C_R   0.589576 0.998965 0.575945 0.082864
C24   C     C_R   0.398108 0.003912 0.442403 0.109175
C25   C     C_R   0.011633 0.474743 0.644661 -0.187606
C26   C     C_R   0.918015 0.474793 0.555168 -0.143293
C27   C     C_R   0.537620 0.983208 0.616475 -0.168515
C28   C     C_R   0.440713 0.985462 0.548762 -0.125319
C29   C     C_3   0.979510 0.548151 0.383510 0.191241
C30   C     C_3   0.082115 0.547206 0.480245 0.289510
C31   C     C_3   0.447515 0.013483 0.307778 0.182764
C32   C     C_3   0.554271 0.010627 0.382190 0.325469
C33   C     C_R   0.306350 0.771956 0.916703 -0.164719
C34   C     C_R   0.749836 0.727126 0.057358 -0.158286
C35   C     C_R   0.774267 0.230748 0.956835 -0.146248
C36   C     C_R   0.258790 0.224994 0.064604 -0.166805
C37   C     C_R   0.735630 0.277896 0.961881 -0.241948
C38   C     C_R   0.306403 0.268746 0.063179 -0.167812
C39   C     C_R   0.261199 0.819380 0.914344 -0.192530
C40   C     C_R   0.796501 0.771276 0.055721 -0.163866
C41   C     C_R   0.682349 0.276239 0.003190 -0.009184
C42   C     C_R   0.345940 0.265852 0.004908 -0.109853
C43   C     C_R   0.270180 0.837353 0.008904 0.060543
C44   C     C_R   0.839713 0.767841 0.001743 -0.108109
C45   C     C_R   0.449240 0.652650 0.091878 0.618098
C46   C     C_R   0.597846 0.625311 0.909281 0.559336
C47   C     C_R   0.901280 0.125449 0.089551 0.535495
C48   C     C_R   0.099061 0.125395 0.910443 0.550095
C49   C     C_R   0.664666 0.227877 0.038928 0.487553
C50   C     C_R   0.342182 0.217251 0.951040 0.503789
C51   C     C_R   0.341088 0.813697 0.108434 0.467803
C52   C     C_R   0.840139 0.718816 0.951750 0.498811
C53   C     C_R   0.367153 0.759882 0.107032 0.154714
C54   C     C_R   0.792748 0.673617 0.954575 0.276643
C55   C     C_R   0.704170 0.179066 0.033187 0.163107
C56   C     C_R   0.294146 0.172315 0.954075 0.281712
C57   C     C_R   0.353004 0.739197 0.010372 -0.006306
C58   C     C_R   0.746427 0.678852 0.005653 -0.065503
C59   C     C_R   0.759136 0.181906 0.992704 -0.011907
C60   C     C_R   0.250458 0.177410 0.008380 -0.077240
C61   C     C_R   0.415063 0.554076 0.485358 -0.201731
C62   C     C_R   0.423416 0.554927 0.400280 -0.101736
C63   C     C_R   0.036395 0.996739 0.592047 -0.234373
C64   C     C_R   0.062362 0.997565 0.521928 -0.082059
C65   C     C_R   0.422391 0.505793 0.352542 -0.066000
C66   C     C_R   0.392459 0.505373 0.514343 0.020268
C67   C     C_R   0.993572 0.000694 0.411225 -0.059874
C68   C     C_R   0.941635 0.999106 0.550982 -0.053142
C69   C     C_R   0.373038 0.461142 0.357542 0.284702
C70   C     C_R   0.358545 0.460793 0.441120 0.554051
C71   C     C_R   0.896762 0.003218 0.367473 0.371204
C72   C     C_R   0.870937 0.002477 0.440109 0.531582
C73   C     C_R   0.496509 0.455652 0.267300 0.500893
C74   C     C_R   0.442598 0.455527 0.692302 0.512977
C75   C     C_R   0.022083 0.954134 0.287363 0.520820
C76   C     C_R   0.940012 0.954844 0.693101 0.490300
C77   C     C_R   0.233002 0.545845 0.750447 0.546983
C78   C     C_R   0.754252 0.545444 0.301390 0.507739
C79   C     C_R   0.740317 0.044724 0.702222 0.484812
C80   C     C_R   0.252326 0.045464 0.302973 0.502827
C81   C     C_R   0.505764 0.547206 0.273695 0.328595
C82   C     C_R   0.437234 0.545956 0.692834 0.336981
C83   C     C_R   0.032989 0.044966 0.295932 0.398503
C84   C     C_R   0.941457 0.044750 0.692531 0.400246
C85   C     C_R   0.231236 0.454485 0.744314 0.509052
C86   C     C_R   0.756946 0.454581 0.300127 0.445337
C87   C     C_R   0.739821 0.953825 0.705842 0.501645
C88   C     C_R   0.254075 0.955217 0.303370 0.401182
C89   C     C_R   0.352355 0.652518 0.912628 -0.077932
C90   C     C_R   0.689684 0.622464 0.091005 -0.204992
C91   C     C_R   0.810122 0.122040 0.908521 -0.175185
C92   C     C_R   0.190264 0.121834 0.091475 -0.195183
C93   C     C_R   0.447064 0.347379 0.090599 0.622686
C94   C     C_R   0.571872 0.353235 0.910326 0.500737
C95   C     C_R   0.944299 0.847696 0.089626 0.617068
C96   C     C_R   0.102902 0.878759 0.911540 0.533633
C97   C     C_R   0.386011 0.316134 0.000918 -0.176560
C98   C     C_R   0.641843 0.326266 0.002227 -0.089307
C99   C     C_R   0.880499 0.817735 0.999061 -0.210156
C100  C     C_R   0.193353 0.867334 0.003115 -0.115442
H1    H     H_    0.314287 0.332584 0.827503 0.213688
H2    H     H_    0.704640 0.339218 0.175635 0.215301
H3    H     H_    0.806500 0.835126 0.825464 0.218405
H4    H     H_    0.244643 0.873327 0.176354 0.250909
H5    H     H_    0.957222 0.513596 0.325180 0.124811
H6    H     H_    0.119893 0.586614 0.496733 0.179108
H7    H     H_    0.411732 0.974278 0.267590 0.144119
H8    H     H_    0.590871 0.043389 0.368911 0.157327
H9    H     H_    0.296934 0.758766 0.842218 0.157648
H10   H     H_    0.713190 0.731353 0.095776 0.159165
H11   H     H_    0.818551 0.232539 0.927823 0.165132
H12   H     H_    0.224654 0.229282 0.105940 0.165727
H13   H     H_    0.747707 0.315908 0.934370 0.172400
H14   H     H_    0.309064 0.306038 0.104278 0.177169
H15   H     H_    0.217044 0.839533 0.837186 0.173023
H16   H     H_    0.796315 0.809032 0.093819 0.164460
H17   H     H_    0.436980 0.590646 0.534471 0.220257
H18   H     H_    0.439380 0.593582 0.380734 0.223621
H19   H     H_    0.090070 0.994470 0.678861 0.162172
H20   H     H_    0.135880 0.995473 0.553620 0.177794
H21   H     H_    0.317024 0.668801 0.831362 0.203608
H22   H     H_    0.747373 0.629191 0.174434 0.197627
H23   H     H_    0.754714 0.131728 0.825974 0.213592
H24   H     H_    0.248567 0.127594 0.174802 0.184286
H25   H     H_    0.033585 0.449789 0.715176 0.150034
H26   H     H_    0.867361 0.449861 0.556321 0.159825
H27   H     H_    0.571956 0.967989 0.698827 0.146110
H28   H     H_    0.399643 0.970980 0.577165 0.145473
N1    N     N_R   0.394180 0.396910 0.943210 -0.096039
N2    N     N_R   0.605820 0.396910 0.056790 -0.084644
N3    N     N_R   0.894180 0.896910 0.943210 -0.084081
N4    N     N_R   0.105820 0.896910 0.056790 -0.083020
N5    N     N_R   0.450950 0.603070 0.056740 -0.106589
N6    N     N_R   0.549050 0.603070 0.943260 -0.080127
N7    N     N_R   0.950950 0.103070 0.056740 -0.089026
N8    N     N_R   0.049050 0.103070 0.943260 -0.076784
N9    N     N_R   0.525650 0.471570 0.206150 -0.099928
N10   N     N_R   0.474350 0.471570 0.793850 -0.149662
N11   N     N_R   0.025650 0.971570 0.206150 -0.111408
N12   N     N_R   0.974350 0.971570 0.793850 -0.124927
N13   N     N_R   0.319480 0.528420 0.793810 -0.097787
N14   N     N_R   0.680520 0.528420 0.206190 -0.143514
N15   N     N_R   0.819480 0.028420 0.793810 -0.117213
N16   N     N_R   0.180520 0.028420 0.206190 -0.143480
N17   N     N_R   0.525640 0.528390 0.206120 -0.124327
N18   N     N_R   0.474360 0.528390 0.793880 -0.113170
N19   N     N_R   0.025640 0.028390 0.206120 -0.147889
N20   N     N_R   0.974360 0.028390 0.793880 -0.139962
N21   N     N_R   0.319490 0.471590 0.793840 -0.119332
N22   N     N_R   0.680510 0.471590 0.206160 -0.098224
N23   N     N_R   0.819490 0.971590 0.793840 -0.115246
N24   N     N_R   0.180510 0.971590 0.206160 -0.101857
N25   N     N_R   0.394130 0.603080 0.943110 -0.082198
N26   N     N_R   0.605870 0.603080 0.056890 -0.087265
N27   N     N_R   0.894130 0.103080 0.943110 -0.069139
N28   N     N_R   0.105870 0.103080 0.056890 -0.091912
N29   N     N_R   0.450990 0.396900 0.056840 -0.098868
N30   N     N_R   0.549010 0.396900 0.943160 -0.100628
N31   N     N_R   0.950990 0.896900 0.056840 -0.091466
N32   N     N_R   0.049010 0.896900 0.943160 -0.084817
Ni1   Ni    Ni4+2 0.434860 0.434850 0.869700 0.238952
Ni2   Ni    Ni4+2 0.565140 0.434850 0.130300 0.300473
Ni3   Ni    Ni4+2 0.934860 0.934850 0.869700 0.291256
Ni4   Ni    Ni4+2 0.065140 0.934850 0.130300 0.307234
Ni5   Ni    Ni4+2 0.565130 0.565140 0.130240 0.246069
Ni6   Ni    Ni4+2 0.434870 0.565140 0.869760 0.280781
Ni7   Ni    Ni4+2 0.065130 0.065140 0.130240 0.236921
Ni8   Ni    Ni4+2 0.934870 0.065140 0.869760 0.291252
O1    O     O_3   0.950074 0.599357 0.330984 -0.701752
H29   H     H_    0.965620 0.628024 0.386011 0.342504
O2    O     O_3   0.132280 0.502125 0.479627 -0.686539
H30   H     H_    0.096716 0.468091 0.468725 0.328933
O3    O     O_3   0.413290 0.057702 0.234252 -0.704284
H31   H     H_    0.442535 0.092075 0.275726 0.331489
O4    O     O_3   0.590451 0.958073 0.388284 -0.682074
H32   H     H_    0.555323 0.930762 0.400633 0.319043
O5    O     O_3   0.609046 0.230528 0.077061 -0.745615
H33   H     H_    0.600727 0.193606 0.097047 0.373736
O6    O     O_3   0.383708 0.212054 0.896047 -0.674368
H34   H     H_    0.421323 0.245054 0.908045 0.345116
O7    O     O_3   0.378667 0.841754 0.204941 -0.763784
H35   H     H_    0.436968 0.823260 0.263154 0.360368
O8    O     O_3   0.885448 0.713433 0.901136 -0.677104
H36   H     H_    0.922967 0.746617 0.914057 0.333448
Br1   Br    Br    0.392608 0.714333 0.226723 -0.455130
Br2   Br    Br    0.792622 0.605461 0.890016 -0.421707
Br3   Br    Br    0.686368 0.109577 0.080153 -0.466696
Br4   Br    Br    0.289262 0.104715 0.884938 -0.413655
O9    O     O_3   0.336401 0.419314 0.281878 -0.745743
H37   H     H_    0.328291 0.432896 0.214747 0.335214
O10   O     O_3   0.308645 0.419797 0.449476 -0.650680
H38   H     H_    0.291064 0.391184 0.394102 0.373297
O11   O     O_3   0.827016 0.005916 0.256975 -0.719081
H39   H     H_    0.854024 0.008400 0.214624 0.332307
O12   O     O_3   0.778880 0.005012 0.406753 -0.696589
H40   H     H_    0.736706 0.007831 0.326499 0.386889
O13   O     O_3   0.529161 0.674157 0.182719 -0.707339
H41   H     H_    0.530100 0.714254 0.173307 0.327761
O14   O     O_3   0.559424 0.640481 0.803405 -0.721314
H42   H     H_    0.607811 0.659494 0.800352 0.336991
O15   O     O_3   0.940534 0.147528 0.190928 -0.707217
H43   H     H_    0.889892 0.161667 0.195742 0.344364
O16   O     O_3   0.061717 0.141936 0.805803 -0.707920
H44   H     H_    0.110209 0.161596 0.803948 0.339294
O17   O     O_3   0.505181 0.402995 0.303923 -0.668403
H45   H     H_    0.508942 0.404555 0.372242 0.347652
O18   O     O_3   0.403912 0.405033 0.651618 -0.624125
H46   H     H_    0.386198 0.390148 0.698829 0.361982
O19   O     O_3   0.025869 0.900314 0.315856 -0.673637
H47   H     H_    0.027139 0.899189 0.382685 0.322037
O20   O     O_3   0.902111 0.903530 0.655498 -0.643903
H48   H     H_    0.871117 0.902933 0.575668 0.341124
O21   O     O_3   0.206312 0.599833 0.729258 -0.758354
H49   H     H_    0.144465 0.603154 0.717139 0.326965
O22   O     O_3   0.763699 0.596738 0.344663 -0.690431
H50   H     H_    0.706485 0.617683 0.291414 0.354080
O23   O     O_3   0.723420 0.097814 0.664644 -0.719956
H51   H     H_    0.663459 0.098974 0.591939 0.339246
O24   O     O_3   0.264325 0.097723 0.343202 -0.695125
H52   H     H_    0.208031 0.119007 0.288856 0.335234
Br5   Br    Br    0.580397 0.605797 0.371101 -0.395641
Br6   Br    Br    0.358449 0.610075 0.640320 -0.453331
Br7   Br    Br    0.103162 0.107066 0.383866 -0.386953
Br8   Br    Br    0.877927 0.112528 0.627631 -0.357597
O25   O     O_3   0.202907 0.401646 0.708986 -0.753415
H53   H     H_    0.134042 0.400143 0.668242 0.326485
O26   O     O_3   0.773585 0.400792 0.333078 -0.735229
H54   H     H_    0.836603 0.398452 0.402027 0.320862
O27   O     O_3   0.720965 0.899794 0.674841 -0.727333
H55   H     H_    0.660049 0.898157 0.602779 0.336451
O28   O     O_3   0.265290 0.902420 0.341138 -0.705137
H56   H     H_    0.320397 0.901725 0.417907 0.327782
O29   O     O_3   0.515860 0.327353 0.191868 -0.665273
H57   H     H_    0.505807 0.287486 0.192964 0.334740
O30   O     O_3   0.520827 0.333964 0.805265 -0.732097
H58   H     H_    0.547326 0.298365 0.803930 0.340010
O31   O     O_3   0.012660 0.826088 0.189419 -0.664737
H59   H     H_    0.998987 0.786751 0.189922 0.329095
O32   O     O_3   0.071445 0.871869 0.805421 -0.702444
H60   H     H_    0.109661 0.897035 0.794164 0.282620

loop_
_geom_bond_atom_site_label_1
_geom_bond_atom_site_label_2
_ccdc_geom_bond_type
O16   H44   S    
C86   O26   S    
C55   C59   A    
N25   Ni6   S    
C87   N23   A    
C88   N24   A    
O15   H43   S    
C6    C58   S    
O32   H60   S    
C52   O8    S    
N14   N22   A    
O2    H30   S    
C39   H15   S    
N12   N20   A    
C72   O12   S    
N1    N29   A    
N13   N21   A    
C4    N4    A    
C34   C58   A    
N17   Ni5   S    
O17   H45   S    
N12   Ni3   S    
C74   N10   A    
C48   O16   S    
C12   C84   A    
N13   Ni6   S    
N4    N32   A    
C21   C25   A    
C36   C60   A    
C3    N3    A    
N15   N23   A    
N9    N17   A    
N11   Ni4   S    
C35   C37   A    
C38   C42   A    
C1    N1    A    
C78   N14   A    
C26   H26   S    
N9    Ni2   S    
N8    N28   A    
C44   C99   S    
C95   C99   A    
C94   O30   S    
C79   O23   S    
C37   H13   S    
C94   C98   A    
C45   O13   S    
C4    H4    S    
N7    N27   A    
C47   O15   S    
C35   C59   A    
C8    C60   S    
O1    H29   S    
C41   C49   A    
C53   Br1   S    
C25   H25   S    
N30   Ni1   S    
C27   H27   S    
C61   C66   A    
C79   N15   A    
C31   C32   S    
C11   C67   S    
C80   N16   A    
C17   C18   A    
C36   H12   S    
C33   C57   A    
O30   H58   S    
N6    Ni6   S    
N26   Ni5   S    
C8    C92   A    
C55   Br3   S    
C90   N26   A    
O29   H57   S    
C67   C71   A    
C61   C62   A    
C74   O18   S    
C83   Br7   S    
C15   C23   S    
N2    Ni2   S    
C84   N20   A    
N18   Ni6   S    
O14   H42   S    
C16   C24   S    
C91   H23   S    
O31   H59   S    
C30   H6    S    
C17   C30   S    
C90   H22   S    
C29   H5    S    
O9    H37   S    
C9    C73   A    
C80   O24   S    
C19   C32   S    
C7    C59   S    
C82   N18   A    
O27   H55   S    
C52   C54   A    
C70   O10   S    
O19   H47   S    
C32   H8    S    
C49   O5    S    
C23   C27   A    
C10   C66   S    
N22   Ni2   S    
C32   O4    S    
C13   C77   A    
N16   Ni7   S    
C77   O21   S    
O18   H46   S    
C64   C67   A    
C56   Br4   S    
C43   C100  S    
C14   C86   A    
C92   N28   A    
C84   Br8   S    
C42   C97   S    
C1    C97   A    
O24   H52   S    
C53   C57   A    
N31   Ni4   S    
C39   C43   A    
N8    Ni8   S    
N28   Ni7   S    
C11   C83   A    
C25   C26   A    
O7    H35   S    
C61   H17   S    
C10   C82   A    
C16   C80   A    
C50   C56   A    
C63   C64   A    
C51   C53   A    
C7    C47   A    
C78   O22   S    
C19   C23   A    
O22   H50   S    
N32   Ni3   S    
O8    H36   S    
C91   N27   A    
C29   C30   S    
N5    Ni5   S    
C46   N6    A    
C63   H19   S    
C89   N25   A    
O26   H54   S    
C89   H21   S    
N4    Ni4   S    
N3    Ni3   S    
N27   Ni8   S    
C68   C72   A    
C7    C91   A    
O25   H53   S    
C85   O25   S    
N1    Ni1   S    
C5    C45   A    
C18   C29   S    
C33   C39   A    
C87   O27   S    
N3    N31   A    
C86   N22   A    
N24   Ni4   S    
O6    H34   S    
N19   Ni7   S    
C42   C50   A    
C83   N19   A    
N11   N19   A    
C76   O20   S    
C96   N32   A    
O11   H39   S    
C1    H1    S    
C81   N17   A    
C12   C76   A    
C22   C26   A    
C14   C22   S    
N20   Ni8   S    
C96   O32   S    
C95   N31   A    
N21   Ni1   S    
C76   N12   A    
C69   O9    S    
C36   C38   A    
C93   C97   A    
C27   C28   A    
C35   H11   S    
C15   C87   A    
C54   C58   A    
C3    H3    S    
O10   H38   S    
C65   C69   A    
C73   O17   S    
C63   C68   A    
N5    N25   A    
N7    Ni7   S    
C95   O31   S    
C6    C46   A    
C62   C65   A    
C47   N7    A    
C18   C22   A    
C31   H7    S    
C6    C90   A    
C48   N8    A    
C24   C28   A    
C51   O7    S    
C49   C55   A    
C44   C52   A    
C94   N30   A    
C82   Br6   S    
C15   C79   A    
C45   N5    A    
C85   N21   A    
C81   Br5   S    
C66   C70   A    
N23   Ni3   S    
C64   H20   S    
C4    C100  A    
C5    C57   S    
N2    N30   A    
C93   O29   S    
C12   C68   S    
C19   C20   A    
C92   H24   S    
C50   O6    S    
O23   H51   S    
C71   C72   A    
N16   N24   A    
O4    H32   S    
C75   N11   A    
C8    C48   A    
C13   C21   S    
N14   Ni5   S    
C38   H14   S    
C93   N29   A    
C10   C74   A    
C43   C51   A    
C46   O14   S    
C40   H16   S    
C73   N9    A    
N10   N18   A    
O21   H49   S    
C96   C100  A    
O20   H48   S    
C2    N2    A    
N10   Ni1   S    
O13   H41   S    
C14   C78   A    
C56   C60   A    
C37   C41   A    
C69   C70   A    
C9    C65   S    
C30   O2    S    
C62   H18   S    
C71   O11   S    
O3    H31   S    
O12   H40   S    
C3    C99   A    
C40   C44   A    
C88   O28   S    
C33   H9    S    
C2    C98   A    
C77   N13   A    
C31   O3    S    
O5    H33   S    
C54   Br2   S    
C13   C85   A    
O28   H56   S    
C16   C88   A    
C2    H2    S    
C41   C98   S    
C34   C40   A    
C11   C75   A    
N15   Ni8   S    
C34   H10   S    
C29   O1    S    
C75   O19   S    
N6    N26   A    
N29   Ni2   S    
C20   C24   A    
C5    C89   A    
C28   H28   S    
C9    C81   A    
C20   C31   S    
C17   C21   A    
