data_mof_unit_39333.cif
_audit_creation_date              2012-12-10T18:15:19-0500
_audit_creation_method            fapswitch 2.2
_symmetry_space_group_name_H-M    P1
_symmetry_Int_Tables_number       1
_space_group_crystal_system       triclinic
_cell_length_a                    22.390669
_cell_length_b                    22.5588
_cell_length_c                    14.650508
_cell_angle_alpha                 90.041948
_cell_angle_beta                  90.010904
_cell_angle_gamma                 90.011446
_cell_volume                      7400.06636823

loop_
_atom_site_label
_atom_site_type_symbol
_atom_type_description
_atom_site_fract_x
_atom_site_fract_y
_atom_site_fract_z
_atom_type_partial_charge
C1    C     C_R   0.080158 0.419976 0.499860 0.834785
C2    C     C_R   0.080137 0.580057 0.500027 0.826716
C3    C     C_R   0.580160 0.919978 0.499860 0.834778
C4    C     C_R   0.580134 0.080060 0.500026 0.826726
C5    C     C_1   0.161071 0.663822 0.500209 0.001229
C6    C     C_1   0.162187 0.337353 0.495490 0.004813
C7    C     C_1   0.661053 0.163841 0.500194 0.001236
C8    C     C_1   0.662196 0.837362 0.495490 0.004831
C9    C     C_1   0.835968 0.339208 0.500231 0.013776
C10   C     C_1   0.837792 0.662651 0.498414 0.011278
C11   C     C_1   0.335975 0.839199 0.500218 0.013788
C12   C     C_1   0.337795 0.162653 0.498409 0.011297
C13   C     C_1   0.874300 0.376204 0.499967 -0.197051
C14   C     C_1   0.875364 0.624891 0.499628 -0.211500
C15   C     C_1   0.374303 0.876199 0.499961 -0.197056
C16   C     C_1   0.375366 0.124893 0.499626 -0.211468
C17   C     C_3   0.973268 0.557722 0.053411 -0.356530
C18   C     C_3   0.973432 0.557763 0.946816 -0.361580
C19   C     C_3   0.962157 0.447193 0.946599 -0.360877
C20   C     C_3   0.962272 0.447095 0.053347 -0.355359
C21   C     C_3   0.473133 0.057660 0.053412 -0.356530
C22   C     C_3   0.473301 0.057704 0.946816 -0.361570
C23   C     C_3   0.462279 0.947108 0.946599 -0.360817
C24   C     C_3   0.462397 0.947008 0.053347 -0.355322
C25   C     C_3   0.999943 0.499306 0.091892 0.225445
C26   C     C_3   0.999960 0.499317 0.908183 0.221565
C27   C     C_3   0.499946 0.999306 0.091892 0.225405
C28   C     C_3   0.499963 0.999317 0.908183 0.221554
C29   C     C_3   0.064263 0.492862 0.946739 -0.348622
C30   C     C_3   0.064261 0.492952 0.053400 -0.359201
C31   C     C_3   0.564281 0.993009 0.946739 -0.348655
C32   C     C_3   0.564279 0.993102 0.053401 -0.359183
C33   C     C_1   0.000049 0.499651 0.804977 0.069091
C34   C     C_1   0.000048 0.499621 0.195045 0.063116
C35   C     C_1   0.500051 0.999651 0.804977 0.069081
C36   C     C_1   0.500050 0.999621 0.195045 0.063150
C37   C     C_R   0.919740 0.420074 0.499973 0.825403
C38   C     C_R   0.919962 0.580162 0.499980 0.818580
C39   C     C_R   0.419740 0.920073 0.499972 0.825413
C40   C     C_R   0.419962 0.080163 0.499980 0.818573
C41   C     C_3   0.784110 0.266179 0.597891 0.230142
C42   C     C_3   0.806873 0.243707 0.431936 0.195379
C43   C     C_3   0.811270 0.759784 0.431328 0.231393
C44   C     C_3   0.783207 0.734830 0.593635 0.210733
C45   C     C_3   0.284071 0.766223 0.597917 0.230152
C46   C     C_3   0.306929 0.743648 0.432031 0.195338
C47   C     C_3   0.311303 0.259822 0.431416 0.231394
C48   C     C_3   0.283149 0.234775 0.593652 0.210732
C49   C     C_3   0.255653 0.696930 0.427034 -0.294415
C50   C     C_3   0.235665 0.716459 0.597579 -0.249592
C51   C     C_3   0.227685 0.276166 0.592922 -0.278199
C52   C     C_3   0.263844 0.310418 0.434122 -0.270369
C53   C     C_3   0.755580 0.197010 0.426910 -0.294360
C54   C     C_3   0.735707 0.216412 0.597529 -0.249643
C55   C     C_3   0.727750 0.776230 0.592919 -0.278183
C56   C     C_3   0.763817 0.810384 0.434021 -0.270362
C57   C     C_1   0.124268 0.625269 0.500101 -0.180822
C58   C     C_1   0.124787 0.375280 0.498740 -0.167095
C59   C     C_1   0.624257 0.125281 0.500095 -0.180823
C60   C     C_1   0.624794 0.875286 0.498740 -0.167069
C61   C     C_3   0.789532 0.293527 0.500465 0.070302
C62   C     C_3   0.791792 0.708773 0.496471 0.067183
C63   C     C_3   0.289543 0.793513 0.500456 0.070299
C64   C     C_3   0.291792 0.208773 0.496465 0.067176
C65   C     C_3   0.206338 0.710987 0.500283 0.000489
C66   C     C_3   0.208002 0.290584 0.491684 -0.017749
C67   C     C_3   0.706318 0.211010 0.500267 0.000533
C68   C     C_3   0.708007 0.790589 0.491687 -0.017777
C69   C     C_3   0.176642 0.773146 0.476338 0.820590
C70   C     C_3   0.181831 0.231076 0.447902 0.853272
C71   C     C_3   0.676611 0.273184 0.476453 0.820645
C72   C     C_3   0.681806 0.731059 0.448020 0.853258
C73   C     C_3   0.728630 0.320873 0.471701 -0.400715
C74   C     C_3   0.731528 0.681898 0.464138 -0.411981
C75   C     C_3   0.228653 0.820837 0.471571 -0.400588
C76   C     C_3   0.231549 0.181912 0.464015 -0.412001
Cu1   Cu    Cu3+1 0.999990 0.500000 0.589920 0.972753
Cu2   Cu    Cu3+1 0.999990 0.500000 0.410080 0.965565
Cu3   Cu    Cu3+1 0.499990 0.000000 0.589920 0.972734
Cu4   Cu    Cu3+1 0.499990 1.000000 0.410080 0.965607
H1    H     H_    0.828397 0.245943 0.614992 0.061831
H2    H     H_    0.848481 0.222851 0.459729 0.073512
H3    H     H_    0.854603 0.777536 0.457713 0.069092
H4    H     H_    0.824474 0.761141 0.608823 0.079505
H5    H     H_    0.328349 0.745992 0.615091 0.061819
H6    H     H_    0.348534 0.722827 0.459898 0.073538
H7    H     H_    0.354620 0.277562 0.457880 0.069062
H8    H     H_    0.324401 0.261087 0.608925 0.079541
H9    H     H_    0.234659 0.698289 0.358569 0.169245
H10   H     H_    0.200250 0.728081 0.647715 0.206687
H11   H     H_    0.189980 0.252777 0.626887 0.195518
H12   H     H_    0.250111 0.320080 0.363052 0.184808
H13   H     H_    0.734539 0.198454 0.358481 0.169381
H14   H     H_    0.700322 0.227993 0.647737 0.206657
H15   H     H_    0.690060 0.752869 0.626970 0.195510
H16   H     H_    0.750042 0.820003 0.362956 0.184806
H17   H     H_    0.718201 0.358295 0.518710 0.208376
H18   H     H_    0.734618 0.343689 0.405826 0.164399
H19   H     H_    0.739493 0.656808 0.399812 0.197988
H20   H     H_    0.719233 0.648123 0.515074 0.171701
H21   H     H_    0.218198 0.858288 0.518512 0.208382
H22   H     H_    0.234656 0.843612 0.405664 0.164311
H23   H     H_    0.239554 0.156861 0.399665 0.197981
H24   H     H_    0.219228 0.148105 0.514890 0.171704
H25   H     H_    0.926978 0.563591 0.921409 0.163316
H26   H     H_    0.926702 0.563384 0.078471 0.157203
H27   H     H_    0.915548 0.450405 0.078700 0.158108
H28   H     H_    0.915395 0.450752 0.921462 0.155571
H29   H     H_    0.426836 0.063431 0.921403 0.163300
H30   H     H_    0.426553 0.063213 0.078467 0.157225
H31   H     H_    0.415667 0.950206 0.078703 0.158110
H32   H     H_    0.415509 0.950561 0.921465 0.155577
H33   H     H_    0.980589 0.404240 0.078463 0.161240
H34   H     H_    0.980218 0.404302 0.921166 0.160078
H35   H     H_    0.000022 0.596138 0.921902 0.158582
H36   H     H_    0.999511 0.596247 0.078823 0.156788
H37   H     H_    0.480816 0.904195 0.078461 0.161225
H38   H     H_    0.480436 0.904258 0.921162 0.160062
H39   H     H_    0.499807 0.096137 0.921908 0.158583
H40   H     H_    0.499282 0.096246 0.078827 0.156783
H41   H     H_    0.092538 0.530088 0.078606 0.160057
H42   H     H_    0.092646 0.529876 0.921489 0.162640
H43   H     H_    0.084526 0.450893 0.921542 0.163566
H44   H     H_    0.084633 0.451075 0.078703 0.157810
H45   H     H_    0.592467 0.030304 0.078604 0.160066
H46   H     H_    0.592580 0.030085 0.921486 0.162611
H47   H     H_    0.584639 0.951085 0.921545 0.163575
H48   H     H_    0.584751 0.951275 0.078707 0.157816
N1    N     N_1   0.000150 0.500000 0.724970 -0.147804
N2    N     N_1   0.000150 0.500000 0.275030 -0.150886
N3    N     N_1   0.500150 0.000000 0.724970 -0.147810
N4    N     N_1   0.500150 0.000000 0.275030 -0.150880
O1    O     O_R   0.060270 0.439640 0.575970 -0.561114
O2    O     O_R   0.060270 0.439640 0.424030 -0.583554
O3    O     O_R   0.060270 0.560360 0.424030 -0.567977
O4    O     O_R   0.060270 0.560360 0.575970 -0.569107
O5    O     O_R   0.560270 0.939640 0.575970 -0.561122
O6    O     O_R   0.560270 0.939640 0.424030 -0.583558
O7    O     O_R   0.560270 0.060360 0.424030 -0.567955
O8    O     O_R   0.560270 0.060360 0.575970 -0.569129
O9    O     O_R   0.939710 0.439640 0.575970 -0.578880
O10   O     O_R   0.939710 0.439640 0.424030 -0.564265
O11   O     O_R   0.939710 0.560360 0.424030 -0.571710
O12   O     O_R   0.939710 0.560360 0.575970 -0.575927
O13   O     O_R   0.439710 0.939640 0.575970 -0.578886
O14   O     O_R   0.439710 0.939640 0.424030 -0.564248
O15   O     O_R   0.439710 0.060360 0.424030 -0.571707
O16   O     O_R   0.439710 0.060360 0.575970 -0.575933
C77   C     C_1   0.260506 0.660040 0.632174 0.200455
N5    N     N_1   0.279885 0.615972 0.659662 -0.246875
C78   C     C_1   0.280269 0.636240 0.433940 0.224876
N6    N     N_1   0.299541 0.588750 0.438936 -0.249313
C79   C     C_1   0.290550 0.366435 0.467097 0.197017
N7    N     N_1   0.311564 0.410307 0.492573 -0.239639
C80   C     C_1   0.239308 0.329271 0.649670 0.238523
N8    N     N_1   0.248328 0.370717 0.694194 -0.260547
C81   C     C_1   0.760578 0.159968 0.631977 0.200432
N9    N     N_1   0.779983 0.115880 0.659351 -0.246836
C82   C     C_1   0.780183 0.136306 0.433634 0.224905
N10   N     N_1   0.799444 0.088805 0.438489 -0.249343
C83   C     C_1   0.790546 0.866421 0.466875 0.197031
N11   N     N_1   0.811579 0.910308 0.492255 -0.239641
C84   C     C_1   0.739416 0.829368 0.649575 0.238525
N12   N     N_1   0.748470 0.870837 0.694029 -0.260522
O17   O     O_3   0.816955 0.269076 0.344484 -0.612414
C85   C     C_3   0.860374 0.236708 0.295436 0.058337
H49   H     H_    0.845783 0.189916 0.286041 0.150140
H50   H     H_    0.904034 0.237778 0.331925 0.140866
C86   C     C_3   0.868644 0.265199 0.201704 -0.322759
H51   H     H_    0.825171 0.265831 0.165033 0.218799
H52   H     H_    0.884018 0.311725 0.210453 0.222898
C87   C     C_3   0.914272 0.231373 0.144455 -0.942599
H53   H     H_    0.957770 0.228839 0.180648 0.263189
H54   H     H_    0.921143 0.254607 0.078515 0.256882
H55   H     H_    0.898015 0.185755 0.130351 0.261171
O18   O     O_3   0.766694 0.310833 0.661365 -0.586216
C88   C     C_3   0.812899 0.325366 0.723485 0.078059
H56   H     H_    0.804346 0.371095 0.748443 0.169436
H57   H     H_    0.857825 0.326358 0.690789 0.128192
C89   C     C_3   0.812226 0.283161 0.805369 -0.353868
H58   H     H_    0.767077 0.283382 0.836899 0.230213
H59   H     H_    0.822248 0.237304 0.782327 0.216594
C90   C     C_3   0.858227 0.301518 0.876930 -0.933819
H60   H     H_    0.903872 0.300819 0.847242 0.255445
H61   H     H_    0.856674 0.270085 0.935147 0.262063
H62   H     H_    0.848361 0.346769 0.902819 0.252045
O19   O     O_3   0.774328 0.688128 0.657542 -0.602735
C91   C     C_3   0.804047 0.699388 0.741078 0.066000
H63   H     H_    0.779612 0.675355 0.795677 0.163793
H64   H     H_    0.803221 0.747177 0.760471 0.138327
C92   C     C_3   0.868284 0.675886 0.737623 -0.335258
H65   H     H_    0.867545 0.627415 0.723929 0.237859
H66   H     H_    0.893351 0.697797 0.681595 0.207798
C93   C     C_3   0.900962 0.687348 0.827243 -0.945366
H67   H     H_    0.902934 0.735675 0.841527 0.262438
H68   H     H_    0.947297 0.670175 0.822229 0.254586
H69   H     H_    0.877884 0.664584 0.884444 0.252588
O20   O     O_3   0.816028 0.738245 0.340148 -0.581669
C94   C     C_3   0.876145 0.734454 0.310589 0.081071
H70   H     H_    0.877817 0.702263 0.253236 0.166553
H71   H     H_    0.906309 0.716587 0.364355 0.124747
C95   C     C_3   0.898499 0.794622 0.275917 -0.365631
H72   H     H_    0.869992 0.809406 0.218149 0.228246
H73   H     H_    0.895496 0.828348 0.330991 0.219408
C96   C     C_3   0.963268 0.790710 0.244045 -0.920252
H74   H     H_    0.992693 0.777288 0.301512 0.266340
H75   H     H_    0.978099 0.834708 0.218792 0.257351
H76   H     H_    0.967573 0.757998 0.187722 0.254555
O21   O     O_3   0.317043 0.768954 0.344547 -0.612438
C97   C     C_3   0.360484 0.736554 0.295598 0.058219
H77   H     H_    0.345962 0.689721 0.286427 0.150103
H78   H     H_    0.404154 0.737758 0.332048 0.140953
C98   C     C_3   0.368664 0.764874 0.201728 -0.322822
H79   H     H_    0.325172 0.765353 0.165101 0.218763
H80   H     H_    0.383956 0.811446 0.210242 0.222927
C99   C     C_3   0.414326 0.731016 0.144592 -0.942433
H81   H     H_    0.457857 0.728671 0.180723 0.263186
H82   H     H_    0.421089 0.754104 0.078505 0.256878
H83   H     H_    0.398167 0.685325 0.130785 0.261159
O22   O     O_3   0.266633 0.810916 0.661309 -0.586213
C100  C     C_3   0.312810 0.825475 0.723462 0.078052
H84   H     H_    0.304246 0.871214 0.748367 0.169455
H85   H     H_    0.357749 0.826455 0.690807 0.128194
C101  C     C_3   0.312107 0.783302 0.805384 -0.353904
H86   H     H_    0.266942 0.783525 0.836863 0.230224
H87   H     H_    0.322149 0.737438 0.782399 0.216587
C102  C     C_3   0.358070 0.801699 0.876977 -0.933761
H88   H     H_    0.403726 0.801018 0.847330 0.255425
H89   H     H_    0.356512 0.770279 0.935212 0.262004
H90   H     H_    0.348169 0.846950 0.902829 0.252032
O23   O     O_3   0.274247 0.188035 0.657486 -0.602727
C103  C     C_3   0.303908 0.199264 0.741080 0.066028
H91   H     H_    0.279463 0.175172 0.795607 0.163794
H92   H     H_    0.303025 0.247039 0.760546 0.138346
C104  C     C_3   0.368169 0.175823 0.737676 -0.335312
H93   H     H_    0.367484 0.127360 0.723918 0.237855
H94   H     H_    0.393248 0.197787 0.681709 0.207797
C105  C     C_3   0.400786 0.187269 0.827352 -0.945362
H95   H     H_    0.402684 0.235589 0.841717 0.262440
H96   H     H_    0.447147 0.170165 0.822361 0.254568
H97   H     H_    0.377711 0.164435 0.884487 0.252606
O24   O     O_3   0.316112 0.238337 0.340212 -0.581670
C106  C     C_3   0.376246 0.234566 0.310726 0.081083
H98   H     H_    0.377951 0.202412 0.253326 0.166552
H99   H     H_    0.406380 0.216666 0.364505 0.124743
C107  C     C_3   0.398618 0.294757 0.276174 -0.365623
H100  H     H_    0.370147 0.309574 0.218385 0.228247
H101  H     H_    0.395579 0.328450 0.331292 0.219414
C108  C     C_3   0.463407 0.290868 0.244393 -0.920309
H102  H     H_    0.492797 0.277421 0.301889 0.266400
H103  H     H_    0.478247 0.334881 0.219213 0.257337
H104  H     H_    0.467754 0.258185 0.188037 0.254563
O25   O     O_3   0.140712 0.792063 0.552036 -0.629204
C109  C     C_3   0.080083 0.773579 0.551224 0.110273
H105  H     H_    0.068505 0.759196 0.621534 0.141095
H106  H     H_    0.070498 0.735179 0.506228 0.161989
C110  C     C_3   0.039799 0.825635 0.525135 -0.304144
H107  H     H_    0.047518 0.863088 0.573043 0.223388
H108  H     H_    0.050903 0.840804 0.455089 0.231845
C111  C     C_3   0.974016 0.808014 0.528297 -0.962036
H109  H     H_    0.965550 0.770418 0.481120 0.246600
H110  H     H_    0.945927 0.846149 0.507058 0.270412
H111  H     H_    0.961106 0.794795 0.598611 0.255943
O26   O     O_3   0.139159 0.767371 0.396529 -0.650592
C112  C     C_3   0.159755 0.788871 0.311546 -0.007358
H112  H     H_    0.140753 0.759517 0.258006 0.169993
H113  H     H_    0.208537 0.785509 0.301665 0.179893
C113  C     C_3   0.135759 0.851520 0.294268 -0.353614
H114  H     H_    0.086365 0.849683 0.287704 0.220610
H115  H     H_    0.146320 0.881174 0.352580 0.216532
C114  C     C_3   0.162026 0.877822 0.207210 -0.905326
H116  H     H_    0.211351 0.881521 0.213264 0.260783
H117  H     H_    0.143242 0.922769 0.195877 0.255233
H118  H     H_    0.150784 0.849521 0.147547 0.254938
O27   O     O_3   0.173729 0.233120 0.350508 -0.624464
C115  C     C_3   0.138931 0.279701 0.312059 0.097290
H119  H     H_    0.146370 0.277145 0.237193 0.163964
H120  H     H_    0.154954 0.324452 0.329596 0.117395
C116  C     C_3   0.071295 0.273900 0.327202 -0.345962
H121  H     H_    0.056068 0.229553 0.304790 0.211054
H122  H     H_    0.059877 0.280403 0.400099 0.250515
C117  C     C_3   0.037188 0.320237 0.271815 -0.944223
H123  H     H_    0.053727 0.365469 0.287439 0.282783
H124  H     H_    0.988950 0.318114 0.288983 0.264656
H125  H     H_    0.042602 0.311755 0.197576 0.248648
O28   O     O_3   0.125395 0.219305 0.490965 -0.655301
C118  C     C_3   0.106269 0.159481 0.500834 0.028964
H126  H     H_    0.060344 0.161463 0.529350 0.167096
H127  H     H_    0.131617 0.136140 0.554887 0.146709
C119  C     C_3   0.101788 0.123576 0.411604 -0.347307
H128  H     H_    0.065296 0.141583 0.368864 0.211411
H129  H     H_    0.143689 0.125101 0.371788 0.241148
C120  C     C_3   0.087669 0.058652 0.431487 -0.926872
H130  H     H_    0.124116 0.038363 0.472358 0.257771
H131  H     H_    0.083470 0.033849 0.366286 0.258640
H132  H     H_    0.044919 0.054845 0.469516 0.262606
O29   O     O_3   0.640714 0.292056 0.552213 -0.629193
C121  C     C_3   0.580094 0.273541 0.551466 0.110200
H133  H     H_    0.568579 0.259076 0.621760 0.141100
H134  H     H_    0.570488 0.235188 0.506385 0.162029
C122  C     C_3   0.539763 0.325606 0.525588 -0.304207
H135  H     H_    0.547495 0.363007 0.573588 0.223400
H136  H     H_    0.550813 0.340861 0.455568 0.231763
C123  C     C_3   0.473992 0.307947 0.528803 -0.962017
H137  H     H_    0.465516 0.270394 0.481549 0.246578
H138  H     H_    0.445870 0.346088 0.507693 0.270401
H139  H     H_    0.461132 0.294652 0.599104 0.255962
O30   O     O_3   0.639097 0.267441 0.396670 -0.650633
C124  C     C_3   0.659580 0.289152 0.311751 -0.007144
H140  H     H_    0.640483 0.259946 0.258097 0.170000
H141  H     H_    0.708348 0.285760 0.301694 0.179754
C125  C     C_3   0.635592 0.351859 0.294912 -0.353815
H142  H     H_    0.586195 0.350054 0.288395 0.220528
H143  H     H_    0.646185 0.381354 0.353401 0.216584
C126  C     C_3   0.661819 0.378395 0.207995 -0.905294
H144  H     H_    0.711150 0.382057 0.214004 0.260785
H145  H     H_    0.643048 0.423382 0.196991 0.255229
H146  H     H_    0.650529 0.350268 0.148157 0.254952
O31   O     O_3   0.673654 0.733045 0.350632 -0.624470
C127  C     C_3   0.638839 0.779603 0.312156 0.097345
H147  H     H_    0.646256 0.777011 0.237287 0.163954
H148  H     H_    0.654858 0.824366 0.329629 0.117400
C128  C     C_3   0.571209 0.773794 0.327345 -0.346005
H149  H     H_    0.555986 0.729432 0.304992 0.211044
H150  H     H_    0.559809 0.780329 0.400243 0.250512
C129  C     C_3   0.537078 0.820102 0.271931 -0.944314
H151  H     H_    0.553576 0.865348 0.287560 0.282807
H152  H     H_    0.488836 0.817943 0.289069 0.264639
H153  H     H_    0.542516 0.811620 0.197696 0.248655
O32   O     O_3   0.625390 0.719322 0.491166 -0.655283
C130  C     C_3   0.606268 0.659507 0.501172 0.028953
H154  H     H_    0.560363 0.661513 0.529759 0.167086
H155  H     H_    0.631650 0.636204 0.555226 0.146707
C131  C     C_3   0.601722 0.623540 0.412008 -0.347315
H156  H     H_    0.565191 0.641514 0.369309 0.211389
H157  H     H_    0.643590 0.625046 0.372112 0.241157
C132  C     C_3   0.587629 0.558626 0.432024 -0.926828
H158  H     H_    0.624117 0.538369 0.472850 0.257764
H159  H     H_    0.583374 0.533779 0.366872 0.258634
H160  H     H_    0.544915 0.554838 0.470151 0.262600

loop_
_geom_bond_atom_site_label_1
_geom_bond_atom_site_label_2
_ccdc_geom_bond_type
C93   H68   S    
C81   N9    T    
Cu4   N4    S    
C119  C120  S    
C6    C58   T    
C19   C20   S    
C24   C27   S    
C41   C61   S    
C23   H38   S    
C21   H30   S    
C122  H135  S    
C23   H32   S    
C117  H123  S    
C91   C92   S    
C93   H69   S    
C114  H116  S    
C9    C13   T    
C109  H106  S    
C11   C15   T    
C50   H10   S    
C123  H139  S    
C12   C16   T    
C99   H83   S    
C129  H151  S    
C87   H55   S    
C25   C34   S    
C19   H28   S    
C76   H23   S    
Cu4   O14   S    
C94   H70   S    
C21   C22   S    
C7    C59   T    
C89   H59   S    
C132  H158  S    
C98   H80   S    
C105  H96   S    
C53   C82   S    
C126  H145  S    
C95   H72   S    
C49   C78   S    
C128  H149  S    
C127  C128  S    
C47   C64   S    
C71   C73   S    
C74   H20   S    
C98   H79   S    
C51   C66   S    
C71   O30   S    
C90   H60   S    
C14   C38   S    
C102  H88   S    
C105  H97   S    
C68   C72   S    
C22   H29   S    
C29   H42   S    
C39   O13   A    
C129  H153  S    
C103  H92   S    
C3    O6    A    
Cu1   N1    S    
Cu2   O2    S    
C15   C39   S    
C47   C52   S    
C95   H73   S    
C16   C40   S    
C55   H15   S    
Cu3   O5    S    
C41   O18   S    
C113  H115  S    
C121  H133  S    
C132  H160  S    
C122  C123  S    
C40   O15   A    
C18   H35   S    
Cu3   O16   S    
C100  C101  S    
Cu4   O7    S    
C17   C25   S    
C92   C93   S    
C55   C84   S    
C83   N11   T    
C44   C55   S    
C66   C70   S    
C45   C50   S    
C116  H122  S    
Cu1   O9    S    
C48   C64   S    
C72   O32   S    
C80   N8    T    
C75   H21   S    
C47   H7    S    
C43   H3    S    
C38   O11   A    
C131  C132  S    
C31   H47   S    
C2    C57   S    
C51   C80   S    
C108  H102  S    
C120  H130  S    
C9    C61   S    
C99   H82   S    
C11   C63   S    
C36   N4    T    
C42   C53   S    
O25   C109  S    
C12   C64   S    
C125  H142  S    
C91   H64   S    
C110  H107  S    
C28   C35   S    
O26   C112  S    
C88   H57   S    
C94   C95   S    
C23   C24   S    
C42   O17   S    
C123  H138  S    
C85   H50   S    
C86   H52   S    
C1    O1    A    
O22   C100  S    
C87   H54   S    
O21   C97   S    
C124  H141  S    
C73   H18   S    
C10   C14   T    
C90   H62   S    
C131  H156  S    
C109  C110  S    
C52   C79   S    
C56   C68   S    
C128  H150  S    
C127  H148  S    
C71   O29   S    
C29   C30   S    
C26   C33   S    
C31   C32   S    
C116  H121  S    
C106  C107  S    
Cu3   N3    S    
C118  H127  S    
C17   C18   S    
C23   C28   S    
C112  H113  S    
C102  H89   S    
C97   H78   S    
C104  C105  S    
C107  H100  S    
O18   C88   S    
C126  H146  S    
C115  H120  S    
C111  H109  S    
C47   O24   S    
C97   C98   S    
C117  H124  S    
C2    O3    A    
C125  C126  S    
C46   C63   S    
C110  C111  S    
C32   H48   S    
Cu2   N2    S    
C17   H26   S    
C54   C81   S    
C50   C77   S    
C63   C75   S    
Cu4   O6    S    
Cu3   O8    S    
C53   C67   S    
C130  C131  S    
C44   O19   S    
C7    C67   S    
C115  H119  S    
C117  H125  S    
C45   O22   S    
C129  H152  S    
C107  C108  S    
C76   H24   S    
C114  H118  S    
O27   C115  S    
C18   C26   S    
C101  H86   S    
C55   C68   S    
C104  H93   S    
Cu1   Cu2   S    
O30   C124  S    
C46   C49   S    
C24   H37   S    
C37   O9    A    
C120  H132  S    
Cu2   O10   S    
C124  C125  S    
C20   C25   S    
C106  H98   S    
C119  H128  S    
O29   C121  S    
C19   C26   S    
C51   H11   S    
C48   O23   S    
C108  H104  S    
C95   C96   S    
C78   N6    T    
C48   H8    S    
C3    O5    A    
Cu1   O4    S    
Cu2   O3    S    
C3    C60   S    
C93   H67   S    
C21   C27   S    
C126  H144  S    
C22   C28   S    
C10   C62   S    
C121  H134  S    
C111  H111  S    
C132  H159  S    
C122  H136  S    
C22   H39   S    
C40   O16   A    
C72   C74   S    
C37   O10   A    
C19   H34   S    
C61   C73   S    
C124  H140  S    
C56   C83   S    
C92   H65   S    
C121  C122  S    
C130  H154  S    
C92   H66   S    
C109  H105  S    
C82   N10   T    
C30   H41   S    
C41   H1    S    
C111  H110  S    
O24   C106  S    
C118  C119  S    
C52   H12   S    
C101  C102  S    
C35   N3    T    
C52   C66   S    
C89   H58   S    
C98   C99   S    
C33   N1    T    
C25   C30   S    
C56   H16   S    
C105  H95   S    
C27   C32   S    
C38   O12   A    
C28   C31   S    
C44   H4    S    
C74   H19   S    
C27   C36   S    
C46   O21   S    
C5    C57   T    
O19   C91   S    
C77   N5    T    
C8    C60   T    
O32   C130  S    
C20   H33   S    
C65   C69   S    
C29   H43   S    
C39   O14   A    
C103  H91   S    
C125  H143  S    
C69   C75   S    
C43   O20   S    
C67   C71   S    
Cu1   O12   S    
O31   C127  S    
C113  H114  S    
C100  H85   S    
C88   H56   S    
C94   H71   S    
C62   C74   S    
Cu2   O11   S    
C43   C62   S    
C4    O7    A    
O17   C85   S    
C86   H51   S    
C84   N12   T    
C42   H2    S    
C69   O25   S    
Cu3   O13   S    
C96   H74   S    
C73   H17   S    
C49   C65   S    
C21   H40   S    
C90   H61   S    
O28   C118  S    
C131  H157  S    
C116  C117  S    
C48   C51   S    
C118  H126  S    
C70   O28   S    
C75   H22   S    
C115  C116  S    
O20   C94   S    
C112  H112  S    
C13   C37   S    
C89   C90   S    
C20   H27   S    
C104  H94   S    
C24   H31   S    
Cu1   O1    S    
C50   C65   S    
C69   O26   S    
Cu4   O15   S    
C107  H101  S    
C108  H103  S    
C53   H13   S    
C99   H81   S    
C5    C65   S    
C54   C67   S    
C44   C62   S    
C45   C63   S    
C103  C104  S    
C2    O4    A    
C91   H63   S    
C110  H108  S    
C32   H45   S    
C45   H5    S    
C4    O8    A    
C100  H84   S    
C72   O31   S    
C113  C114  S    
C88   C89   S    
C64   C76   S    
C130  H155  S    
C42   C61   S    
C26   C29   S    
C123  H137  S    
C30   H44   S    
C8    C68   S    
C70   C76   S    
C85   H49   S    
C86   C87   S    
C1    O2    A    
C87   H53   S    
C96   H76   S    
C114  H117  S    
C70   O27   S    
C49   H9    S    
C101  H87   S    
C128  C129  S    
C127  H147  S    
C18   H25   S    
C120  H131  S    
C1    C58   S    
C4    C59   S    
C119  H129  S    
C112  C113  S    
C41   C54   S    
C54   H14   S    
Cu3   Cu4   S    
C43   C56   S    
C6    C66   S    
C102  H90   S    
C34   N2    T    
C85   C86   S    
C97   H77   S    
O23   C103  S    
C106  H99   S    
C31   H46   S    
C79   N7    T    
C96   H75   S    
C17   H36   S    
C46   H6    S    
