data_mof_unit_53052.cif
_audit_creation_date              2012-12-11T14:33:58-0500
_audit_creation_method            fapswitch 2.2
_symmetry_space_group_name_H-M    P1
_symmetry_Int_Tables_number       1
_space_group_crystal_system       triclinic
_cell_length_a                    13.847028
_cell_length_b                    13.977294
_cell_length_c                    27.324094
_cell_angle_alpha                 89.988585
_cell_angle_beta                  90.083186
_cell_angle_gamma                 119.62162
_cell_volume                      4597.2574399

loop_
_atom_site_label
_atom_site_type_symbol
_atom_type_description
_atom_site_fract_x
_atom_site_fract_y
_atom_site_fract_z
_atom_type_partial_charge
C1    C     C_R   0.233909 0.787221 0.568762 0.538785
C2    C     C_R   0.212591 0.446520 0.568801 0.542349
C3    C     C_R   0.552770 0.765269 0.569037 0.539490
C4    C     C_3   0.659098 0.734276 0.790303 -0.212492
C5    C     C_3   0.243769 0.954098 0.783124 -0.212225
C6    C     C_3   0.055164 0.311410 0.785707 -0.212052
C7    C     C_3   0.638976 0.721569 0.734299 -0.213128
C8    C     C_3   0.260128 0.938995 0.728241 -0.212786
C9    C     C_3   0.072612 0.345884 0.731085 -0.212902
C10   C     C_1   0.706806 0.862420 0.860193 -0.077992
C11   C     C_1   0.113322 0.881226 0.852491 -0.077385
C12   C     C_1   0.114389 0.230762 0.852174 -0.077739
C13   C     C_1   0.628703 0.814456 0.659056 -0.073550
C14   C     C_1   0.176932 0.819441 0.656273 -0.073651
C15   C     C_1   0.178628 0.358264 0.656345 -0.073708
C16   C     C_1   0.601076 0.796145 0.616763 -0.013202
C17   C     C_1   0.199060 0.806403 0.615145 -0.013442
C18   C     C_1   0.193007 0.393162 0.615211 -0.013412
C19   C     C_R   0.064891 0.150388 0.095954 0.577945
C20   C     C_R   0.776938 0.883787 0.088064 0.547663
C21   C     C_R   0.116490 0.893747 0.088210 0.559849
C22   C     C_R   0.069338 0.160391 0.943219 0.539809
C23   C     C_R   0.779604 0.887089 0.950788 0.542014
C24   C     C_R   0.090633 0.929732 0.943376 0.536799
C25   C     C_R   0.616958 0.893473 0.360725 -0.110168
C26   C     C_R   0.098023 0.731621 0.362696 -0.120342
C27   C     C_R   0.265055 0.360162 0.363257 -0.122687
C28   C     C_R   0.640828 0.907240 0.310892 0.014846
C29   C     C_R   0.081622 0.743795 0.313181 0.010430
C30   C     C_R   0.242080 0.309971 0.317124 0.010244
C31   C     C_R   0.676570 0.926042 0.209452 0.015067
C32   C     C_R   0.061314 0.760378 0.211710 0.016369
C33   C     C_R   0.201860 0.229156 0.220551 0.015260
C34   C     C_R   0.232358 0.788344 0.431882 0.544535
C35   C     C_R   0.211731 0.444573 0.431391 0.547372
C36   C     C_R   0.555240 0.766892 0.431740 0.545577
C37   C     C_R   0.651946 0.999263 0.234027 -0.131543
C38   C     C_R   0.979310 0.670019 0.237491 -0.113651
C39   C     C_R   0.304934 0.262178 0.242812 -0.108732
C40   C     C_R   0.633639 0.989567 0.284448 -0.081711
C41   C     C_R   0.990484 0.660800 0.287825 -0.086185
C42   C     C_R   0.325043 0.302683 0.290697 -0.081092
C43   C     C_R   0.701765 0.938442 0.159418 -0.147558
C44   C     C_R   0.051422 0.771290 0.161312 -0.132180
C45   C     C_R   0.184008 0.197732 0.171190 -0.126369
C46   C     C_R   0.724275 0.862636 0.135935 0.002155
C47   C     C_R   0.135289 0.862228 0.136518 0.000858
C48   C     C_R   0.083130 0.173058 0.148510 -0.002257
C49   C     C_R   0.651423 0.739034 0.362674 -0.100485
C50   C     C_R   0.263098 0.912542 0.362974 -0.100709
C51   C     C_R   0.076097 0.327633 0.368334 -0.099209
C52   C     C_R   0.671776 0.748550 0.312636 0.020869
C53   C     C_R   0.252544 0.923702 0.313073 0.021067
C54   C     C_R   0.051784 0.279238 0.321964 0.020508
C55   C     C_R   0.665084 0.832680 0.286520 0.023259
C56   C     C_R   0.162018 0.837552 0.287863 0.025312
C57   C     C_R   0.136209 0.272185 0.295859 0.023830
C58   C     C_R   0.691553 0.671808 0.287538 0.226233
C59   C     C_R   0.334385 0.015194 0.287184 0.219322
C60   C     C_R   0.947374 0.243876 0.299806 0.228224
C61   C     C_R   0.703031 0.678531 0.237005 -0.096204
C62   C     C_R   0.328149 0.017743 0.236525 -0.102517
C63   C     C_R   0.929613 0.206531 0.251609 -0.088776
C64   C     C_R   0.697432 0.762116 0.211294 -0.030513
C65   C     C_R   0.238899 0.932764 0.211531 -0.028506
C66   C     C_R   0.013409 0.201607 0.225238 -0.024637
C67   C     C_3   0.564686 0.853356 0.737430 -0.213495
C68   C     C_3   0.141948 0.733942 0.738701 -0.215180
C69   C     C_3   0.272020 0.390663 0.737049 -0.215563
C70   C     C_R   0.679767 0.840417 0.235780 0.053169
C71   C     C_R   0.153859 0.843594 0.237058 0.052244
C72   C     C_R   0.116586 0.232574 0.247485 0.050163
C73   C     C_R   0.713660 0.770636 0.161393 -0.120522
C74   C     C_R   0.231527 0.938384 0.161322 -0.130408
C75   C     C_R   0.997133 0.171140 0.176132 -0.126254
C76   C     C_R   0.616039 0.805438 0.385875 -0.021035
C77   C     C_R   0.192590 0.813190 0.386704 -0.020477
C78   C     C_R   0.183506 0.373107 0.388049 -0.021796
C79   C     C_3   0.768562 0.924395 0.723124 -0.215880
C80   C     C_3   0.054063 0.847208 0.714063 -0.213527
C81   C     C_3   0.123869 0.200337 0.712681 -0.213304
C82   C     C_3   0.788248 0.937166 0.779227 -0.214959
C83   C     C_3   0.036511 0.862883 0.768870 -0.216667
C84   C     C_3   0.106489 0.166291 0.767281 -0.219013
C85   C     C_1   0.734224 0.873023 0.902552 -0.028207
C86   C     C_1   0.102541 0.901687 0.894250 -0.023588
C87   C     C_1   0.095955 0.199698 0.893979 -0.027417
C88   C     C_3   0.650374 0.828667 0.711997 0.071431
C89   C     C_3   0.158132 0.834338 0.707887 0.070935
C90   C     C_3   0.162237 0.324256 0.707861 0.071184
C91   C     C_3   0.584689 0.865882 0.793582 -0.215423
C92   C     C_3   0.123937 0.750084 0.793550 -0.212514
C93   C     C_3   0.254463 0.356131 0.791745 -0.212351
C94   C     C_3   0.684475 0.850237 0.807290 0.073230
C95   C     C_3   0.128729 0.862192 0.800919 0.072049
C96   C     C_3   0.132519 0.265628 0.800660 0.071594
Cr1   Cr    Cr6+3 0.164410 0.584450 0.499910 1.044317
Cr2   Cr    Cr6+3 0.415550 0.579960 0.499910 1.044722
Cr3   Cr    Cr6+3 0.420040 0.835590 0.499910 1.044955
Cr4   Cr    Cr6+3 0.155170 0.075460 0.019960 1.017831
Cr5   Cr    Cr6+3 0.924540 0.079710 0.019960 1.008288
Cr6   Cr    Cr6+3 0.920290 0.844830 0.019960 1.009998
H1    H     H_    0.600984 0.948795 0.805336 0.112679
H2    H     H_    0.042029 0.681953 0.805803 0.114929
H3    H     H_    0.311871 0.325218 0.802188 0.113172
H4    H     H_    0.478741 0.785633 0.729966 0.107690
H5    H     H_    0.216113 0.723216 0.735052 0.106918
H6    H     H_    0.301509 0.480388 0.734153 0.107240
H7    H     H_    0.508681 0.803888 0.812954 0.111415
H8    H     H_    0.188987 0.746429 0.816140 0.114659
H9    H     H_    0.275284 0.429177 0.815021 0.115704
H10   H     H_    0.729795 0.720937 0.799768 0.111275
H11   H     H_    0.252178 0.036421 0.789072 0.104813
H12   H     H_    0.966815 0.247822 0.791751 0.109132
H13   H     H_    0.708137 0.008360 0.139448 0.105284
H14   H     H_    0.977133 0.712460 0.141981 0.114541
H15   H     H_    0.249758 0.196767 0.150081 0.120802
H16   H     H_    0.590630 0.945779 0.378817 0.162293
H17   H     H_    0.041916 0.655729 0.381376 0.150834
H18   H     H_    0.347929 0.394392 0.378513 0.152765
H19   H     H_    0.647410 0.064230 0.214333 0.126320
H20   H     H_    0.907772 0.605675 0.218619 0.129513
H21   H     H_    0.371191 0.260111 0.222659 0.129794
H22   H     H_    0.613632 0.046237 0.302769 0.211568
H23   H     H_    0.928524 0.588394 0.306856 0.191203
H24   H     H_    0.406533 0.331238 0.306575 0.193372
H25   H     H_    0.728179 0.709912 0.143174 0.130592
H26   H     H_    0.296989 0.008351 0.142129 0.124990
H27   H     H_    0.918462 0.149530 0.158762 0.117685
H28   H     H_    0.717475 0.618850 0.217824 0.136837
H29   H     H_    0.392580 0.087070 0.216680 0.133581
H30   H     H_    0.851432 0.185163 0.234110 0.142646
H31   H     H_    0.571272 0.930299 0.722295 0.114014
H32   H     H_    0.069099 0.657390 0.724799 0.113386
H33   H     H_    0.337928 0.376386 0.721308 0.114203
H34   H     H_    0.652981 0.673370 0.382996 0.200617
H35   H     H_    0.333333 0.976665 0.382461 0.202510
H36   H     H_    0.013207 0.336044 0.388211 0.201107
H37   H     H_    0.831856 0.908355 0.705743 0.109631
H38   H     H_    0.063910 0.919400 0.692762 0.111238
H39   H     H_    0.044799 0.150611 0.692253 0.111947
H40   H     H_    0.779072 0.002541 0.707531 0.113222
H41   H     H_    0.979379 0.773086 0.699608 0.114457
H42   H     H_    0.187001 0.182472 0.696491 0.112964
H43   H     H_    0.808519 0.021579 0.790559 0.109413
H44   H     H_    0.953434 0.796145 0.780756 0.109152
H45   H     H_    0.161498 0.132670 0.777247 0.107869
H46   H     H_    0.860679 0.927010 0.788703 0.101261
H47   H     H_    0.037006 0.941659 0.773698 0.099436
H48   H     H_    0.019231 0.100682 0.772911 0.101642
H49   H     H_    0.554492 0.651186 0.726811 0.111218
H50   H     H_    0.336691 0.932724 0.723584 0.111505
H51   H     H_    0.098268 0.434757 0.728088 0.110416
H52   H     H_    0.699944 0.702063 0.716992 0.113759
H53   H     H_    0.272312 0.012695 0.707480 0.114255
H54   H     H_    0.992595 0.298832 0.711005 0.115797
H55   H     H_    0.584367 0.669983 0.809622 0.113572
H56   H     H_    0.310753 0.951863 0.804815 0.115737
H57   H     H_    0.072576 0.383708 0.808873 0.117224
O1    O     O_R   0.137150 0.468200 0.553200 -0.506750
O2    O     O_R   0.531800 0.668950 0.553200 -0.507255
O3    O     O_R   0.331050 0.862850 0.553200 -0.505681
O4    O     O_R   0.179100 0.982980 0.967000 -0.504133
O5    O     O_R   0.017020 0.196120 0.967000 -0.483034
O6    O     O_R   0.803880 0.820900 0.967000 -0.511494
O7    O     O_R   0.173970 0.688730 0.549930 -0.499813
O8    O     O_R   0.311270 0.485240 0.549930 -0.499254
O9    O     O_R   0.514760 0.826030 0.549930 -0.497087
O10   O     O_R   0.140110 0.470540 0.446010 -0.511962
O11   O     O_R   0.529460 0.669570 0.446010 -0.512105
O12   O     O_R   0.330430 0.859890 0.446010 -0.513451
O13   O     O_R   0.176710 0.690910 0.450560 -0.497818
O14   O     O_R   0.309090 0.485800 0.450560 -0.496172
O15   O     O_R   0.514200 0.823290 0.450560 -0.497499
O16   O     O_3   0.333333 0.666667 0.499990 -0.274907
O17   O     O_R   0.176750 0.985260 0.074180 -0.529554
O18   O     O_R   0.014740 0.191490 0.074180 -0.492544
O19   O     O_R   0.808510 0.823250 0.074180 -0.516883
O20   O     O_R   0.146100 0.172630 0.068980 -0.479133
O21   O     O_R   0.827370 0.973470 0.068980 -0.518328
O22   O     O_R   0.026530 0.853900 0.068980 -0.488278
O23   O     O_3   1.000000 0.000000 0.020040 -0.287015
O24   O     O_R   0.148270 0.170520 0.969620 -0.490216
O25   O     O_R   0.829480 0.977750 0.969620 -0.519912
O26   O     O_R   0.022250 0.851730 0.969620 -0.481682
Cl1   Cl    Cl    0.697857 0.562920 0.317235 -0.628626
Cl2   Cl    Cl    0.448681 0.126607 0.316072 -0.628233
Cl3   Cl    Cl    0.838183 0.250776 0.329739 -0.605848

loop_
_geom_bond_atom_site_label_1
_geom_bond_atom_site_label_2
_ccdc_geom_bond_type
C15   C18   T    
C79   H37   S    
C43   C46   A    
C10   C85   T    
C36   O15   A    
Cr1   O16   S    
C58   Cl1   S    
C33   C45   A    
C48   C75   A    
C27   C78   A    
C92   H8    S    
C25   H16   S    
Cr2   O2    S    
C6    C9    S    
C6    H57   S    
C53   C59   A    
C50   H35   S    
C39   H21   S    
C20   O21   A    
C54   C60   A    
C27   H18   S    
C25   C28   A    
C21   O22   A    
C7    H52   S    
C67   C88   S    
C33   C39   A    
Cr1   O13   S    
C31   C43   A    
C60   C63   A    
C82   C94   S    
C67   H31   S    
C37   C40   A    
C69   C93   S    
C80   C83   S    
C34   C77   S    
C64   C70   A    
C84   H45   S    
C79   H40   S    
C2    C18   S    
C10   C94   S    
C11   C86   T    
C45   H15   S    
Cr1   O7    S    
C83   H44   S    
C30   C57   A    
Cr1   O10   S    
C84   C96   S    
C80   C89   S    
Cr4   O24   S    
C8    H53   S    
C6    H12   S    
C36   C76   S    
C33   C72   A    
C43   H13   S    
C23   O6    A    
C28   C55   A    
C31   C70   A    
C66   C72   A    
C7    C88   S    
C9    H54   S    
C65   C71   A    
Cr4   O17   S    
Cr6   O23   S    
C64   C73   A    
C59   Cl2   S    
C68   H5    S    
C32   C38   A    
C39   C42   A    
Cr4   O23   S    
C19   O18   A    
Cr2   O8    S    
C12   C87   T    
C44   C47   A    
C93   H3    S    
C49   C52   A    
C58   C61   A    
C81   H39   S    
C4    H10   S    
C63   C66   A    
C9    H51   S    
C69   H33   S    
C27   C30   A    
C14   C17   T    
C4    C7    S    
C79   C88   S    
C5    C95   S    
C69   H6    S    
C3    O9    A    
C32   C71   A    
C81   H42   S    
C40   H22   S    
C74   H26   S    
C26   C77   A    
C50   C53   A    
Cr1   O1    S    
C41   H23   S    
C83   H47   S    
C26   H17   S    
C38   C41   A    
Cr2   O14   S    
C92   H2    S    
C19   C48   S    
C20   O19   A    
C80   H38   S    
C92   C95   S    
C65   C74   A    
C31   C37   A    
C24   O26   A    
C35   O14   A    
C61   C64   A    
C3    C16   S    
C14   C89   S    
C22   O24   A    
C80   H41   S    
C79   C82   S    
Cr3   O3    S    
C22   O5    A    
C5    H11   S    
C4    H55   S    
C56   C71   A    
C83   C95   S    
C67   C91   S    
C68   C89   S    
C32   C44   A    
C49   C76   A    
C22   C87   S    
C38   H20   S    
Cr5   O25   S    
C52   C58   A    
C61   H28   S    
C93   H9    S    
C7    H49   S    
C81   C90   S    
C2    O1    A    
C49   H34   S    
C1    O3    A    
C93   C96   S    
C6    C96   S    
C35   O10   A    
C37   H19   S    
C24   O4    A    
C42   H24   S    
C69   C90   S    
C50   C77   A    
C19   O20   A    
C81   C84   S    
C34   O13   A    
Cr3   O9    S    
C45   C48   A    
C11   C95   S    
C34   O12   A    
C59   C62   A    
C62   C65   A    
C29   C41   A    
Cr6   O22   S    
C1    C17   S    
C62   H29   S    
Cr5   O5    S    
C30   C42   A    
C47   C74   A    
C91   H1    S    
C8    H50   S    
C9    C90   S    
C5    C8    S    
C82   H46   S    
C52   C55   A    
C67   H4    S    
C29   C56   A    
Cr6   O6    S    
Cr6   O26   S    
C35   C78   S    
C36   O11   A    
C51   C54   A    
C25   C76   A    
C68   H32   S    
C51   C78   A    
C23   O25   A    
Cr5   O21   S    
C73   H25   S    
C15   C90   S    
Cr2   O16   S    
C91   H7    S    
C4    C94   S    
Cr3   O15   S    
C1    O7    A    
Cr6   O19   S    
C66   C75   A    
C13   C88   S    
C68   C92   S    
C63   H30   S    
Cr4   O4    S    
C57   C72   A    
C21   O17   A    
C53   C56   A    
C55   C70   A    
Cr5   O18   S    
C3    O2    A    
Cr2   O11   S    
C51   H36   S    
Cr3   O16   S    
C82   H43   S    
C44   H14   S    
C26   C29   A    
C60   Cl3   S    
C5    H56   S    
C23   C85   S    
C13   C16   T    
C28   C40   A    
C12   C96   S    
C8    C89   S    
C21   C47   S    
Cr4   O20   S    
C24   C86   S    
C2    O8    A    
C46   C73   A    
C20   C46   S    
Cr5   O23   S    
C75   H27   S    
Cr3   O12   S    
C91   C94   S    
C54   C57   A    
C84   H48   S    
