data_mof_unit_46899.cif
_audit_creation_date              2012-10-26T17:12:33-0400
_audit_creation_method            fapswitch 2.2
_symmetry_space_group_name_H-M    P1
_symmetry_Int_Tables_number       1
_space_group_crystal_system       triclinic
_cell_length_a                    16.928427
_cell_length_b                    16.884445
_cell_length_c                    16.770273
_cell_angle_alpha                 68.233258
_cell_angle_beta                  67.783611
_cell_angle_gamma                 68.05039
_cell_volume                      3966.15042639

loop_
_atom_site_label
_atom_site_type_symbol
_atom_type_description
_atom_site_fract_x
_atom_site_fract_y
_atom_site_fract_z
_atom_type_partial_charge
C1    C     C_R   0.017339 0.830211 0.567883 0.813962
C2    C     C_R   0.977275 0.170346 0.433698 0.781652
C3    C     C_R   0.830295 0.569075 0.017659 0.887085
C4    C     C_R   0.168907 0.431113 0.984509 0.848780
C5    C     C_R   0.565830 0.023763 0.828809 0.844359
C6    C     C_R   0.435543 0.970695 0.171379 0.849658
C7    C     C_R   0.433845 0.170785 0.977151 0.806653
C8    C     C_R   0.563883 0.828597 0.030297 0.871095
C9    C     C_R   0.976325 0.433866 0.171192 0.867238
C10   C     C_R   0.023536 0.566183 0.828983 0.810308
C11   C     C_R   0.169107 0.982784 0.430775 0.821041
C12   C     C_R   0.829600 0.019960 0.567213 0.831025
C13   C     C_R   0.461908 0.023913 0.715236 0.397865
C14   C     C_R   0.537811 0.918180 0.307278 0.385088
C15   C     C_R   0.016847 0.715495 0.462658 0.400286
C16   C     C_R   0.952582 0.286498 0.545077 0.412191
C17   C     C_R   0.730440 0.511972 0.942407 0.384117
C18   C     C_R   0.260564 0.500902 0.059871 0.380809
C19   C     C_R   0.261003 0.063133 0.490113 0.398208
C20   C     C_R   0.725085 0.988603 0.470950 0.399129
C21   C     C_R   0.534206 0.284985 0.981380 0.427337
C22   C     C_R   0.458688 0.688760 0.099902 0.383685
C23   C     C_R   0.925710 0.542734 0.303451 0.369112
C24   C     C_R   0.068524 0.455015 0.704571 0.395401
C25   C     C_R   0.542498 0.018776 0.541103 -0.043592
C26   C     C_R   0.445314 0.007087 0.443383 -0.050417
C27   C     C_R   0.029216 0.537073 0.542608 -0.052230
C28   C     C_R   0.983869 0.450149 0.458185 -0.040352
C29   C     C_R   0.545208 0.550810 0.013734 -0.042196
C30   C     C_R   0.446389 0.449447 0.009893 -0.058849
C31   C     C_R   0.584452 0.002980 0.456725 0.005205
C32   C     C_R   0.398783 0.035497 0.522958 -0.074371
C33   C     C_R   0.021319 0.449669 0.587225 -0.056786
C34   C     C_R   0.985654 0.538729 0.417986 -0.009617
C35   C     C_R   0.451524 0.572009 0.050748 -0.005052
C36   C     C_R   0.540548 0.423867 0.979451 -0.034729
C37   C     C_R   0.538587 0.982389 0.415786 -0.007347
C38   C     C_R   0.449086 0.037429 0.573857 0.001811
C39   C     C_R   0.401375 0.526752 0.039783 0.000771
C40   C     C_R   0.591001 0.475464 0.979130 -0.020244
C41   C     C_R   0.002016 0.404322 0.542566 -0.064422
C42   C     C_R   0.019569 0.577492 0.455226 -0.042527
C43   C     C_R   0.411267 0.061215 0.654476 0.305273
C44   C     C_R   0.582753 0.925901 0.358143 0.317349
C45   C     C_R   0.039659 0.658610 0.411111 0.422980
C46   C     C_R   0.996022 0.316216 0.579087 0.430536
C47   C     C_R   0.685610 0.453538 0.949238 0.282229
C48   C     C_R   0.307880 0.556300 0.055754 0.304743
C49   C     C_R   0.304836 0.055286 0.549397 0.408934
C50   C     C_R   0.671961 0.006427 0.416744 0.294233
C51   C     C_R   0.579203 0.349708 0.944901 0.452966
C52   C     C_R   0.413401 0.630210 0.106665 0.323793
C53   C     C_R   0.940498 0.587680 0.350849 0.305508
C54   C     C_R   0.031517 0.413867 0.674974 0.411849
C55   C     C_R   0.552107 0.024755 0.680970 -0.006921
C56   C     C_R   0.446301 0.959417 0.321512 -0.059597
C57   C     C_R   0.026394 0.680716 0.551100 -0.144365
C58   C     C_R   0.958875 0.319216 0.452616 -0.157385
C59   C     C_R   0.687804 0.575233 0.991630 -0.050083
C60   C     C_R   0.305054 0.430279 0.018787 -0.036688
C61   C     C_R   0.305857 0.017781 0.422558 -0.161348
C62   C     C_R   0.686231 0.009082 0.555364 -0.046271
C63   C     C_R   0.442723 0.315299 0.987111 -0.151378
C64   C     C_R   0.549161 0.676204 0.052175 -0.047530
C65   C     C_R   0.953871 0.449216 0.325942 -0.024901
C66   C     C_R   0.050980 0.548378 0.674675 -0.147450
C67   C     C_R   0.601457 0.030185 0.731092 -0.162986
C68   C     C_R   0.398738 0.957140 0.269617 -0.109458
C69   C     C_R   0.018290 0.734460 0.604768 -0.167749
C70   C     C_R   0.968963 0.266538 0.397825 -0.167305
C71   C     C_R   0.734908 0.611715 0.018168 -0.156756
C72   C     C_R   0.262321 0.390321 0.990006 -0.152624
C73   C     C_R   0.262334 0.985932 0.387314 -0.182304
C74   C     C_R   0.733466 0.022759 0.603306 -0.161707
C75   C     C_R   0.396240 0.266692 0.975562 -0.157512
C76   C     C_R   0.599233 0.730143 0.046772 -0.110482
C77   C     C_R   0.967895 0.396607 0.269031 -0.136679
C78   C     C_R   0.032206 0.603089 0.731313 -0.163258
C79   C     C_R   0.686105 0.043782 0.685703 0.289217
C80   C     C_R   0.310753 0.953916 0.310765 0.328602
C81   C     C_R   0.007639 0.696209 0.696757 0.324273
C82   C     C_R   0.987380 0.303720 0.304479 0.297532
C83   C     C_R   0.687975 0.689404 0.048015 0.307479
C84   C     C_R   0.311806 0.311927 0.962189 0.313571
C85   C     C_R   0.593441 0.021059 0.591248 -0.064299
C86   C     C_R   0.399111 0.995073 0.395733 -0.049485
C87   C     C_R   0.038121 0.588361 0.588730 -0.009481
C88   C     C_R   0.966695 0.405832 0.411763 -0.044506
C89   C     C_R   0.594033 0.600547 0.019238 -0.084230
C90   C     C_R   0.397797 0.399697 0.003029 -0.047796
Cu1   Cu    Cu3+1 0.995180 0.995180 0.424630 1.203992
Cu2   Cu    Cu3+1 0.004820 0.004820 0.575370 1.224511
Cu3   Cu    Cu3+1 0.995180 0.424630 0.995180 1.227584
Cu4   Cu    Cu3+1 0.004820 0.575370 0.004820 1.176631
Cu5   Cu    Cu3+1 0.424630 0.995180 0.995180 1.174542
Cu6   Cu    Cu3+1 0.575370 0.004820 0.004820 1.185385
O1    O     O_R   0.124540 0.978640 0.385460 -0.512701
O2    O     O_R   0.875460 0.021360 0.614540 -0.511403
O3    O     O_R   0.978640 0.385460 0.124540 -0.537186
O4    O     O_R   0.021360 0.614540 0.875460 -0.531182
O5    O     O_R   0.385460 0.124540 0.978640 -0.520282
O6    O     O_R   0.614540 0.875460 0.021360 -0.532005
O7    O     O_R   0.614540 0.021360 0.875460 -0.517984
O8    O     O_R   0.385460 0.978640 0.124540 -0.534029
O9    O     O_R   0.875460 0.614540 0.021360 -0.519069
O10   O     O_R   0.124540 0.385460 0.978640 -0.511527
O11   O     O_R   0.021360 0.875460 0.614540 -0.526517
O12   O     O_R   0.978640 0.124540 0.385460 -0.525688
O13   O     O_R   0.013780 0.867370 0.487190 -0.537576
O14   O     O_R   0.986220 0.132630 0.512810 -0.539959
O15   O     O_R   0.867370 0.487190 0.013780 -0.541745
O16   O     O_R   0.132630 0.512810 0.986220 -0.550227
O17   O     O_R   0.487190 0.013780 0.867370 -0.539969
O18   O     O_R   0.512810 0.986220 0.132630 -0.570552
O19   O     O_R   0.512810 0.132630 0.986220 -0.564107
O20   O     O_R   0.487190 0.867370 0.013780 -0.555068
O21   O     O_R   0.986220 0.512810 0.132630 -0.541747
O22   O     O_R   0.013780 0.487190 0.867370 -0.528055
O23   O     O_R   0.132630 0.986220 0.512810 -0.548728
O24   O     O_R   0.867370 0.013780 0.487190 -0.540978
O25   O     O_3   0.439543 0.954815 0.787532 -0.686445
H1    H     H_    0.375861 0.959928 0.800001 0.359601
O26   O     O_3   0.578305 0.860338 0.253768 -0.649698
H2    H     H_    0.643014 0.853218 0.233283 0.400245
O27   O     O_3   0.952977 0.791419 0.440130 -0.613229
H3    H     H_    0.905834 0.796656 0.496797 0.355420
O28   O     O_3   0.896272 0.235837 0.605594 -0.596429
H4    H     H_    0.852864 0.240503 0.576426 0.340773
O29   O     O_3   0.814208 0.511279 0.884386 -0.691882
H5    H     H_    0.826098 0.479045 0.840547 0.380227
O30   O     O_3   0.173780 0.508983 0.112253 -0.697369
H6    H     H_    0.157128 0.551629 0.147399 0.376329
O31   O     O_3   0.176271 0.118928 0.497792 -0.631609
H7    H     H_    0.164746 0.139471 0.438610 0.304436
O32   O     O_3   0.808280 0.931740 0.451785 -0.678181
H8    H     H_    0.821688 0.916893 0.395272 0.414023
O33   O     O_3   0.565953 0.213542 0.046130 -0.651580
H9    H     H_    0.515018 0.194638 0.094361 0.326649
O34   O     O_3   0.420341 0.748501 0.151139 -0.656214
H10   H     H_    0.355032 0.762519 0.165787 0.403251
O35   O     O_3   0.871966 0.586935 0.246753 -0.651751
H11   H     H_    0.873903 0.649465 0.221624 0.397927
O36   O     O_3   0.122205 0.401984 0.759939 -0.593349
H12   H     H_    0.159242 0.436897 0.757750 0.330603
Cl1   Cl    Cl    0.345452 0.170967 0.651607 -0.432640
Cl2   Cl    Cl    0.683383 0.844586 0.370299 -0.458971
Cl3   Cl    Cl    0.077672 0.696755 0.293532 -0.393665
Cl4   Cl    Cl    0.069767 0.231871 0.637179 -0.325486
Cl5   Cl    Cl    0.754596 0.346408 0.940554 -0.412230
Cl6   Cl    Cl    0.249527 0.669755 0.045341 -0.476198
Cl7   Cl    Cl    0.237957 0.051872 0.660272 -0.402271
Cl8   Cl    Cl    0.716598 0.035833 0.298869 -0.483179
Cl9   Cl    Cl    0.631709 0.368453 0.829109 -0.461023
Cl10  Cl    Cl    0.326292 0.608969 0.205461 -0.481422
Cl11  Cl    Cl    0.879579 0.699697 0.345220 -0.424324
Cl12  Cl    Cl    0.967235 0.346153 0.762362 -0.389727
Cl13  Cl    Cl    0.725509 0.102490 0.724975 -0.462267
Cl14  Cl    Cl    0.268949 0.896310 0.272933 -0.476333
Cl15  Cl    Cl    0.942921 0.766143 0.769729 -0.525223
Cl16  Cl    Cl    0.055152 0.233580 0.232168 -0.537040
Cl17  Cl    Cl    0.732713 0.729799 0.100725 -0.475024
Cl18  Cl    Cl    0.275600 0.277044 0.897079 -0.458752

loop_
_geom_bond_atom_site_label_1
_geom_bond_atom_site_label_2
_ccdc_geom_bond_type
C25   C31   A    
C40   C47   A    
C14   C56   A    
C5    O7    A    
Cu4   O9    S    
C68   C80   A    
Cu3   Cu4   S    
C81   Cl15  S    
Cu6   O6    S    
C9    O21   A    
C3    C71   S    
Cu5   Cu6   S    
C34   C42   A    
C21   O33   S    
C30   C90   A    
C11   O23   A    
C29   C89   A    
C10   C78   S    
Cu2   O2    S    
O26   H2    S    
C27   C33   A    
C26   C32   A    
C48   Cl6   S    
C43   Cl1   S    
C14   C44   A    
Cu2   O23   S    
C19   C61   A    
C12   C74   S    
C54   Cl12  S    
Cu3   O10   S    
Cu4   O21   S    
C75   C84   A    
C60   C72   A    
C24   O36   S    
C52   Cl10  S    
O36   H12   S    
C28   C41   A    
C8    C76   S    
C82   Cl16  S    
C63   C90   A    
C59   C89   A    
C7    O19   A    
C6    O18   A    
C36   C40   A    
C20   C50   A    
C1    O13   A    
C12   O24   A    
C56   C86   A    
C46   Cl4   S    
C47   Cl5   S    
C3    O15   A    
C28   C88   A    
C44   Cl2   S    
C41   C46   A    
Cu6   O19   S    
C6    O8    A    
Cu3   O3    S    
C12   O2    A    
C5    C67   S    
C13   C43   A    
C6    C68   S    
C4    O16   A    
C28   C34   A    
C9    O3    A    
C15   C57   A    
Cu6   O18   S    
C18   O30   S    
C64   C89   A    
C66   C87   A    
C76   C83   A    
C2    O12   A    
C23   C53   A    
C71   C83   A    
C66   C78   A    
C62   C85   A    
C65   C77   A    
C49   Cl7   S    
C17   O29   S    
O32   H8    S    
C67   C79   A    
C11   C73   S    
C16   C46   A    
Cu1   Cu2   S    
C58   C70   A    
C7    C75   S    
C61   C73   A    
C56   C68   A    
C4    O10   A    
C22   O34   S    
C1    C69   S    
C31   C37   A    
C18   C48   A    
C42   C45   A    
C8    O6    A    
C55   C85   A    
C35   C39   A    
C27   C42   A    
C10   O22   A    
C50   Cl8   S    
C25   C38   A    
C13   O25   S    
C19   C49   A    
Cu2   O11   S    
C80   Cl14  S    
C3    O9    A    
Cu4   O4    S    
Cu5   O20   S    
C26   C86   A    
C4    C72   S    
C25   C85   A    
C64   C76   A    
C9    C77   S    
Cu1   O1    S    
C10   O4    A    
O25   H1    S    
C72   C84   A    
C36   C51   A    
Cu3   O15   S    
C18   C60   A    
C1    O11   A    
C53   Cl11  S    
C16   C58   A    
C32   C38   A    
C74   C79   A    
C15   O27   S    
O31   H7    S    
Cu3   O22   S    
C15   C45   A    
C31   C50   A    
O30   H6    S    
C21   C51   A    
C84   Cl18  S    
Cu5   O8    S    
C65   C88   A    
C22   C52   A    
O29   H5    S    
C33   C54   A    
C51   Cl9   S    
C14   O26   S    
C5    O17   A    
C45   Cl3   S    
Cu1   O12   S    
C23   O35   S    
C17   C47   A    
C58   C88   A    
C79   Cl13  S    
C55   C67   A    
O34   H10   S    
C26   C37   A    
C60   C90   A    
C19   O31   S    
O33   H9    S    
C29   C35   A    
Cu5   O5    S    
C30   C36   A    
C11   O1    A    
C33   C41   A    
Cu1   O13   S    
C37   C44   A    
C17   C59   A    
C38   C43   A    
Cu2   O14   S    
O35   H11   S    
C27   C87   A    
C78   C81   A    
C23   C65   A    
O27   H3    S    
C63   C75   A    
C77   C82   A    
Cu5   O17   S    
C29   C40   A    
Cu4   O16   S    
C73   C80   A    
C30   C39   A    
C20   O32   S    
C20   C62   A    
C70   C82   A    
C16   O28   S    
C32   C49   A    
C21   C63   A    
C69   C81   A    
C61   C86   A    
C8    O20   A    
C22   C64   A    
C57   C87   A    
C24   C66   A    
C34   C53   A    
C7    O5    A    
Cu6   O7    S    
C35   C52   A    
C83   Cl17  S    
Cu1   O24   S    
C62   C74   A    
C57   C69   A    
C2    C70   S    
C24   C54   A    
O28   H4    S    
C59   C71   A    
C39   C48   A    
C13   C55   A    
C2    O14   A    
