data_mof_unit_51620.cif
_audit_creation_date              2012-12-10T18:36:08-0500
_audit_creation_method            fapswitch 2.2
_symmetry_space_group_name_H-M    P1
_symmetry_Int_Tables_number       1
_space_group_crystal_system       triclinic
_cell_length_a                    15.096472
_cell_length_b                    13.807766
_cell_length_c                    15.154668
_cell_angle_alpha                 89.988884
_cell_angle_beta                  87.811224
_cell_angle_gamma                 90.144852
_cell_volume                      3156.65366239

loop_
_atom_site_label
_atom_site_type_symbol
_atom_type_description
_atom_site_fract_x
_atom_site_fract_y
_atom_site_fract_z
_atom_type_partial_charge
C1    C     C_R   0.330209 0.499723 0.495171 0.869962
C2    C     C_R   0.670253 0.500092 0.498856 0.860374
C3    C     C_R   0.368203 0.596923 0.058001 -0.175565
C4    C     C_R   0.640402 0.417860 0.943739 -0.190469
C5    C     C_R   0.097722 0.571805 0.446089 0.496862
C6    C     C_R   0.906223 0.422385 0.454592 0.505685
C7    C     C_R   0.905014 0.577794 0.531798 0.510958
C8    C     C_R   0.092866 0.426623 0.538715 0.507412
C9    C     C_R   0.190036 0.573357 0.449984 -0.267266
C10   C     C_R   0.813492 0.421574 0.459591 -0.293110
C11   C     C_R   0.812701 0.578974 0.530610 -0.309495
C12   C     C_R   0.185623 0.424454 0.534886 -0.308972
C13   C     C_R   0.233903 0.499024 0.492930 -0.165517
C14   C     C_R   0.766838 0.500275 0.496240 -0.174312
C15   C     C_R   0.049110 0.499304 0.492091 -0.043261
C16   C     C_R   0.951929 0.500042 0.492456 -0.039674
C17   C     C_R   0.545520 0.106735 0.564363 0.380185
C18   C     C_R   0.452215 0.893103 0.566615 0.388323
C19   C     C_R   0.454025 0.106505 0.435797 0.387240
C20   C     C_R   0.547345 0.893470 0.433542 0.388300
C21   C     C_R   0.546600 0.209572 0.560809 -0.069406
C22   C     C_R   0.451443 0.790227 0.563033 -0.071029
C23   C     C_R   0.453242 0.209401 0.439268 -0.075621
C24   C     C_R   0.548391 0.790703 0.436978 -0.082493
C25   C     C_R   0.499787 0.054640 0.500077 0.047669
C26   C     C_R   0.499777 0.945301 0.500086 0.044044
C27   C     C_R   0.504302 0.500263 0.328948 0.879020
C28   C     C_R   0.494130 0.500121 0.671532 0.895562
C29   C     C_R   0.566476 0.463663 0.809757 0.379331
C30   C     C_R   0.442338 0.554712 0.191045 0.387986
C31   C     C_R   0.491239 0.500405 0.768769 -0.173801
C32   C     C_R   0.508353 0.502171 0.232630 -0.208517
C33   C     C_R   0.418777 0.539364 0.821151 0.029556
C34   C     C_R   0.578805 0.457830 0.182931 0.031128
C35   C     C_R   0.428246 0.548177 0.913617 0.063012
C36   C     C_R   0.577224 0.460146 0.089137 0.097216
C37   C     C_R   0.501440 0.505683 0.954305 0.006182
C38   C     C_R   0.505921 0.506183 0.047664 -0.006313
C39   C     C_R   0.569466 0.461801 0.902323 0.011862
C40   C     C_R   0.438738 0.552863 0.099107 0.010597
C41   C     C_R   0.363879 0.596432 0.967352 -0.231598
C42   C     C_R   0.644340 0.416982 0.035231 -0.219237
Cu1   Cu    Cu3+1 0.500000 0.596430 0.500000 0.940334
Cu2   Cu    Cu3+1 0.500000 0.403570 0.500000 0.950164
H1    H     H_    0.308513 0.634722 0.940895 0.133379
H2    H     H_    0.701051 0.381815 0.062143 0.152144
H3    H     H_    0.314654 0.631374 0.095625 0.174786
H4    H     H_    0.693433 0.383123 0.905514 0.183926
H5    H     H_    0.227455 0.631384 0.417879 0.186344
H6    H     H_    0.777976 0.360088 0.433941 0.178243
H7    H     H_    0.776993 0.640065 0.559182 0.183203
H8    H     H_    0.220086 0.366345 0.566960 0.178148
H9    H     H_    0.585056 0.250696 0.606455 0.178912
H10   H     H_    0.411800 0.748849 0.610467 0.147567
H11   H     H_    0.414828 0.250495 0.393732 0.158089
H12   H     H_    0.588226 0.749857 0.389450 0.146925
N1    N     N_R   0.500000 0.258690 0.500000 -0.221240
N2    N     N_R   0.500000 0.741310 0.500000 -0.214796
O1    O     O_R   0.371460 0.581430 0.500010 -0.585976
O2    O     O_R   0.628540 0.418570 0.499990 -0.575715
O3    O     O_R   0.628540 0.581430 0.499990 -0.585891
O4    O     O_R   0.371460 0.418570 0.500010 -0.583519
O5    O     O_R   0.499980 0.581440 0.370260 -0.568788
O6    O     O_R   0.500020 0.418560 0.629740 -0.559595
O7    O     O_R   0.500020 0.581440 0.629740 -0.599649
O8    O     O_R   0.499980 0.418560 0.370260 -0.608234
O9    O     O_3   0.635395 0.424140 0.758569 -0.580841
C43   C     C_3   0.699149 0.497099 0.740301 -0.351723
H13   H     H_    0.671214 0.557138 0.701183 0.164221
H14   H     H_    0.754721 0.465075 0.700270 0.199030
H15   H     H_    0.727030 0.526180 0.801865 0.155393
O10   O     O_3   0.377384 0.602238 0.241771 -0.588173
C44   C     C_3   0.399626 0.701670 0.246965 -0.292461
H16   H     H_    0.382986 0.740610 0.185757 0.141851
H17   H     H_    0.470871 0.714063 0.259995 0.155834
H18   H     H_    0.360113 0.734464 0.302442 0.196832
C45   C     C_3   0.327836 0.567175 0.787064 -0.417930
C46   C     C_3   0.302698 0.533614 0.696998 -0.850240
H19   H     H_    0.333224 0.584605 0.649381 0.273444
H20   H     H_    0.322106 0.457142 0.684946 0.247934
H21   H     H_    0.229759 0.539482 0.691061 0.234241
H22   H     H_    0.276179 0.534186 0.832086 0.215044
H23   H     H_    0.320455 0.647271 0.790008 0.196889
C47   C     C_3   0.658150 0.416125 0.229643 -0.392897
C48   C     C_3   0.734663 0.488732 0.228527 -0.856797
H24   H     H_    0.756613 0.507335 0.159878 0.255401
H25   H     H_    0.713808 0.555965 0.263755 0.253288
H26   H     H_    0.791571 0.457318 0.262574 0.234607
H27   H     H_    0.642601 0.397487 0.299428 0.215384
H28   H     H_    0.679547 0.346233 0.199939 0.191369
O11   O     O_3   0.054048 0.644192 0.402074 -0.534422
C49   C     C_3   0.067883 0.630770 0.310341 -0.309493
H29   H     H_    0.048275 0.556616 0.289631 0.142338
H30   H     H_    0.137925 0.645807 0.289206 0.171702
H31   H     H_    0.025667 0.682871 0.275504 0.193974
O12   O     O_3   0.953152 0.344456 0.419321 -0.528597
C50   C     C_3   0.939424 0.337982 0.327992 -0.318753
H32   H     H_    0.872243 0.309267 0.315489 0.161939
H33   H     H_    0.950377 0.408787 0.294027 0.133100
H34   H     H_    0.988154 0.286172 0.298515 0.200960
O13   O     O_3   0.949774 0.654376 0.568615 -0.527686
C51   C     C_3   0.947280 0.642398 0.661065 -0.325862
H35   H     H_    0.977407 0.572318 0.680186 0.143256
H36   H     H_    0.878371 0.647964 0.689383 0.149808
H37   H     H_    0.986783 0.701209 0.690373 0.200257
O14   O     O_3   0.043484 0.355772 0.583323 -0.531848
C52   C     C_3   0.066114 0.352145 0.672811 -0.317247
H38   H     H_    0.073034 0.425597 0.702278 0.128122
H39   H     H_    0.012128 0.314353 0.710830 0.195743
H40   H     H_    0.127675 0.309617 0.680514 0.172001
O15   O     O_3   0.594192 0.055088 0.624507 -0.561974
C53   C     C_3   0.581203 0.092174 0.710850 -0.289849
H41   H     H_    0.510764 0.111916 0.726339 0.162126
H42   H     H_    0.625689 0.154975 0.721302 0.176130
H43   H     H_    0.599256 0.035123 0.758418 0.179471
O16   O     O_3   0.401740 0.944781 0.629104 -0.560844
C54   C     C_3   0.409803 0.906008 0.714651 -0.309373
H44   H     H_    0.479126 0.884331 0.727865 0.161758
H45   H     H_    0.363482 0.844172 0.725567 0.154774
H46   H     H_    0.390603 0.962721 0.763503 0.182358
O17   O     O_3   0.405002 0.054398 0.376012 -0.563281
C55   C     C_3   0.414545 0.093340 0.290004 -0.313599
H47   H     H_    0.484064 0.115786 0.272856 0.159889
H48   H     H_    0.368113 0.154647 0.281800 0.164331
H49   H     H_    0.396491 0.036482 0.242169 0.179171
O18   O     O_3   0.597999 0.945133 0.371115 -0.556477
C56   C     C_3   0.583980 0.910559 0.285079 -0.319122
H50   H     H_    0.512752 0.895097 0.274136 0.153927
H51   H     H_    0.625225 0.845611 0.270536 0.154280
H52   H     H_    0.605342 0.967503 0.237157 0.185745

loop_
_geom_bond_atom_site_label_1
_geom_bond_atom_site_label_2
_ccdc_geom_bond_type
C21   H9    S    
O13   C51   S    
C52   H39   S    
C44   H16   S    
Cu2   O8    S    
O15   C53   S    
C18   C26   A    
Cu1   O7    S    
C4    C42   A    
C53   H42   S    
C50   H32   S    
Cu1   O5    S    
C22   H10   S    
C45   C46   S    
Cu2   O6    S    
C5    C9    A    
O18   C56   S    
C34   C47   S    
C35   C37   A    
C54   H45   S    
C33   C35   A    
C11   C14   A    
C46   H20   S    
O14   C52   S    
C45   H23   S    
C15   C16   S    
O16   C54   S    
C51   H37   S    
C42   H2    S    
C3    H3    S    
C9    C13   A    
Cu1   N2    S    
C50   H33   S    
C29   O9    S    
C36   C42   A    
C3    C41   A    
C20   C24   A    
C43   H13   S    
C52   H38   S    
C31   C33   A    
C34   C36   A    
C2    O3    A    
Cu1   O1    S    
C38   C40   A    
C18   C22   A    
C1    O4    A    
C29   C31   A    
C44   H17   S    
C47   H28   S    
C2    C14   S    
C17   O15   S    
C53   H41   S    
C12   H8    S    
C48   H25   S    
O9    C43   S    
C9    H5    S    
C47   C48   S    
C10   C14   A    
C54   H46   S    
C18   O16   S    
O11   C49   S    
C19   C23   A    
Cu2   O4    S    
C25   C26   S    
C48   H24   S    
C49   H31   S    
C17   C21   A    
C32   C34   A    
C7    C11   A    
Cu1   Cu2   S    
C56   H51   S    
C21   N1    A    
C37   C38   A    
C4    C39   A    
Cu2   N1    S    
C8    C12   A    
O12   C50   S    
C29   C39   A    
C49   H30   S    
C30   C40   A    
C51   H36   S    
O17   C55   S    
C5    O11   S    
C35   C41   A    
C27   O5    A    
C28   O6    A    
C24   N2    A    
C7    C16   A    
C3    C40   A    
C8    C15   A    
C6    O12   S    
C52   H40   S    
C1    C13   S    
C47   H27   S    
C55   H48   S    
C56   H50   S    
C10   H6    S    
C50   H34   S    
Cu1   O3    S    
C4    H4    S    
C48   H26   S    
C23   N1    A    
C19   O17   S    
C27   C32   S    
C46   H19   S    
C28   C31   S    
O10   C44   S    
C8    O14   S    
C22   N2    A    
C30   O10   S    
C23   H11   S    
C24   H12   S    
C17   C25   A    
C55   H49   S    
C1    O1    A    
C28   O7    A    
C56   H52   S    
C37   C39   A    
C27   O8    A    
C54   H44   S    
C30   C32   A    
C46   H21   S    
C33   C45   S    
C20   C26   A    
C45   H22   S    
Cu2   O2    S    
C43   H15   S    
C36   C38   A    
C49   H29   S    
C44   H18   S    
C20   O18   S    
C2    O2    A    
C51   H35   S    
C19   C25   A    
C5    C15   A    
C11   H7    S    
C6    C10   A    
C6    C16   A    
C12   C13   A    
C43   H14   S    
C7    O13   S    
C41   H1    S    
C55   H47   S    
C53   H43   S    
