data_mof_unit_8122.cif
_audit_creation_date              2013-03-05T16:41:34-0500
_audit_creation_method            fapswitch 2.2
_symmetry_space_group_name_H-M    P1
_symmetry_Int_Tables_number       1
_space_group_crystal_system       triclinic
_cell_length_a                    12.893081
_cell_length_b                    10.666925
_cell_length_c                    9.856006
_cell_angle_alpha                 90.407456
_cell_angle_beta                  96.733765
_cell_angle_gamma                 90.243678
_cell_volume                      1346.08959526

loop_
_atom_site_label
_atom_site_type_symbol
_atom_site_description
_atom_site_fract_x
_atom_site_fract_y
_atom_site_fract_z
_atom_type_partial_charge
O1    O     O_R   0.500010 0.316790 0.614690 -0.621469
O2    O     O_R   0.500000 0.316760 0.385350 -0.632056
C1    C     C_R   0.498659 0.259800 0.499601 0.926002
O3    O     O_R   0.346360 0.499990 0.595720 -0.622739
O4    O     O_R   0.346350 0.499960 0.366370 -0.584257
C2    C     C_R   0.298122 0.502092 0.473883 0.927727
Zn1   Zn    Zn3+2 0.500010 0.500020 0.653130 0.994127
Zn2   Zn    Zn3+2 0.499990 0.499980 0.346870 1.019454
O5    O     O_R   0.500000 0.683240 0.614650 -0.593826
O6    O     O_R   0.499990 0.683210 0.385310 -0.574172
O7    O     O_R   0.653650 0.500040 0.633630 -0.639756
O8    O     O_R   0.653640 0.500010 0.404280 -0.636833
C3    C     C_R   0.492888 0.739625 0.499437 0.909374
C4    C     C_R   0.701794 0.502791 0.526416 0.900120
C5    C     C_R   0.813642 0.513040 0.542882 -0.112408
C6    C     C_R   0.186271 0.512718 0.459879 -0.103531
C7    C     C_R   0.021834 0.535001 0.320788 -0.131357
C8    C     C_R   0.129428 0.528092 0.331476 -0.046030
C9    C     C_R   0.136537 0.511385 0.578393 -0.188693
C10   C     C_R   0.029364 0.523435 0.570263 0.047172
C11   C     C_R   0.971710 0.529468 0.438948 0.110459
C12   C     C_R   0.864467 0.525390 0.426652 -0.236549
C13   C     C_R   0.869337 0.514297 0.673410 -0.258748
C14   C     C_R   0.977627 0.522525 0.689008 0.305898
H1    H     H_    0.820873 0.528239 0.325634 0.168835
H2    H     H_    0.828589 0.510677 0.763411 0.196138
H3    H     H_    0.977840 0.542571 0.220498 0.189529
C15   C     C_R   0.503008 0.063962 0.621558 0.066996
C16   C     C_R   0.484596 0.127972 0.499115 -0.161800
C17   C     C_R   0.440942 0.065166 0.380737 -0.231788
H4    H     H_    0.416019 0.116310 0.288685 0.217881
C18   C     C_R   0.431584 0.935124 0.380679 0.307037
C19   C     C_R   0.472538 0.870628 0.499921 -0.269409
C20   C     C_R   0.496923 0.936500 0.622176 0.098963
C21   C     C_3   0.589031 0.926117 0.729802 0.145364
C22   C     C_3   0.595843 0.068317 0.727839 -0.510348
H5    H     H_    0.577991 0.114729 0.823684 0.227511
C23   C     C_R   0.416282 0.453247 0.058017 0.197775
N1    N     N_R   0.499290 0.499140 0.142710 -0.144558
C24   C     C_R   0.577916 0.556734 0.084367 -0.051192
H6    H     H_    0.641708 0.600782 0.148701 0.158765
C25   C     C_R   0.577983 0.556582 0.940379 -0.034375
H7    H     H_    0.641823 0.600395 0.896128 0.158293
N2    N     N_R   0.499290 0.499180 0.857070 -0.121143
C26   C     C_R   0.416714 0.452593 0.915289 0.220131
C27   C     C_3   0.376292 0.321544 0.900504 -0.535602
C28   C     C_3   0.375743 0.321669 0.054889 0.065157
H8    H     H_    0.434251 0.255769 0.865266 0.198791
H9    H     H_    0.431531 0.254509 0.108972 0.128453
H10   H     H_    0.657156 0.877174 0.694530 0.095273
H11   H     H_    0.667243 0.103797 0.687185 0.187915
H12   H     H_    0.297832 0.316688 0.840386 0.244260
N3    N     N_R   0.270527 0.314476 0.096164 0.245552
O9    O     O_R   0.250814 0.237387 0.191554 -0.371720
O10   O     O_R   0.195874 0.384637 0.038607 -0.327335
N4    N     N_R   0.032502 0.531919 0.824559 0.214135
O11   O     O_R   0.994756 0.477163 0.925834 -0.363559
O12   O     O_R   0.106658 0.614667 0.851616 -0.341130
H13   H     H_    0.167852 0.533489 0.239864 0.234799
H14   H     H_    0.181447 0.496697 0.676643 0.211418
N5    N     N_R   0.382776 0.871424 0.260603 0.243419
O13   O     O_R   0.317157 0.780196 0.272348 -0.359857
O14   O     O_R   0.389640 0.917600 0.140100 -0.301994
N6    N     N_R   0.561327 0.879322 0.860206 0.237731
O15   O     O_R   0.631053 0.880817 0.966867 -0.385852
O16   O     O_R   0.469417 0.831560 0.870160 -0.306368

loop_
_geom_bond_atom_site_label_1
_geom_bond_atom_site_label_2
_geom_bond_distance
_ccdc_geom_bond_type
O4    Zn2   2.012500 S    
Zn1   O7    2.012499 S    
C13   C14   1.388928 A    
O6    C3    1.284821 A    
Zn1   O5    1.993496 S    
C16   C17   1.399487 A    
Zn2   N1    2.011121 S    
C27   H12   1.111590 S    
C9    H14   1.081190 S    
C14   N4    1.439201 S    
C21   C22   1.519397 S    
Zn2   O8    1.995429 S    
C28   N3    1.463084 S    
C18   C19   1.415057 A    
C10   C11   1.416949 A    
C21   H10   1.112573 S    
C24   C25   1.419241 A    
C7    C8    1.381168 A    
C15   C20   1.361644 A    
C28   H9    1.111136 S    
O1    Zn1   1.988236 S    
N3    O9    1.299984 A    
N6    O15   1.300606 A    
C21   N6    1.464218 S    
C17   C18   1.391870 A    
C23   C28   1.494455 S    
N5    O13   1.301413 A    
C22   H11   1.112163 S    
C25   N2    1.367745 A    
O3    Zn1   1.995429 S    
O4    C2    1.290079 A    
C6    C8    1.397169 A    
C22   H5    1.111644 S    
C5    C12   1.391594 A    
N4    O12   1.301541 A    
C18   N5    1.438255 S    
C19   C20   1.393449 A    
O2    C1    1.285180 A    
N3    O10   1.300949 A    
C6    C9    1.396990 A    
C17   H4    1.078971 S    
O7    C4    1.287194 A    
C27   H8    1.110477 S    
O3    C2    1.286333 A    
C25   H7    1.081627 S    
C5    C13   1.397825 A    
C2    C6    1.437530 S    
C7    H3    1.084137 S    
C26   C27   1.489974 S    
C8    H13   1.081390 S    
C23   N1    1.364569 A    
N4    O11   1.301584 A    
C15   C22   1.495618 S    
Zn2   O6    1.988234 S    
C20   C21   1.501716 S    
C27   C28   1.522454 S    
C13   H2    1.083491 S    
O2    Zn2   1.993496 S    
N1    C24   1.368267 A    
C1    C16   1.416975 S    
O5    C3    1.282725 A    
C4    C5    1.435747 S    
C15   C16   1.387388 A    
C23   C26   1.407365 A    
C24   H6    1.081418 S    
C11   C12   1.374234 A    
Zn1   N2    2.011226 S    
C10   C14   1.413496 A    
N5    O14   1.301387 A    
C7    C11   1.398044 A    
N2    C26   1.361078 A    
C9    C10   1.381288 A    
C3    C19   1.422992 S    
O8    C4    1.288209 A    
O1    C1    1.281401 A    
C12   H1    1.085120 S    
N6    O16   1.302409 A    
