data_mof_unit_68244.cif
_audit_creation_date              2012-12-11T14:19:34-0500
_audit_creation_method            fapswitch 2.2
_symmetry_space_group_name_H-M    P1
_symmetry_Int_Tables_number       1
_space_group_crystal_system       triclinic
_cell_length_a                    8.245718
_cell_length_b                    12.667954
_cell_length_c                    15.066242
_cell_angle_alpha                 95.288293
_cell_angle_beta                  99.032131
_cell_angle_gamma                 97.969512
_cell_volume                      1528.7610209

loop_
_atom_site_label
_atom_site_type_symbol
_atom_type_description
_atom_site_fract_x
_atom_site_fract_y
_atom_site_fract_z
_atom_type_partial_charge
Ba1   Ba    Ba6+2 0.153570 0.551840 0.456200 1.691580
Ba2   Ba    Ba6+2 0.656590 0.448150 0.543720 1.677874
C1    C     C_3   0.334033 0.811760 0.113936 -0.357568
C2    C     C_R   0.725784 0.816084 0.470894 -0.249072
C3    C     C_R   0.691905 0.995496 0.437258 -0.088106
C4    C     C_3   0.884176 0.831867 0.246889 0.336993
C5    C     C_R   0.626839 0.886954 0.433593 -0.001185
C6    C     C_R   0.888322 0.851599 0.515749 0.047653
C7    C     C_R   0.954114 0.964095 0.522877 -0.000835
C8    C     C_R   0.854317 0.037390 0.482310 -0.007162
C9    C     C_R   0.918620 0.150447 0.490656 0.082228
C10   C     C_R   0.179148 0.114840 0.573671 -0.032176
C11   C     C_R   0.115541 0.005831 0.569269 -0.092957
C12   C     C_3   0.375199 0.782575 0.209639 0.340617
C13   C     C_R   0.234157 0.458979 0.766521 -0.265882
C14   C     C_R   0.137024 0.418752 0.826820 -0.000020
C15   C     C_R   0.203662 0.426014 0.919054 -0.106518
C16   C     C_3   0.830806 0.923980 0.198290 -0.378454
C17   C     C_R   0.365642 0.482000 0.953299 0.023209
C18   C     C_R   0.450150 0.535834 0.891593 -0.126150
C19   C     C_R   0.388671 0.519821 0.798911 0.018219
C20   C     C_R   0.615314 0.529513 0.082471 -0.084319
C21   C     C_R   0.675477 0.561594 0.175178 -0.009001
C22   C     C_R   0.415851 0.477260 0.210920 0.040002
C23   C     C_3   0.689288 0.771820 0.773903 0.246058
C24   C     C_R   0.346075 0.462160 0.118928 -0.105819
C25   C     C_R   0.442549 0.491524 0.052457 -0.026766
C26   C     C_R   0.575130 0.534619 0.238737 -0.298046
C27   C     C_3   0.636782 0.236973 0.262018 0.247661
C28   C     C_3   0.511075 0.133212 0.242484 -0.315673
C29   C     C_3   0.085174 0.685785 0.728114 0.299973
C30   C     C_3   0.142828 0.717155 0.829396 -0.388666
C31   C     C_3   0.222252 0.231433 0.353422 0.302139
C32   C     C_3   0.151544 0.112119 0.332221 -0.427939
C33   C     C_2   0.648463 0.933039 0.697993 0.913131
C34   C     C_3   0.708595 0.893979 0.786323 -0.204973
C35   C     C_2   0.737218 0.504202 0.024723 0.919704
C36   C     C_2   0.677992 0.274561 0.174939 0.849241
C37   C     C_3   0.964730 0.176111 0.829880 0.289472
C38   C     C_3   0.976236 0.138874 0.924542 -0.363033
C39   C     C_3   0.442716 0.219838 0.789921 0.358651
C40   C     C_3   0.445967 0.182281 0.882963 -0.301046
C41   C     C_R   0.078432 0.186411 0.539060 -0.264092
H1    H     H_    0.291596 0.707744 0.214704 0.096501
H2    H     H_    0.338758 0.241196 0.403793 0.056987
H3    H     H_    0.358420 0.747499 0.064854 0.072971
H4    H     H_    0.172424 0.078956 0.264489 0.154940
H5    H     H_    0.015200 0.099349 0.331972 0.096505
H6    H     H_    0.212385 0.066146 0.384304 0.104109
H7    H     H_    0.505760 0.768013 0.221462 -0.061945
H8    H     H_    0.411366 0.888292 0.106848 0.108276
H9    H     H_    0.733327 0.742670 0.839165 0.023209
H10   H     H_    0.764686 0.748706 0.723233 0.034074
H11   H     H_    0.841429 0.927717 0.810772 0.011555
H12   H     H_    0.466254 0.113670 0.304721 0.099750
H13   H     H_    0.634610 0.920243 0.837407 0.066442
H14   H     H_    0.201139 0.820751 0.098367 0.159864
H15   H     H_    0.722810 0.893906 0.143584 0.115870
H16   H     H_    0.930508 0.105009 0.778219 0.104702
H17   H     H_    0.091475 0.213208 0.821884 -0.063842
H18   H     H_    0.850324 0.103573 0.936547 0.136604
H19   H     H_    0.060841 0.077364 0.929816 0.075784
H20   H     H_    0.029253 0.207458 0.978298 0.121501
H21   H     H_    0.322745 0.247948 0.769650 -0.090205
H22   H     H_    0.543433 0.288978 0.794350 0.118459
H23   H     H_    0.402074 0.141697 0.191737 0.122640
H24   H     H_    0.347819 0.111559 0.879492 0.089947
H25   H     H_    0.422984 0.247943 0.931564 0.129336
H26   H     H_    0.992129 0.862905 0.300870 0.074930
H27   H     H_    0.569192 0.159517 0.907443 0.170045
H28   H     H_    0.611740 0.046545 0.407326 0.089488
H29   H     H_    0.194033 0.954552 0.601710 0.133340
H30   H     H_    0.129584 0.270613 0.544530 0.052617
H31   H     H_    0.673567 0.732259 0.467199 0.069449
H32   H     H_    0.126471 0.389136 0.962154 0.047440
H33   H     H_    0.218130 0.424661 0.101223 0.104400
H34   H     H_    0.567715 0.065718 0.215471 0.111777
H35   H     H_    0.561470 0.593346 0.914389 0.063207
H36   H     H_    0.779408 0.798423 0.278824 -0.067346
H37   H     H_    0.183996 0.450649 0.694983 0.055374
H38   H     H_    0.794336 0.982925 0.247323 0.073574
H39   H     H_    0.934114 0.963408 0.167876 0.132627
H40   H     H_    0.585892 0.301658 0.297752 -0.047614
H41   H     H_    0.972590 0.624136 0.717745 0.057618
H42   H     H_    0.462745 0.923869 0.592758 0.314611
H43   H     H_    0.841869 0.384712 0.970900 0.324393
H44   H     H_    0.625710 0.551173 0.310203 0.072486
H45   H     H_    0.183970 0.652224 0.698502 0.035044
H46   H     H_    0.842309 0.396470 0.242174 0.276895
H47   H     H_    0.265635 0.769494 0.842046 0.137210
H48   H     H_    0.153188 0.644933 0.864575 0.081978
H49   H     H_    0.051978 0.761007 0.858162 0.119583
H50   H     H_    0.131681 0.274424 0.383043 0.035123
O1    O     O_2   0.168170 0.764170 0.543850 -0.429891
O2    O     O_2   0.811482 0.443371 0.819675 -0.466015
O3    O     O_3   0.839542 0.242046 0.816655 -0.576841
O4    O     O_3   0.898670 0.629780 0.545890 -0.503768
O5    O     O_3   0.409490 0.443300 0.392340 -0.501010
O6    O     O_2   0.674250 0.555830 0.719690 -0.473720
O7    O     O_3   0.522738 0.730217 0.742905 -0.617465
O8    O     O_2   0.513914 0.115899 0.560367 -0.457751
O9    O     O_3   0.465726 0.135229 0.727893 -0.569923
O10   O     O_3   0.365980 0.695510 0.380810 -0.485125
O11   O     O_2   0.286370 0.883224 0.434978 -0.501546
O12   O     O_3   0.255289 0.272292 0.273724 -0.632949
O13   O     O_3   0.050312 0.777524 0.688638 -0.630552
O14   O     O_3   0.351786 0.866776 0.271573 -0.610338
O15   O     O_2   0.136040 0.444100 0.280280 -0.439191
O16   O     O_3   0.934510 0.640480 0.335500 -0.501662
O17   O     O_2   0.021355 0.569152 0.180753 -0.442264
O18   O     O_2   0.744482 0.989299 0.661886 -0.645280
O19   O     O_R   0.483401 0.901345 0.655622 -0.707627
O20   O     O_2   0.841346 0.574796 0.008017 -0.614725
O21   O     O_R   0.735657 0.396998 0.992865 -0.700701
O22   O     O_2   0.606536 0.229329 0.101083 -0.600755
O23   O     O_3   0.929570 0.756852 0.184312 -0.581643
O24   O     O_R   0.804805 0.359834 0.178306 -0.712233
O25   O     O_2   0.642110 0.235770 0.456130 -0.482685
O26   O     O_3   0.911620 0.370210 0.454030 -0.487383
O27   O     O_3   0.444310 0.304480 0.619110 -0.489823
O28   O     O_3   0.786620 0.217344 0.311242 -0.667021
O29   O     O_3   0.400800 0.556680 0.607590 -0.454382
O30   O     O_3   0.875770 0.359510 0.664420 -0.464279
P1    P     P_3+3 0.998660 0.747790 0.570900 0.999402
P2    P     P_3+3 0.306970 0.411860 0.294270 0.992365
P3    P     P_3+3 0.890509 0.628776 0.217958 1.011041
P4    P     P_3+3 0.811620 0.252200 0.429030 0.969677
P5    P     P_3+3 0.918338 0.364923 0.782588 0.975343
P6    P     P_3+3 0.409018 0.834536 0.381632 0.946681
P7    P     P_3+3 0.498526 0.590831 0.720569 0.968998
P8    P     P_3+3 0.399750 0.165934 0.618530 0.993811

loop_
_geom_bond_atom_site_label_1
_geom_bond_atom_site_label_2
_ccdc_geom_bond_type
C41   H30   S    
C4    H26   S    
C10   P8    S    
O27   P8    S    
C31   H2    S    
C39   C40   S    
C33   C34   S    
O14   P6    S    
H42   O19   S    
Ba2   O25   S    
C30   H49   S    
Ba2   O30   S    
C37   O3    S    
C24   C25   A    
C38   H20   S    
Ba1   P2    S    
O28   P4    S    
C10   C41   A    
O7    P7    S    
C30   H48   S    
C14   C15   A    
C13   C14   A    
C40   H27   S    
C16   H38   S    
C38   H19   S    
C39   O9    S    
O3    P5    S    
Ba1   Ba2   S    
Ba1   O26   S    
C7    C11   A    
Ba1   O29   S    
Ba1   O16   S    
C36   O24   S    
O2    P5    D    
C16   H15   S    
O5    P2    S    
C30   H47   S    
C13   H37   S    
Ba2   O4    S    
C6    C7    A    
C27   O28   S    
C27   C36   S    
C24   H33   S    
C9    C41   A    
O15   P2    D    
C17   C25   S    
C7    C8    A    
Ba1   O10   S    
C2    H31   S    
C2    C6    A    
Ba2   P4    S    
O23   P3    S    
C40   H25   S    
C28   H34   S    
C2    C5    A    
C16   H39   S    
Ba2   O29   S    
C4    C16   S    
C5    P6    S    
C31   O12   S    
O9    P8    S    
Ba1   O4    S    
C37   C38   S    
C3    C5    A    
C1    H8    S    
C6    P1    S    
C39   H22   S    
C35   O21   S    
Ba1   O15   S    
C20   C35   S    
C29   H41   S    
C9    P4    S    
C27   C28   S    
C34   H13   S    
C14   P5    S    
C23   O7    S    
C29   C30   S    
C37   H16   S    
C26   H44   S    
C31   C32   S    
C21   C26   A    
C10   C11   A    
O10   P6    S    
C4    O23   S    
C28   H23   S    
C1    C12   S    
O17   P3    D    
C21   P3    S    
C1    H14   S    
C12   O14   S    
H46   O24   S    
Ba2   O6    S    
O11   P6    D    
C40   H24   S    
C29   O13   S    
C32   H5    S    
O25   P4    D    
O8    P8    D    
C33   O18   D    
C12   H1    S    
C32   H6    S    
Ba2   O27   S    
C29   H45   S    
O6    P7    D    
C22   C26   A    
C23   H10   S    
C31   H50   S    
Ba1   O5    S    
Ba1   O1    S    
Ba2   O26   S    
C27   H40   S    
C11   H29   S    
C18   H35   S    
O4    P1    S    
C28   H12   S    
C1    H3    S    
C20   C25   A    
O12   P2    S    
H43   O21   S    
C17   C18   A    
Ba1   P1    S    
C3    C8    A    
C3    H28   S    
C36   O22   D    
C22   C24   A    
O30   P5    S    
C12   H7    S    
C37   H17   S    
C15   C17   A    
C19   P7    S    
C23   H9    S    
C34   H11   S    
C8    C9    A    
C38   H18   S    
C23   C34   S    
C4    H36   S    
O16   P3    S    
C13   C19   A    
C35   O20   D    
C18   C19   A    
Ba2   O5    S    
O13   P1    S    
C15   H32   S    
C20   C21   A    
C32   H4    S    
C39   H21   S    
C22   P2    S    
O29   P7    S    
C33   O19   S    
O26   P4    S    
O1    P1    D    
