data_mof_unit_54388.cif
_audit_creation_date              2012-12-10T19:47:25-0500
_audit_creation_method            fapswitch 2.2
_symmetry_space_group_name_H-M    P1
_symmetry_Int_Tables_number       1
_space_group_crystal_system       triclinic
_cell_length_a                    10.818862
_cell_length_b                    10.854656
_cell_length_c                    12.701956
_cell_angle_alpha                 93.048562
_cell_angle_beta                  92.89102
_cell_angle_gamma                 90.385615
_cell_volume                      1487.58152487

loop_
_atom_site_label
_atom_site_type_symbol
_atom_type_description
_atom_site_fract_x
_atom_site_fract_y
_atom_site_fract_z
_atom_type_partial_charge
C1    C     C_R   0.261854 0.497408 0.500776 0.786075
C2    C     C_R   0.738079 0.503562 0.499286 0.794886
C3    C     C_R   0.493908 0.871681 0.497824 -0.082932
C4    C     C_R   0.505847 0.128300 0.502311 -0.085212
C5    C     C_R   0.452521 0.933663 0.407566 -0.005270
C6    C     C_R   0.547252 0.066303 0.592615 -0.006168
C7    C     C_R   0.232014 0.207659 0.735635 -0.111659
C8    C     C_R   0.775894 0.799092 0.262701 -0.118933
C9    C     C_R   0.175754 0.272747 0.654887 -0.162204
C10   C     C_R   0.830241 0.734137 0.344484 -0.166549
C11   C     C_R   0.129557 0.391658 0.675779 0.103842
C12   C     C_R   0.870425 0.612627 0.325668 0.096215
C13   C     C_R   0.141113 0.446233 0.779939 0.141803
C14   C     C_R   0.854409 0.555224 0.222883 0.147411
C15   C     C_R   0.199350 0.379432 0.860039 -0.167866
C16   C     C_R   0.799368 0.622259 0.141473 -0.165716
C17   C     C_R   0.244118 0.260927 0.837997 -0.143017
C18   C     C_R   0.760540 0.743366 0.161336 -0.146440
C19   C     C_R   0.937692 0.458117 0.584450 -0.254340
C20   C     C_R   0.062212 0.545280 0.416456 -0.235866
C21   C     C_R   0.871653 0.505432 0.498534 -0.082457
C22   C     C_R   0.128224 0.497312 0.502095 -0.091114
C23   C     C_R   0.503732 0.261880 0.500834 0.792630
C24   C     C_R   0.496166 0.738108 0.499193 0.790489
C25   C     C_R   0.934246 0.550784 0.413880 -0.007666
C26   C     C_R   0.065693 0.453793 0.587665 0.005984
C27   C     C_2   0.478275 0.456593 0.030943 -0.277593
C28   C     C_2   0.521524 0.543278 0.969046 -0.277911
C29   C     C_1   0.520444 0.528123 0.852912 0.201630
C30   C     C_1   0.479474 0.471783 0.147085 0.208210
C31   C     C_R   0.765180 0.251027 0.785898 -0.127322
C32   C     C_R   0.235479 0.748935 0.213704 -0.133165
C33   C     C_R   0.712472 0.197128 0.691304 -0.102095
C34   C     C_R   0.287181 0.803736 0.308306 -0.101576
C35   C     C_R   0.601375 0.129118 0.691348 0.138023
C36   C     C_R   0.398970 0.870639 0.308790 0.137515
C37   C     C_R   0.545769 0.114075 0.787608 -0.144712
C38   C     C_R   0.456373 0.883695 0.213092 -0.142060
C39   C     C_R   0.597824 0.169569 0.881491 -0.148227
C40   C     C_R   0.405202 0.827437 0.119181 -0.143634
C41   C     C_R   0.707293 0.238278 0.880611 -0.108660
C42   C     C_R   0.295117 0.759620 0.119558 -0.111233
C43   C     C_R   0.539621 0.938581 0.588966 -0.250795
C44   C     C_R   0.460001 0.061377 0.411202 -0.250631
Cu1   Cu    Cu3+1 0.492140 0.492110 0.395880 0.976850
Cu2   Cu    Cu3+1 0.507860 0.507890 0.604120 0.970815
H1    H     H_    0.747983 0.280564 0.953471 0.123520
H2    H     H_    0.255427 0.716269 0.046768 0.126684
H3    H     H_    0.210401 0.419402 0.939916 0.129644
H4    H     H_    0.786026 0.580201 0.062430 0.129538
H5    H     H_    0.889155 0.421647 0.648446 0.146371
H6    H     H_    0.110777 0.581428 0.352387 0.146875
H7    H     H_    0.558186 0.629297 0.005688 0.157270
H8    H     H_    0.441744 0.370509 0.994336 0.158012
H9    H     H_    0.851586 0.301706 0.786489 0.120005
H10   H     H_    0.148551 0.699127 0.212689 0.115042
H11   H     H_    0.758575 0.207205 0.618468 0.100424
H12   H     H_    0.239879 0.795087 0.380743 0.100058
H13   H     H_    0.462528 0.058728 0.790072 0.110535
H14   H     H_    0.540457 0.937862 0.211166 0.111556
H15   H     H_    0.553898 0.158229 0.955107 0.115745
H16   H     H_    0.450396 0.837316 0.045952 0.116614
H17   H     H_    0.573376 0.890927 0.657495 0.161738
H18   H     H_    0.426260 0.108966 0.342630 0.161913
H19   H     H_    0.288073 0.210183 0.900484 0.118864
H20   H     H_    0.718329 0.794058 0.098019 0.120760
H21   H     H_    0.265403 0.115409 0.718632 0.122828
H22   H     H_    0.746670 0.893184 0.277984 0.125090
H23   H     H_    0.166749 0.229804 0.575858 0.118153
H24   H     H_    0.842512 0.779122 0.422569 0.121698
N1    N     N_1   0.480320 0.480250 0.239400 -0.153146
N2    N     N_1   0.519680 0.519750 0.760600 -0.156379
O1    O     O_R   0.313000 0.493330 0.412070 -0.579739
O2    O     O_R   0.687000 0.506670 0.587930 -0.582952
O3    O     O_R   0.326280 0.506660 0.587930 -0.578982
O4    O     O_R   0.673720 0.493340 0.412070 -0.572302
O5    O     O_R   0.493370 0.312980 0.412070 -0.588791
O6    O     O_R   0.506630 0.687020 0.587930 -0.592150
O7    O     O_R   0.506650 0.326310 0.587930 -0.558761
O8    O     O_R   0.493350 0.673690 0.412070 -0.559676
C45   C     C_3   0.093467 0.574171 0.807924 -0.453464
C46   C     C_3   0.180159 0.674532 0.772314 -0.288608
C47   C     C_3   0.136258 0.803175 0.806467 -0.878524
H25   H     H_    0.042406 0.819715 0.770707 0.260294
H26   H     H_    0.133756 0.813444 0.893790 0.252231
H27   H     H_    0.200974 0.873575 0.779749 0.237045
H28   H     H_    0.275160 0.661272 0.807183 0.222259
H29   H     H_    0.183631 0.668741 0.685069 0.230726
H30   H     H_    0.998725 0.585301 0.772194 0.203398
H31   H     H_    0.085668 0.586753 0.894851 0.183826
C48   C     C_3   0.890370 0.422664 0.198388 -0.415319
C49   C     C_3   0.006672 0.415288 0.134161 -0.370528
C50   C     C_3   0.044200 0.281466 0.112063 -0.831474
H32   H     H_    0.061874 0.235301 0.187278 0.255272
H33   H     H_    0.970001 0.230610 0.063741 0.250391
H34   H     H_    0.130302 0.278450 0.068164 0.235869
H35   H     H_    0.989341 0.459076 0.057704 0.208659
H36   H     H_    0.084491 0.465279 0.178542 0.222115
H37   H     H_    0.906768 0.372845 0.271855 0.209809
H38   H     H_    0.812072 0.374137 0.153191 0.190607

loop_
_geom_bond_atom_site_label_1
_geom_bond_atom_site_label_2
_ccdc_geom_bond_type
C50   H32   S    
Cu1   N1    S    
C30   N1    T    
C27   H8    S    
C43   H17   S    
C39   C41   A    
Cu1   Cu2   S    
C44   H18   S    
C3    C43   A    
Cu1   O4    S    
C28   C29   S    
C19   C21   A    
C9    H23   S    
Cu2   O7    S    
C20   C25   A    
C46   H28   S    
C5    C36   S    
C13   C45   S    
C40   H16   S    
C6    C35   S    
Cu1   O1    S    
C19   C26   A    
C24   O8    A    
C7    C17   A    
C31   C33   A    
C48   H38   S    
Cu2   N2    S    
C2    O2    A    
C29   N2    T    
C45   H30   S    
C40   C42   A    
C1    C22   S    
C50   H33   S    
C27   C30   S    
C3    C24   S    
Cu2   O3    S    
C49   H35   S    
C45   C46   S    
C39   H15   S    
C49   H36   S    
C1    O3    A    
C4    C6    A    
C48   C49   S    
Cu2   O6    S    
C4    C23   S    
C4    C44   A    
C11   C26   S    
C8    C18   A    
C32   C34   A    
C47   H25   S    
C2    C21   S    
C41   H1    S    
C42   H2    S    
C23   O5    A    
C9    C11   A    
C37   H13   S    
C10   C12   A    
C38   H14   S    
C45   H31   S    
C10   H24   S    
C24   O6    A    
C47   H26   S    
C5    C44   A    
C12   C14   A    
C8    H22   S    
C50   H34   S    
C6    C43   A    
C13   C15   A    
C14   C16   A    
Cu2   O2    S    
C2    O4    A    
C7    C9    A    
C21   C25   A    
C33   H11   S    
C31   C41   A    
C35   C37   A    
C8    C10   A    
C20   C22   A    
C3    C5    A    
C28   H7    S    
C15   C17   A    
C18   H20   S    
C17   H19   S    
C12   C25   S    
C20   H6    S    
C1    O1    A    
C31   H9    S    
C36   C38   A    
C37   C39   A    
C48   H37   S    
C38   C40   A    
C11   C13   A    
C46   H29   S    
C49   C50   S    
C33   C35   A    
Cu1   O8    S    
C34   C36   A    
C15   H3    S    
C16   H4    S    
C14   C48   S    
C7    H21   S    
C19   H5    S    
C47   H27   S    
C16   C18   A    
C46   C47   S    
C22   C26   A    
C27   C28   D    
C34   H12   S    
C32   C42   A    
Cu1   O5    S    
C23   O7    A    
C32   H10   S    
