data_mof_unit_62232.cif
_audit_creation_date              2012-10-26T17:30:54-0400
_audit_creation_method            fapswitch 2.2
_symmetry_space_group_name_H-M    P1
_symmetry_Int_Tables_number       1
_space_group_crystal_system       triclinic
_cell_length_a                    27.851531
_cell_length_b                    27.821173
_cell_length_c                    27.964296
_cell_angle_alpha                 109.303073
_cell_angle_beta                  109.692393
_cell_angle_gamma                 109.102639
_cell_volume                      16744.7022088

loop_
_atom_site_label
_atom_site_type_symbol
_atom_type_description
_atom_site_fract_x
_atom_site_fract_y
_atom_site_fract_z
_atom_type_partial_charge
C1    C     C_R   0.920483 0.920490 0.499988 0.552834
C2    C     C_R   0.705840 0.706443 0.499606 0.038836
C3    C     C_3   0.445025 0.317785 0.222539 -0.392230
C4    C     C_R   0.558438 0.276104 0.370927 0.040530
C5    C     C_R   0.609522 0.329716 0.414319 -0.092290
C6    C     C_R   0.636542 0.341345 0.472059 -0.107144
C7    C     C_R   0.612823 0.299572 0.486785 -0.100633
C8    C     C_R   0.561999 0.246118 0.443798 -0.108740
C9    C     C_R   0.534784 0.234358 0.386028 -0.079911
C10   C     C_R   0.559044 0.186534 0.281090 0.040518
C11   C     C_R   0.525986 0.126633 0.261246 -0.094552
C12   C     C_R   0.553909 0.095913 0.275855 -0.111200
C13   C     C_R   0.690396 0.735369 0.468826 0.021937
C14   C     C_R   0.614890 0.124731 0.310500 -0.107190
C15   C     C_R   0.648072 0.184393 0.330676 -0.117430
C16   C     C_R   0.620350 0.215255 0.315921 -0.083377
C17   C     C_3   0.588045 0.798328 0.877013 -0.399179
C18   C     C_3   0.586863 0.707589 0.785550 -0.394708
C19   C     C_3   0.421591 0.792029 0.720132 -0.401404
C20   C     C_R   0.726472 0.925620 0.141431 0.040582
C21   C     C_R   0.705063 0.865239 0.119817 -0.088964
C22   C     C_R   0.693337 0.829524 0.063888 -0.110312
C23   C     C_R   0.702834 0.853750 0.029219 -0.106364
C24   C     C_R   0.920218 0.000177 0.420202 0.553744
C25   C     C_R   0.723996 0.913753 0.050372 -0.113918
C26   C     C_R   0.735887 0.949630 0.106311 -0.092543
C27   C     C_R   0.784122 0.115073 0.267907 0.036305
C28   C     C_R   0.834161 0.146853 0.266683 -0.100124
C29   C     C_R   0.848873 0.202773 0.273622 -0.111758
C30   C     C_R   0.813760 0.227224 0.281713 -0.101578
C31   C     C_R   0.763902 0.195836 0.282978 -0.107794
C32   C     C_R   0.749155 0.140013 0.276255 -0.079940
C33   C     C_R   0.781064 0.083974 0.366954 0.034716
C34   C     C_R   0.740954 0.086492 0.386226 -0.108117
C35   C     C_R   0.734893 0.779244 0.469263 0.018590
C36   C     C_R   0.760127 0.130915 0.441574 -0.117352
C37   C     C_R   0.819360 0.173293 0.478100 -0.101841
C38   C     C_R   0.859509 0.171495 0.459201 -0.106842
C39   C     C_R   0.840477 0.127245 0.403844 -0.077178
C40   C     C_3   0.873017 0.780251 0.564467 -0.396146
C41   C     C_3   0.779065 0.688381 0.562923 -0.393736
C42   C     C_3   0.626876 0.719858 0.435511 -0.396039
C43   C     C_R   0.794043 0.793631 0.500333 0.040049
C44   C     C_R   0.809489 0.764716 0.531122 0.022374
C45   C     C_1   0.660938 0.661422 0.499681 -0.062146
C46   C     C_1   0.838956 0.838631 0.500259 -0.060144
C47   C     C_1   0.876153 0.876026 0.500106 -0.035545
C48   C     C_1   0.623778 0.624003 0.499854 -0.036141
C49   C     C_3   0.792377 0.001954 0.294500 0.013624
C50   C     C_R   0.288519 0.981179 0.740142 -0.023979
C51   C     C_R   0.295401 0.001743 0.796754 0.018041
C52   C     C_R   0.257901 0.021502 0.809361 0.024029
C53   C     C_R   0.079533 0.079526 0.499999 0.553803
C54   C     C_R   0.213020 0.020165 0.764409 0.018679
C55   C     C_R   0.206564 0.999621 0.707883 0.013870
C56   C     C_R   0.244125 0.980227 0.695701 -0.023585
C57   C     C_1   0.340565 0.001151 0.841390 -0.053067
C58   C     C_1   0.161734 0.999616 0.662252 -0.054318
C59   C     C_1   0.124433 0.999689 0.624514 -0.026572
C60   C     C_3   0.767457 0.054809 0.260486 -0.008224
C61   C     C_1   0.378143 0.000653 0.878428 -0.027059
C62   C     C_R   0.239947 0.285024 0.480365 -0.112242
C63   C     C_R   0.296425 0.292422 0.501312 0.026311
C64   C     C_R   0.309912 0.256239 0.522621 0.032278
C65   C     C_R   0.079919 0.999933 0.579875 0.553935
C66   C     C_R   0.265447 0.212448 0.522514 0.024056
C67   C     C_R   0.208153 0.205576 0.501030 0.058328
C68   C     C_R   0.195676 0.242222 0.479884 0.003017
C69   C     C_1   0.339746 0.337837 0.500436 -0.062839
C70   C     C_1   0.162325 0.161113 0.500593 -0.059023
C71   C     C_3   0.707619 0.000211 0.212312 0.021330
C72   C     C_1   0.124395 0.123960 0.500300 -0.037054
C73   C     C_1   0.376300 0.375638 0.500015 -0.030427
C74   C     C_R   0.502313 0.079601 0.081748 0.553637
C75   C     C_R   0.582372 1.000000 0.082394 0.557462
C76   C     C_R   0.502928 0.920573 0.923365 0.556573
C77   C     C_3   0.701626 0.983104 0.258114 -0.003988
C78   C     C_R   0.422759 0.000173 0.922699 0.554275
C79   C     C_R   0.500493 0.420573 0.420913 0.555233
C80   C     C_R   0.579466 0.579506 0.499968 0.554666
C81   C     C_R   0.499580 0.579494 0.579174 0.556071
C82   C     C_3   0.799209 0.019437 0.249209 -0.125628
C83   C     C_R   0.420519 0.420455 0.500029 0.556511
C84   C     C_R   0.473946 0.282553 0.236097 0.018834
C85   C     C_R   0.502254 0.294882 0.294630 0.014166
C86   C     C_R   0.529884 0.263483 0.309447 -0.023396
C87   C     C_R   0.529261 0.219220 0.265535 -0.023760
C88   C     C_R   0.500856 0.206473 0.206915 0.018112
C89   C     C_3   0.732728 0.946763 0.246516 -0.112609
C90   C     C_R   0.473006 0.237888 0.191747 0.024487
C91   C     C_1   0.501735 0.339336 0.339674 -0.053753
C92   C     C_1   0.501540 0.161542 0.162630 -0.053953
C93   C     C_3   0.738891 0.964803 0.201244 0.011282
C94   C     C_1   0.501974 0.124095 0.125784 -0.027857
C95   C     C_1   0.501153 0.376364 0.376824 -0.025510
C96   C     C_R   0.544051 0.729544 0.768829 0.032480
C97   C     C_R   0.503574 0.706687 0.709408 0.025896
C98   C     C_R   0.464564 0.727471 0.694775 -0.108299
C99   C     C_R   0.464441 0.770822 0.738043 0.000637
C100  C     C_R   0.504294 0.794046 0.797533 0.054443
C101  C     C_1   0.875711 0.000576 0.375904 -0.028124
C102  C     C_R   0.544470 0.773651 0.813309 0.024985
C103  C     C_1   0.501021 0.661696 0.662285 -0.063386
C104  C     C_1   0.838227 0.001167 0.339029 -0.061296
C105  C     C_1   0.503587 0.838824 0.841968 -0.058069
C106  C     C_1   0.503150 0.876106 0.879049 -0.032010
C107  C     C_1   0.499732 0.624151 0.623753 -0.031190
C108  C     C_1   0.626501 0.000127 0.127404 -0.026829
C109  C     C_3   0.761742 0.037960 0.306615 0.006786
C110  C     C_3   0.720816 0.811681 0.436985 -0.395981
C111  C     C_R   0.237737 0.959982 0.636520 0.040842
C112  C     C_R   0.188339 0.907452 0.588563 -0.091681
C113  C     C_R   0.182496 0.888431 0.532943 -0.106721
C114  C     C_R   0.225882 0.921640 0.524904 -0.099988
C115  C     C_1   0.663069 0.000034 0.165559 -0.064081
C116  C     C_R   0.275174 0.973953 0.572474 -0.109602
C117  C     C_R   0.281145 0.993166 0.628148 -0.081470
C118  C     C_R   0.327295 0.959552 0.727007 0.040017
C119  C     C_R   0.304597 0.899724 0.690032 -0.080124
C120  C     C_R   0.341080 0.879545 0.677442 -0.111211
C121  C     C_R   0.400302 0.918911 0.701614 -0.104926
C122  C     C_R   0.423192 0.978487 0.738568 -0.108746
C123  C     C_R   0.386867 0.998843 0.751267 -0.094170
C124  C     C_3   0.265312 0.043965 0.870219 -0.395559
C125  C     C_3   0.171362 0.040471 0.775216 -0.392570
C126  C     C_R   0.764990 0.720831 0.530668 0.016988
C127  C     C_3   0.135971 0.237611 0.456326 -0.403281
C128  C     C_3   0.371095 0.263651 0.545508 -0.394678
C129  C     C_3   0.280104 0.173712 0.545456 -0.398054
C130  C     C_3   0.442284 0.224186 0.128770 -0.395329
C131  C     C_R   0.648232 0.958897 0.263993 0.020782
C132  C     C_R   0.647304 0.929703 0.296496 -0.101224
C133  C     C_R   0.598675 0.907509 0.303244 -0.114673
C134  C     C_R   0.550696 0.914530 0.277926 -0.103763
C135  C     C_R   0.551524 0.944202 0.246266 -0.116420
C136  C     C_R   0.600212 0.966758 0.239663 -0.103476
Cu1   Cu    Cu3+1 0.999750 0.040980 0.540800 0.937036
Cu2   Cu    Cu3+1 0.000250 0.959020 0.459200 0.937751
Cu3   Cu    Cu3+1 0.461600 0.959120 0.002610 0.937813
Cu4   Cu    Cu3+1 0.543650 0.041070 0.002550 0.939160
Cu5   Cu    Cu3+1 0.458780 0.500040 0.458810 0.934285
Cu6   Cu    Cu3+1 0.541220 0.499960 0.541190 0.932400
H1    H     H_    0.719409 0.902546 0.241907 0.096874
H2    H     H_    0.221308 0.906841 0.481824 0.105029
H3    H     H_    0.308729 0.999638 0.566195 0.101884
H4    H     H_    0.319441 0.033830 0.664689 0.102940
H5    H     H_    0.258767 0.868873 0.671071 0.103720
H6    H     H_    0.323454 0.833409 0.648925 0.102364
H7    H     H_    0.428443 0.903278 0.691661 0.103143
H8    H     H_    0.469060 0.008914 0.757271 0.107316
H9    H     H_    0.404969 0.045131 0.779733 0.104836
H10   H     H_    0.224736 0.016188 0.868160 0.128408
H11   H     H_    0.301861 0.043739 0.902036 0.134331
H12   H     H_    0.230157 0.313042 0.464134 0.116284
H13   H     H_    0.274440 0.090002 0.888263 0.125712
H14   H     H_    0.178470 0.055426 0.820111 0.122608
H15   H     H_    0.176042 0.077566 0.766724 0.137612
H16   H     H_    0.125508 0.003917 0.745089 0.133181
H17   H     H_    0.103048 0.202883 0.457240 0.139596
H18   H     H_    0.139725 0.279915 0.482677 0.128536
H19   H     H_    0.119128 0.227967 0.410261 0.126998
H20   H     H_    0.402074 0.298918 0.543465 0.141305
H21   H     H_    0.389960 0.274618 0.591995 0.126471
H22   H     H_    0.369193 0.222464 0.519317 0.124949
H23   H     H_    0.433895 0.709598 0.649073 0.113852
H24   H     H_    0.242753 0.141036 0.543624 0.138110
H25   H     H_    0.294799 0.148982 0.519234 0.126322
H26   H     H_    0.315558 0.201084 0.591904 0.126932
H27   H     H_    0.443618 0.188361 0.097633 0.133917
H28   H     H_    0.395262 0.210515 0.113621 0.125948
H29   H     H_    0.463335 0.263566 0.125544 0.128412
H30   H     H_    0.684351 0.924322 0.316849 0.106837
H31   H     H_    0.598242 0.884937 0.328190 0.103444
H32   H     H_    0.513028 0.897288 0.283125 0.105036
H33   H     H_    0.514467 0.949936 0.227028 0.102218
H34   H     H_    0.839411 0.033187 0.245604 0.099760
H35   H     H_    0.600360 0.991070 0.216571 0.115164
H36   H     H_    0.424238 0.306313 0.176104 0.122462
H37   H     H_    0.410343 0.311134 0.234806 0.137297
H38   H     H_    0.478350 0.365040 0.248291 0.134616
H39   H     H_    0.628421 0.362259 0.403312 0.103008
H40   H     H_    0.675918 0.382700 0.505371 0.104545
H41   H     H_    0.633826 0.308617 0.531493 0.103791
H42   H     H_    0.543674 0.213807 0.455251 0.102258
H43   H     H_    0.495367 0.192840 0.353079 0.104212
H44   H     H_    0.478667 0.103886 0.234620 0.105237
H45   H     H_    0.673852 0.798344 0.413651 0.121187
H46   H     H_    0.528207 0.049814 0.260452 0.101252
H47   H     H_    0.636379 0.100862 0.321776 0.104682
H48   H     H_    0.695280 0.206693 0.357723 0.106412
H49   H     H_    0.646524 0.261414 0.331567 0.103108
H50   H     H_    0.584893 0.832370 0.908223 0.140919
H51   H     H_    0.580766 0.762729 0.888087 0.127491
H52   H     H_    0.633435 0.818707 0.884764 0.121012
H53   H     H_    0.582714 0.673344 0.747542 0.142355
H54   H     H_    0.632529 0.744398 0.810175 0.125167
H55   H     H_    0.579519 0.688404 0.813183 0.126014
H56   H     H_    0.744649 0.859339 0.468574 0.135676
H57   H     H_    0.393902 0.769811 0.671856 0.115517
H58   H     H_    0.392225 0.783338 0.738620 0.141901
H59   H     H_    0.445891 0.839823 0.736798 0.136816
H60   H     H_    0.697233 0.845554 0.145835 0.097853
H61   H     H_    0.676854 0.783020 0.047403 0.104396
H62   H     H_    0.693854 0.826032 0.986020 0.101668
H63   H     H_    0.731222 0.932464 0.023441 0.106490
H64   H     H_    0.752284 0.996089 0.122243 0.110308
H65   H     H_    0.861884 0.128700 0.260449 0.092701
H66   H     H_    0.887493 0.227146 0.272668 0.103662
H67   H     H_    0.735130 0.804320 0.403904 0.133600
H68   H     H_    0.825169 0.270467 0.286968 0.105394
H69   H     H_    0.736671 0.214761 0.289075 0.107174
H70   H     H_    0.710438 0.116110 0.277374 0.106074
H71   H     H_    0.694835 0.055197 0.358808 0.116781
H72   H     H_    0.728931 0.132651 0.456022 0.107108
H73   H     H_    0.834083 0.207683 0.520898 0.105700
H74   H     H_    0.905358 0.204556 0.487331 0.105803
H75   H     H_    0.872057 0.126916 0.389557 0.109550
H76   H     H_    0.877626 0.741023 0.546482 0.127435
H77   H     H_    0.904259 0.814969 0.562111 0.135064
H78   H     H_    0.154585 0.881296 0.594372 0.102955
H79   H     H_    0.887144 0.796307 0.611515 0.127622
H80   H     H_    0.826027 0.701712 0.586245 0.122071
H81   H     H_    0.764755 0.695736 0.596007 0.137315
H82   H     H_    0.755225 0.640726 0.531318 0.134830
H83   H     H_    0.595648 0.685169 0.437909 0.140869
H84   H     H_    0.622294 0.759105 0.453494 0.127314
H85   H     H_    0.612722 0.703777 0.388455 0.127361
H86   H     H_    0.144366 0.847921 0.496084 0.105380
O1    O     O_R   0.939930 0.974760 0.534440 -0.502769
O2    O     O_R   0.535120 0.440180 0.475200 -0.500615
O3    O     O_R   0.525050 0.559880 0.465230 -0.505043
O4    O     O_R   0.940350 0.905550 0.465530 -0.504191
O5    O     O_R   0.594670 0.559820 0.534800 -0.505312
O6    O     O_R   0.464880 0.559830 0.524810 -0.502583
O7    O     O_R   0.534500 0.559760 0.594380 -0.505359
O8    O     O_R   0.405330 0.440190 0.465210 -0.502364
O9    O     O_R   0.474950 0.440120 0.534770 -0.504186
O10   O     O_R   0.939640 0.034610 0.474300 -0.502634
O11   O     O_R   0.940060 0.965400 0.405390 -0.503552
O12   O     O_R   0.536970 0.094550 0.062100 -0.502853
O13   O     O_R   0.059650 0.094450 0.534470 -0.503356
O14   O     O_R   0.060070 0.025240 0.465560 -0.502049
O15   O     O_R   0.059940 0.034600 0.594610 -0.505587
O16   O     O_R   0.060360 0.965390 0.525700 -0.501405
O17   O     O_R   0.467680 0.025340 0.062150 -0.506476
O18   O     O_R   0.528130 0.965490 0.062760 -0.505025
O19   O     O_R   0.597420 0.034690 0.062700 -0.501139
O20   O     O_R   0.468280 0.905650 0.943070 -0.500775
O21   O     O_R   0.537570 0.974850 0.943010 -0.503862
O22   O     O_R   0.407830 0.965500 0.942460 -0.503657
O23   O     O_R   0.477120 0.034710 0.942410 -0.504513
O24   O     O_R   0.465500 0.440250 0.405630 -0.505803

loop_
_geom_bond_atom_site_label_1
_geom_bond_atom_site_label_2
_ccdc_geom_bond_type
Cu6   O9    S    
C20   C93   S    
C81   C107  S    
C80   O5    A    
C96   C102  A    
C110  H56   S    
C11   H44   S    
C18   C96   S    
C79   O24   A    
C74   C94   S    
C17   H51   S    
C111  C112  A    
C128  H22   S    
C55   C56   A    
C49   C104  S    
C83   O9    A    
C97   C98   A    
C85   C91   S    
C75   O19   A    
C135  C136  A    
C26   H64   S    
C85   C86   A    
C24   O10   A    
C65   O15   A    
C77   C89   S    
C100  C105  S    
C29   C30   A    
C29   H66   S    
C129  H24   S    
C6    H40   S    
C122  H8    S    
C108  C115  T    
C28   C29   A    
C3    H36   S    
C53   O13   A    
C13   C35   A    
C9    H43   S    
C27   C60   S    
C5    C6    A    
C32   H70   S    
C125  H15   S    
C42   H83   S    
C4    C86   S    
C76   O21   A    
C130  H27   S    
C119  H5    S    
C15   C16   A    
Cu4   O19   S    
C19   H59   S    
C116  C117  A    
C24   C101  S    
C77   C131  S    
C30   C31   A    
Cu1   O10   S    
C2    C13   A    
C3    H37   S    
C118  C119  A    
C112  C113  A    
C60   C109  S    
C36   H72   S    
C113  C114  A    
C14   H47   S    
C60   C82   S    
Cu6   O5    S    
C103  C107  T    
C63   C69   S    
C132  C133  A    
C64   C128  S    
C46   C47   T    
C81   O7    A    
C69   C73   T    
C51   C57   S    
C35   C43   A    
C61   C78   S    
C56   C111  S    
C41   H80   S    
Cu2   O14   S    
C125  H14   S    
C66   C129  S    
Cu1   O13   S    
C8    H42   S    
C66   C67   A    
C124  H10   S    
C75   C108  S    
C127  H19   S    
C82   C93   S    
C50   C118  S    
C124  H11   S    
C90   C130  S    
C74   O12   A    
C78   O23   A    
C2    C126  A    
C17   H52   S    
C76   O20   A    
Cu4   O23   S    
C84   C90   A    
Cu4   O12   S    
C25   H63   S    
Cu3   O20   S    
C41   C126  S    
C5    H39   S    
C13   C42   S    
C65   O16   A    
C52   C54   A    
C33   C34   A    
C42   H84   S    
C17   H50   S    
C38   C39   A    
C10   C87   S    
C54   C125  S    
C123  H9    S    
C110  H45   S    
C129  H25   S    
C18   H54   S    
C51   C52   A    
C41   H82   S    
C3    H38   S    
C88   C92   S    
C7    C8    A    
C53   O14   A    
Cu1   O1    S    
C131  C136  A    
C10   C11   A    
C38   H74   S    
C10   C16   A    
C74   O17   A    
C19   C99   S    
C86   C87   A    
C8    C9    A    
C113  H86   S    
C37   H73   S    
C3    C84   S    
C60   C71   S    
C114  H2    S    
C25   C26   A    
C42   H85   S    
C136  H35   S    
C128  H21   S    
C50   C56   A    
C67   C68   A    
C117  H4    S    
C135  H33   S    
C49   C82   S    
C37   C38   A    
C43   C44   A    
C79   O2    A    
C79   C95   S    
C62   C63   A    
C16   H49   S    
C1    O1    A    
C97   C103  S    
C99   C100  A    
C130  H29   S    
C119  C120  A    
C44   C126  A    
C96   C97   A    
C20   C21   A    
C18   H55   S    
C128  H20   S    
C50   C51   A    
C112  H78   S    
C71   C115  S    
Cu2   O11   S    
C33   C39   A    
C84   C85   A    
C77   C109  S    
C35   C110  S    
C68   C127  S    
C121  C122  A    
C41   H81   S    
C24   O11   A    
C22   H61   S    
Cu6   O7    S    
C15   H48   S    
C82   H34   S    
C120  H6    S    
C101  C104  T    
C40   H77   S    
C133  C134  A    
C78   O22   A    
C58   C59   T    
C110  H67   S    
C33   C109  S    
Cu3   O18   S    
C80   O3    A    
C131  C132  A    
Cu3   O17   S    
C17   C102  S    
C71   C77   S    
Cu2   O16   S    
C120  C121  A    
C22   C23   A    
C49   C109  S    
C100  C102  A    
Cu1   Cu2   S    
C45   C48   T    
C28   H65   S    
C19   H58   S    
C54   C55   A    
C36   C37   A    
C76   C106  S    
C134  H32   S    
C129  H26   S    
C40   H76   S    
C18   H53   S    
C14   C15   A    
C127  H17   S    
C21   H60   S    
C39   H75   S    
C31   C32   A    
C1    C47   S    
Cu4   O21   S    
C49   C89   S    
C4    C5    A    
C34   H71   S    
C30   H68   S    
C114  C116  A    
Cu3   Cu4   S    
C57   C61   T    
C6    C7    A    
C71   C93   S    
C62   C68   A    
Cu5   O3    S    
C105  C106  T    
C23   H62   S    
C134  C135  A    
C19   H57   S    
C7    H41   S    
C40   H79   S    
C111  C117  A    
C67   C70   S    
C48   C80   S    
Cu2   O4    S    
C88   C90   A    
C12   C14   A    
C89   H1    S    
Cu5   Cu6   S    
C59   C65   S    
Cu5   O6    S    
C52   C124  S    
C1    O4    A    
C92   C94   T    
C116  H3    S    
C20   C26   A    
C75   O18   A    
C130  H28   S    
Cu5   O8    S    
C121  H7    S    
C34   C36   A    
C118  C123  A    
C23   C25   A    
C89   C93   S    
C43   C46   S    
C98   H23   S    
Cu6   O2    S    
C2    C45   S    
C27   C32   A    
C91   C95   T    
C63   C64   A    
Cu1   O15   S    
C62   H12   S    
C40   C44   S    
C31   H69   S    
C83   O8    A    
C87   C88   A    
C55   C58   S    
C98   C99   A    
C124  H13   S    
C27   C28   A    
C122  C123  A    
Cu5   O24   S    
C81   O6    A    
C70   C72   T    
C132  H30   S    
Cu3   O22   S    
C4    C9    A    
C21   C22   A    
C53   C72   S    
C133  H31   S    
C127  H18   S    
C73   C83   S    
C11   C12   A    
C64   C66   A    
C125  H16   S    
C12   H46   S    
