data_mof_unit_44724.cif
_audit_creation_date              2012-10-26T20:57:27-0400
_audit_creation_method            fapswitch 2.2
_symmetry_space_group_name_H-M    P1
_symmetry_Int_Tables_number       1
_space_group_crystal_system       triclinic
_cell_length_a                    14.701671
_cell_length_b                    14.622026
_cell_length_c                    15.847565
_cell_angle_alpha                 76.57144
_cell_angle_beta                  102.77576
_cell_angle_gamma                 114.884408
_cell_volume                      2976.39723101

loop_
_atom_site_label
_atom_site_type_symbol
_atom_type_description
_atom_site_fract_x
_atom_site_fract_y
_atom_site_fract_z
_atom_type_partial_charge
C1    C     C_R   0.880324 0.312171 0.509680 0.556409
C2    C     C_R   0.359891 0.926030 0.482020 -0.053642
C3    C     C_R   0.677004 0.998595 0.512222 0.030851
C4    C     C_R   0.321671 0.004477 0.462246 0.029039
C5    C     C_R   0.533756 0.053448 0.482864 -0.035557
C6    C     C_R   0.465260 0.950924 0.485665 -0.024576
C7    C     C_R   0.503488 0.876026 0.489501 -0.112929
C8    C     C_R   0.495003 0.128377 0.477075 -0.131931
C9    C     C_R   0.607376 0.897072 0.508044 0.260979
C10   C     C_R   0.391128 0.107062 0.459028 0.256391
C11   C     C_R   0.701208 0.644585 0.335755 0.235129
C12   C     C_R   0.119830 0.688265 0.488435 0.558008
C13   C     C_R   0.285495 0.332252 0.651649 0.269622
C14   C     C_R   0.791355 0.628642 0.368964 0.413874
C15   C     C_R   0.200889 0.359117 0.622610 0.425511
C16   C     C_R   0.999544 0.499773 0.660087 0.528164
C17   C     C_R   0.000571 0.500432 0.339923 0.534360
C18   C     C_R   0.716818 0.513456 0.490805 -0.015694
C19   C     C_R   0.287034 0.491413 0.514385 -0.031331
C20   C     C_R   0.626195 0.531979 0.464314 -0.096998
C21   C     C_R   0.371124 0.462039 0.534135 -0.101873
C22   C     C_R   0.620507 0.601554 0.386157 0.017740
C23   C     C_R   0.782968 0.023449 0.535646 0.264642
C24   C     C_R   0.370328 0.381757 0.605185 0.015376
C25   C     C_R   0.540762 0.482005 0.511511 -0.033247
C26   C     C_R   0.454837 0.509134 0.484860 -0.030283
C27   C     C_R   0.453398 0.579735 0.407721 -0.114177
C28   C     C_R   0.537034 0.402821 0.582407 -0.108712
C29   C     C_R   0.533901 0.625597 0.359146 0.296559
C30   C     C_R   0.452822 0.350633 0.626304 0.295168
C31   C     C_3   0.960410 0.404018 0.041081 0.306679
C32   C     C_3   0.036362 0.592717 0.959234 0.313601
C33   C     C_3   0.901368 0.450981 0.963303 -0.137099
C34   C     C_R   0.215327 0.977919 0.450371 0.257700
C35   C     C_3   0.095419 0.545746 0.036926 -0.130047
C36   C     C_1   0.998152 0.498486 0.749804 -0.041484
C37   C     C_1   0.001097 0.500509 0.250340 -0.029587
C38   C     C_3   0.055246 0.447549 0.994649 -0.133074
C39   C     C_3   0.941533 0.549140 0.005654 -0.137213
C40   C     C_3   0.996984 0.496410 0.917313 0.028582
C41   C     C_3   0.999883 0.500358 0.082925 0.023562
C42   C     C_1   0.997258 0.497249 0.825473 -0.033744
C43   C     C_1   0.000815 0.500525 0.174726 -0.035703
C44   C     C_R   0.812159 0.204325 0.507803 -0.039064
C45   C     C_R   0.848756 0.126746 0.536364 -0.204421
C46   C     C_R   0.187939 0.797286 0.482688 -0.044972
C47   C     C_3   0.103228 0.297786 0.735381 -0.080900
C48   C     C_3   0.909554 0.780436 0.310532 -0.099260
C49   C     C_3   0.660679 0.636617 0.190230 0.035582
C50   C     C_3   0.647335 0.697989 0.099589 -0.245779
C51   C     C_3   0.609265 0.630753 0.028340 -0.500564
C52   C     C_3   0.318157 0.265081 0.801678 0.038364
C53   C     C_3   0.383699 0.376503 0.816222 -0.285836
C54   C     C_3   0.424511 0.382435 0.912894 -0.489382
C55   C     C_3   0.890765 0.231534 0.036923 -0.143462
C56   C     C_R   0.149805 0.873956 0.457923 -0.209156
C57   C     C_3   0.105232 0.765126 0.963750 -0.132169
C58   C     C_3   0.612322 0.745413 0.584244 -0.099653
C59   C     C_3   0.392550 0.259735 0.378020 -0.109508
C60   C     C_3   0.328612 0.768805 0.650604 0.036295
C61   C     C_3   0.409031 0.737231 0.713498 -0.248955
C62   C     C_3   0.385496 0.624262 0.719585 -0.410721
C63   C     C_3   0.658060 0.238382 0.330846 0.000816
C64   C     C_3   0.739175 0.322165 0.278907 -0.243367
C65   C     C_3   0.715627 0.312323 0.181905 -0.478167
C66   C     C_3   0.897022 0.954315 0.624259 0.000427
C67   C     C_R   0.709686 0.179360 0.473646 0.234872
C68   C     C_3   0.998083 0.980883 0.593156 -0.247602
C69   C     C_3   0.084574 0.995939 0.669202 -0.449111
C70   C     C_3   0.095894 0.043497 0.372912 0.006459
C71   C     C_3   0.084890 0.146106 0.344865 -0.240935
C72   C     C_3   0.991991 0.138756 0.276422 -0.478245
C73   C     C_3   0.547681 0.787190 0.299822 -0.077358
C74   C     C_3   0.434285 0.184475 0.665232 -0.082641
C75   C     C_R   0.292651 0.824789 0.505645 0.223510
C76   C     C_R   0.639604 0.077746 0.490606 -0.062216
Cu1   Cu    Cu3+1 0.081740 0.475690 0.522610 0.982934
Cu2   Cu    Cu3+1 0.918260 0.524310 0.477390 0.994933
H1    H     H_    0.822658 0.411381 0.932330 0.103316
H2    H     H_    0.929288 0.147504 0.555496 0.163620
H3    H     H_    0.453180 0.800041 0.476997 0.164341
H4    H     H_    0.544207 0.204422 0.489514 0.173853
H5    H     H_    0.028908 0.299175 0.737422 0.129148
H6    H     H_    0.162843 0.366063 0.762075 0.087862
H7    H     H_    0.104084 0.226475 0.778049 0.106240
H8    H     H_    0.991318 0.811746 0.304730 0.111220
H9    H     H_    0.901307 0.809795 0.366172 0.098360
H10   H     H_    0.872081 0.809962 0.248084 0.151142
H11   H     H_    0.586804 0.572366 0.201737 0.140960
H12   H     H_    0.174092 0.585340 0.067979 0.107101
H13   H     H_    0.718126 0.604992 0.191670 0.138849
H14   H     H_    0.592023 0.732122 0.097827 0.192062
H15   H     H_    0.721058 0.760859 0.086407 0.153021
H16   H     H_    0.663997 0.596723 0.028071 0.143153
H17   H     H_    0.600425 0.677383 0.963298 0.141174
H18   H     H_    0.534581 0.568726 0.039619 0.145137
H19   H     H_    0.364644 0.218938 0.829506 0.182798
H20   H     H_    0.255952 0.233322 0.842107 0.101521
H21   H     H_    0.449083 0.410004 0.779119 0.185396
H22   H     H_    0.337054 0.422619 0.794096 0.123158
H23   H     H_    0.284481 0.555058 0.465162 0.150413
H24   H     H_    0.361121 0.352614 0.952145 0.137049
H25   H     H_    0.471046 0.463226 0.920899 0.145789
H26   H     H_    0.472782 0.337684 0.937591 0.149140
H27   H     H_    0.956309 0.234996 0.010370 0.104873
H28   H     H_    0.830225 0.238570 0.982808 0.112114
H29   H     H_    0.859173 0.155146 0.076962 0.131446
H30   H     H_    0.165728 0.758261 0.017989 0.110960
H31   H     H_    0.039395 0.761135 0.990203 0.108384
H32   H     H_    0.136573 0.841675 0.923875 0.131036
H33   H     H_    0.529637 0.699109 0.575415 0.115970
H34   H     H_    0.727668 0.462243 0.549118 0.141869
H35   H     H_    0.636047 0.779148 0.645660 0.108988
H36   H     H_    0.651079 0.692763 0.591344 0.149797
H37   H     H_    0.474226 0.308148 0.392556 0.121236
H38   H     H_    0.350816 0.310779 0.363902 0.144055
H39   H     H_    0.377847 0.225263 0.318132 0.099086
H40   H     H_    0.252753 0.720504 0.671071 0.148463
H41   H     H_    0.346694 0.849378 0.657074 0.096756
H42   H     H_    0.484173 0.783519 0.691321 0.152037
H43   H     H_    0.412673 0.752932 0.779779 0.110674
H44   H     H_    0.310989 0.577470 0.742807 0.146422
H45   H     H_    0.388551 0.598741 0.380403 0.108959
H46   H     H_    0.445286 0.604735 0.766612 0.110640
H47   H     H_    0.383819 0.606388 0.654869 0.181497
H48   H     H_    0.583734 0.243653 0.303314 0.131926
H49   H     H_    0.651262 0.162088 0.321802 0.119355
H50   H     H_    0.743861 0.398054 0.285742 0.189171
H51   H     H_    0.813613 0.316945 0.305856 0.169790
H52   H     H_    0.713837 0.238326 0.173209 0.166539
H53   H     H_    0.775193 0.375137 0.146143 0.177539
H54   H     H_    0.641445 0.317415 0.153382 0.125790
H55   H     H_    0.876307 0.878112 0.666095 0.150616
H56   H     H_    0.597683 0.376388 0.604747 0.108398
H57   H     H_    0.904346 0.008241 0.667294 0.107824
H58   H     H_    0.991664 0.918215 0.560782 0.172489
H59   H     H_    0.016354 0.051821 0.544335 0.184543
H60   H     H_    0.093912 0.059970 0.701203 0.186384
H61   H     H_    0.156235 0.014435 0.644262 0.183583
H62   H     H_    0.069291 0.925133 0.718237 0.142075
H63   H     H_    0.024898 0.986178 0.397398 0.119096
H64   H     H_    0.107554 0.021029 0.314733 0.110769
H65   H     H_    0.077766 0.171806 0.402967 0.183115
H66   H     H_    0.153705 0.204013 0.317214 0.173540
H67   H     H_    0.896238 0.591271 0.011654 0.098651
H68   H     H_    0.998326 0.115411 0.216785 0.141654
H69   H     H_    0.986270 0.214396 0.258013 0.195935
H70   H     H_    0.922061 0.082441 0.303279 0.151948
H71   H     H_    0.625651 0.818595 0.335836 0.181610
H72   H     H_    0.491332 0.786344 0.336879 0.102139
H73   H     H_    0.545223 0.839361 0.236956 0.122646
H74   H     H_    0.495669 0.191751 0.630926 0.107887
H75   H     H_    0.359872 0.161197 0.622375 0.196428
H76   H     H_    0.428668 0.122536 0.722095 0.117179
H77   H     H_    0.100385 0.405211 0.988757 0.092840
H78   H     H_    0.069083 0.852412 0.450573 0.120338
N1    N     N_R   0.795440 0.560790 0.443380 -0.248441
N2    N     N_R   0.204560 0.439210 0.556620 -0.252650
O1    O     O_R   0.977900 0.338120 0.529810 -0.461270
O2    O     O_3   0.873037 0.672795 0.322424 -0.529695
O3    O     O_3   0.692657 0.701572 0.253766 -0.554675
O4    O     O_3   0.276263 0.245615 0.713924 -0.554302
O5    O     O_3   0.920857 0.306153 0.091020 -0.574612
O6    O     O_3   0.075823 0.690757 0.909498 -0.559387
O7    O     O_3   0.641076 0.820914 0.510543 -0.538055
O8    O     O_3   0.357612 0.184848 0.450729 -0.530715
O9    O     O_3   0.328684 0.757171 0.564257 -0.562888
O10   O     O_3   0.680217 0.254319 0.419297 -0.570341
O11   O     O_3   0.820116 0.946761 0.551097 -0.518527
O12   O     O_R   0.022100 0.661880 0.470190 -0.479055
O13   O     O_3   0.178350 0.053652 0.440886 -0.515972
O14   O     O_3   0.523512 0.689208 0.281260 -0.551054
O15   O     O_3   0.457393 0.275484 0.696535 -0.573303
O16   O     O_R   0.839850 0.379180 0.491620 -0.458364
O17   O     O_R   0.160150 0.620820 0.508380 -0.461313
O18   O     O_R   0.069010 0.479460 0.640020 -0.496097
O19   O     O_R   0.930990 0.520540 0.359980 -0.456320
O20   O     O_R   0.930960 0.520530 0.601820 -0.506997
O21   O     O_R   0.069040 0.479470 0.398180 -0.509259
O22   O     O_3   0.108023 0.293444 0.648552 -0.529387

loop_
_geom_bond_atom_site_label_1
_geom_bond_atom_site_label_2
_ccdc_geom_bond_type
C67   O10   S    
C69   H61   S    
C66   C68   S    
C21   C26   A    
C34   C56   A    
C23   C45   A    
C22   C29   A    
C73   H72   S    
C27   C29   A    
Cu2   O19   S    
C66   O11   S    
C36   C42   T    
C11   O3    S    
C56   H78   S    
C62   H46   S    
C65   H52   S    
C13   O4    S    
C39   C41   S    
Cu1   Cu2   S    
C53   H21   S    
C25   C28   A    
C48   O2    S    
C26   C27   A    
C33   C39   S    
C55   H27   S    
C8    H4    S    
C47   H7    S    
C54   H26   S    
C19   C21   A    
C18   H34   S    
C5    C6    A    
C11   C14   A    
C52   O4    S    
C20   C25   A    
C52   H19   S    
Cu2   O12   S    
C74   H76   S    
C60   H41   S    
C61   H43   S    
C32   C39   S    
C52   H20   S    
C58   O7    S    
C1    C44   S    
C3    C23   A    
C57   H31   S    
C68   C69   S    
C64   H50   S    
C58   H35   S    
C48   H10   S    
C60   H40   S    
C70   C71   S    
C47   H5    S    
C30   O15   S    
C49   O3    S    
Cu1   N2    S    
C16   O18   A    
C69   H62   S    
C40   C42   S    
C59   H39   S    
C55   H29   S    
C15   O22   S    
C73   H73   S    
C61   H42   S    
C41   C43   S    
C74   H74   S    
C68   H59   S    
C2    C6    A    
C38   H77   S    
C49   H13   S    
C46   C75   A    
C65   H53   S    
C16   O20   A    
C31   O5    S    
C53   H22   S    
C4    C34   A    
C1    O16   A    
C70   H64   S    
C33   C40   S    
C14   N1    A    
C58   H33   S    
C60   O9    S    
C32   C35   S    
C54   H25   S    
C1    O1    A    
C35   C38   S    
C15   N2    A    
C12   C46   S    
C27   H45   S    
C59   H38   S    
C12   O12   A    
C55   H28   S    
C25   C26   A    
C53   C54   S    
C63   C64   S    
C74   H75   S    
C14   O2    S    
C60   C61   S    
C37   C43   T    
C2    C4    A    
C70   O13   S    
C47   O22   S    
C3    C9    A    
C5    C8    A    
C66   H55   S    
Cu2   N1    S    
C57   H32   S    
C23   O11   S    
C68   H58   S    
C10   O8    S    
C39   H67   S    
C31   C33   S    
C50   C51   S    
C48   H9    S    
Cu1   O21   S    
C47   H6    S    
C73   O14   S    
C3    C76   A    
C59   O8    S    
Cu1   O1    S    
C12   O17   A    
C59   H37   S    
C63   O10   S    
C7    H3    S    
C20   C22   A    
Cu1   O18   S    
C13   C15   A    
C48   H8    S    
C17   C37   S    
C4    C10   A    
C62   H44   S    
C65   H54   S    
C44   C45   A    
C58   H36   S    
C17   O19   A    
C69   H60   S    
C7    C9    A    
C50   H14   S    
C70   H63   S    
C31   C41   S    
C73   H71   S    
Cu2   O20   S    
C19   N2    A    
C54   H24   S    
C8    C10   A    
C33   H1    S    
C49   H11   S    
C62   H47   S    
C50   H15   S    
C6    C7    A    
C72   H69   S    
C51   H18   S    
C11   C22   A    
C31   C38   S    
C64   C65   S    
C5    C76   A    
C52   C53   S    
C55   O5    S    
C71   C72   S    
C18   N1    A    
C72   H70   S    
C16   C36   S    
C38   C40   S    
C19   H23   S    
C17   O21   A    
C57   O6    S    
C72   H68   S    
C32   O6    S    
C9    O7    S    
C28   C30   A    
C74   O15   S    
C45   H2    S    
C18   C20   A    
C32   C40   S    
C29   O14   S    
C61   C62   S    
C35   C41   S    
C24   C30   A    
C63   H48   S    
C34   O13   S    
C51   H16   S    
C66   H57   S    
C35   H12   S    
C28   H56   S    
C57   H30   S    
C64   H51   S    
C13   C24   A    
Cu1   O17   S    
C49   C50   S    
C21   C24   A    
C46   C56   A    
Cu2   O16   S    
C44   C67   A    
C75   O9    S    
C67   C76   A    
C71   H65   S    
C63   H49   S    
C2    C75   A    
C51   H17   S    
C71   H66   S    
