data_mof_unit_43632.cif
_audit_creation_date              2012-10-26T20:07:46-0400
_audit_creation_method            fapswitch 2.2
_symmetry_space_group_name_H-M    P1
_symmetry_Int_Tables_number       1
_space_group_crystal_system       triclinic
_cell_length_a                    9.612436
_cell_length_b                    10.794594
_cell_length_c                    17.136097
_cell_angle_alpha                 86.119585
_cell_angle_beta                  92.922012
_cell_angle_gamma                 88.898382
_cell_volume                      1771.23997531

loop_
_atom_site_label
_atom_site_type_symbol
_atom_type_description
_atom_site_fract_x
_atom_site_fract_y
_atom_site_fract_z
_atom_type_partial_charge
C1    C     C_R   0.500875 0.262396 0.500389 0.572780
C2    C     C_R   0.064154 0.588711 0.454699 0.345090
C3    C     C_R   0.516556 0.495531 0.650787 0.581693
C4    C     C_R   0.483722 0.504605 0.349171 0.584109
C5    C     C_R   0.526184 0.493086 0.736824 0.006750
C6    C     C_R   0.475533 0.506917 0.263082 0.002611
C7    C     C_R   0.438059 0.420527 0.784397 0.172096
C8    C     C_R   0.570430 0.572970 0.216086 0.183583
C9    C     C_R   0.447360 0.428705 0.865341 -0.069028
C10   C     C_R   0.563535 0.562351 0.135357 -0.050605
C11   C     C_R   0.544210 0.506661 0.900349 0.190562
C12   C     C_R   0.499559 0.737532 0.500934 0.557125
C13   C     C_R   0.462153 0.489330 0.099784 0.187221
C14   C     C_R   0.635445 0.573185 0.853497 -0.093498
C15   C     C_R   0.364804 0.429489 0.145922 -0.097369
C16   C     C_R   0.626571 0.566729 0.772507 -0.146041
C17   C     C_R   0.371192 0.438085 0.226764 -0.160442
C18   C     C_R   0.391049 0.062847 0.533346 -0.088437
C19   C     C_R   0.613603 0.936783 0.473040 -0.113216
C20   C     C_R   0.391530 0.934487 0.534643 -0.090439
C21   C     C_R   0.614793 0.064927 0.473343 -0.106885
C22   C     C_R   0.500574 0.871417 0.502361 0.010851
C23   C     C_R   0.502430 0.128298 0.502335 0.032353
C24   C     C_R   0.082368 0.411883 0.543045 0.030638
C25   C     C_R   0.916957 0.585059 0.454741 0.041483
C26   C     C_R   0.935392 0.415239 0.548329 0.331701
Cu1   Cu    Cu3+1 0.640660 0.500020 0.500000 1.099254
Cu2   Cu    Cu3+1 0.359340 0.499980 0.500000 1.100839
H1    H     H_    0.638309 0.611118 0.100275 0.188962
H2    H     H_    0.701856 0.114439 0.449606 0.158459
H3    H     H_    0.146401 0.343704 0.577872 0.224135
H4    H     H_    0.852814 0.655745 0.422234 0.228567
H5    H     H_    0.559837 0.795666 0.305759 0.334307
H6    H     H_    0.144876 0.456744 0.764200 0.356890
H7    H     H_    0.706451 0.233038 0.682995 0.370124
H8    H     H_    0.294347 0.801011 0.339866 0.349793
H9    H     H_    0.377225 0.375136 0.900979 0.183229
H10   H     H_    0.711581 0.632606 0.879760 0.155663
H11   H     H_    0.285201 0.373978 0.119208 0.156516
H12   H     H_    0.695978 0.622263 0.737386 0.165435
H13   H     H_    0.296598 0.387755 0.261292 0.155500
H14   H     H_    0.304688 0.110641 0.557448 0.182172
H15   H     H_    0.700387 0.889130 0.449261 0.190446
H16   H     H_    0.308113 0.884641 0.561826 0.184138
N1    N     N_2   0.552062 0.521636 0.982046 -0.225606
N2    N     N_2   0.454637 0.473911 0.018105 -0.227513
N3    N     N_R   0.852070 0.500030 0.499980 -0.298350
N4    N     N_R   0.147930 0.499970 0.500020 -0.291899
O1    O     O_R   0.618740 0.319660 0.500000 -0.457451
O2    O     O_2   0.743952 0.763179 0.191534 -0.244185
O3    O     O_3   0.641282 0.745726 0.328606 -0.523952
O4    O     O_2   0.360815 0.258927 0.678334 -0.275414
O5    O     O_2   0.265906 0.228528 0.807768 -0.239679
O6    O     O_3   0.171212 0.416324 0.716722 -0.467811
O7    O     O_2   0.988114 0.230962 0.660702 -0.229297
O8    O     O_2   0.873252 0.419309 0.697704 -0.277939
O9    O     O_3   0.727804 0.257605 0.628219 -0.490195
O10   O     O_2   0.012997 0.769437 0.340228 -0.216101
O11   O     O_2   0.134597 0.824862 0.459601 -0.324222
O12   O     O_R   0.381260 0.680340 0.500000 -0.442250
O13   O     O_3   0.272036 0.714584 0.357212 -0.490477
O14   O     O_R   0.381170 0.319630 0.500010 -0.524638
O15   O     O_R   0.618830 0.680370 0.499990 -0.511358
O16   O     O_R   0.631780 0.498870 0.613920 -0.451338
O17   O     O_R   0.368220 0.501130 0.386080 -0.459104
O18   O     O_R   0.394210 0.498840 0.613930 -0.455929
O19   O     O_R   0.605790 0.501160 0.386070 -0.456758
O20   O     O_2   0.823770 0.588888 0.281950 -0.236302
S1    S     S_3+6 0.699872 0.669701 0.254025 0.041238
S2    S     S_3+6 0.308964 0.324130 0.746266 0.041012
S3    S     S_3+6 0.880133 0.329779 0.634500 0.075772
S4    S     S_3+6 0.122326 0.725894 0.402423 0.060630

loop_
_geom_bond_atom_site_label_1
_geom_bond_atom_site_label_2
_ccdc_geom_bond_type
C4    O19   A    
Cu2   O18   S    
Cu2   O14   S    
H6    O6    S    
H8    O13   S    
C14   H10   S    
C5    C7    A    
C21   H2    S    
C25   N3    A    
C18   C23   A    
O6    S2    S    
O11   S4    D    
H7    O9    S    
O8    S3    D    
O10   S4    D    
C1    O14   A    
C25   H4    S    
C9    H9    S    
Cu2   O17   S    
C24   H3    S    
N1    N2    D    
O9    S3    S    
C7    S2    S    
C26   S3    S    
C9    C11   A    
C10   H1    S    
C15   H11   S    
C8    S1    S    
C13   N2    S    
Cu2   O12   S    
Cu1   O15   S    
C26   N3    A    
C16   H12   S    
C2    S4    S    
O5    S2    D    
O13   S4    S    
C8    C10   A    
C19   C21   A    
O2    S1    D    
C20   C22   A    
C1    C23   S    
C2    C25   A    
C18   C20   A    
C13   C15   A    
C21   C23   A    
C3    O16   A    
C4    O17   A    
C24   C26   A    
C11   C14   A    
C14   C16   A    
C20   H16   S    
C11   N1    S    
C17   H13   S    
Cu1   O19   S    
Cu1   O16   S    
C3    O18   A    
C12   O12   A    
C12   C22   S    
C19   C22   A    
O4    S2    D    
C4    C6    S    
Cu1   N3    S    
Cu1   Cu2   S    
C15   C17   A    
C6    C17   A    
C7    C9    A    
Cu2   N4    S    
C5    C16   A    
C6    C8    A    
O3    S1    S    
C18   H14   S    
C2    N4    A    
C12   O15   A    
C1    O1    A    
O7    S3    D    
H5    O3    S    
Cu1   O1    S    
C19   H15   S    
O20   S1    D    
C3    C5    S    
C10   C13   A    
C24   N4    A    
