data_mof_unit_11632.cif
_audit_creation_date              2012-12-10T17:48:51-0500
_audit_creation_method            fapswitch 2.2
_symmetry_space_group_name_H-M    P1
_symmetry_Int_Tables_number       1
_space_group_crystal_system       triclinic
_cell_length_a                    10.741842
_cell_length_b                    14.773538
_cell_length_c                    14.59597
_cell_angle_alpha                 64.967849
_cell_angle_beta                  104.59378
_cell_angle_gamma                 102.692487
_cell_volume                      2014.05736621

loop_
_atom_site_label
_atom_site_type_symbol
_atom_type_description
_atom_site_fract_x
_atom_site_fract_y
_atom_site_fract_z
_atom_type_partial_charge
C1    C     C_R   0.482042 0.119197 0.311660 0.841536
C2    C     C_3   0.878364 0.006374 0.494423 -0.053362
C3    C     C_3   0.958901 0.978634 0.606451 -0.069622
C4    C     C_3   0.935214 0.114670 0.422635 0.900458
C5    C     C_R   0.475149 0.186158 0.202279 -0.075295
C6    C     C_R   0.515232 0.812904 0.797129 -0.196864
C7    C     C_R   0.483389 0.223358 0.025555 -0.178702
C8    C     C_R   0.494370 0.155828 0.127877 0.155690
C9    C     C_R   0.455347 0.285851 0.173407 -0.252956
C10   C     C_R   0.459856 0.358057 0.072996 0.016952
C11   C     C_R   0.465766 0.323885 0.997058 0.022386
C12   C     C_R   0.259783 0.001978 0.497042 0.830730
C13   C     C_R   0.462331 0.463049 0.046869 0.077968
C14   C     C_R   0.466349 0.531986 0.943640 0.054399
C15   C     C_R   0.456231 0.492956 0.868163 -0.267177
C16   C     C_R   0.455517 0.390515 0.893901 0.491050
C17   C     C_R   0.468596 0.501975 0.121622 -0.202473
C18   C     C_R   0.476050 0.604443 0.095988 -0.165318
C19   C     C_R   0.480314 0.673531 0.995228 -0.021061
C20   C     C_R   0.481331 0.637859 0.919260 0.071570
C21   C     C_R   0.489551 0.778324 0.970386 0.417595
C22   C     C_R   0.511440 0.848150 0.872113 0.422726
C23   C     C_R   0.519053 0.880555 0.688548 0.899659
C24   C     C_R   0.502562 0.709367 0.822178 -0.270691
C25   C     C_R   0.697547 0.265542 0.691608 0.392555
C26   C     C_R   0.671459 0.193269 0.648773 0.008316
C27   C     C_R   0.523338 0.287467 0.509107 0.001472
C28   C     C_R   0.548415 0.367113 0.544558 -0.123734
C29   C     C_R   0.639171 0.356059 0.637582 -0.041732
C30   C     C_R   0.485415 0.456272 0.490595 0.085204
C31   C     C_R   0.525200 0.539926 0.521799 -0.005025
C32   C     C_R   0.630891 0.531280 0.604689 0.036490
C33   C     C_R   0.672325 0.437348 0.670506 0.277386
C34   C     C_R   0.739319 0.002662 0.496059 0.886350
C35   C     C_R   0.385821 0.465101 0.404218 -0.211001
C36   C     C_R   0.328490 0.552132 0.348870 -0.202432
C37   C     C_R   0.362606 0.632746 0.379515 0.140994
C38   C     C_R   0.458584 0.628585 0.467133 0.005966
C39   C     C_R   0.296370 0.716253 0.324139 -0.320081
C40   C     C_R   0.323051 0.796932 0.354044 0.381152
C41   C     C_R   0.477116 0.711658 0.497497 0.003605
C42   C     C_3   0.031222 0.935264 0.442832 -0.356719
C43   C     C_3   0.891135 0.929784 0.451570 -0.410127
C44   C     C_3   0.099291 0.964838 0.608576 -0.012172
C45   C     C_3   0.085515 0.111737 0.434460 -0.558563
C46   C     C_3   0.121779 0.002888 0.496193 -0.015603
Cu1   Cu    Cu3+1 0.465900 0.918260 0.475680 1.007524
Cu2   Cu    Cu3+1 0.534100 0.081740 0.524320 0.969581
H1    H     H_    0.057860 0.857589 0.476487 0.242694
H2    H     H_    0.167557 0.012288 0.646764 0.107358
H3    H     H_    0.967340 0.043797 0.627968 0.162066
H4    H     H_    0.514423 0.686539 0.764462 0.188978
H5    H     H_    0.483135 0.629365 0.157250 0.190599
H6    H     H_    0.494384 0.197768 0.968931 0.186522
H7    H     H_    0.436836 0.305154 0.231581 0.143514
H8    H     H_    0.038869 0.967390 0.360355 0.200712
H9    H     H_    0.450080 0.539851 0.787714 0.156716
H10   H     H_    0.471110 0.455781 0.202009 0.137360
H11   H     H_    0.537826 0.709335 0.568941 0.167514
H12   H     H_    0.253424 0.555177 0.282455 0.138816
H13   H     H_    0.719044 0.126053 0.687046 0.165899
H14   H     H_    0.455550 0.288780 0.440650 0.128589
H15   H     H_    0.827538 0.942375 0.375236 0.232295
H16   H     H_    0.347717 0.405563 0.376928 0.118217
H17   H     H_    0.222220 0.718556 0.257457 0.156192
H18   H     H_    0.859939 0.853771 0.504401 0.252839
H19   H     H_    0.141680 0.158714 0.477736 0.180623
H20   H     H_    0.122859 0.144846 0.361471 0.146373
N1    N     N_R   0.585360 0.204570 0.560800 -0.209873
N2    N     N_R   0.414550 0.795430 0.439160 -0.192374
O1    O     O_R   0.455060 0.022100 0.338110 -0.537340
O2    O     O_R   0.512640 0.160150 0.379180 -0.593886
O3    O     O_R   0.288900 0.930980 0.479450 -0.556505
O4    O     O_R   0.346480 0.069030 0.520520 -0.607161
O5    O     O_R   0.487360 0.839850 0.620820 -0.588085
O6    O     O_R   0.544940 0.977900 0.661890 -0.553667
O7    O     O_R   0.653520 0.930970 0.479480 -0.571048
O8    O     O_R   0.711100 0.069020 0.520550 -0.544607
O9    O     O_3   0.920658 0.184895 0.461574 -0.604047
C47   C     C_3   0.942007 0.286117 0.392654 -0.250433
H21   H     H_    0.862456 0.303838 0.324684 0.205452
H22   H     H_    0.038157 0.304972 0.369114 0.126727
H23   H     H_    0.941206 0.335374 0.432451 0.183545
O10   O     O_3   0.458043 0.356651 0.819218 -0.591591
C48   C     C_3   0.335773 0.360154 0.754228 -0.324788
H24   H     H_    0.318260 0.439078 0.704139 0.175599
H25   H     H_    0.255966 0.319876 0.798767 0.180494
H26   H     H_    0.334552 0.321655 0.703112 0.189604
O11   O     O_3   0.543584 0.949820 0.853042 -0.563526
C49   C     C_3   0.430774 0.995210 0.829984 -0.263885
H27   H     H_    0.341996 0.956661 0.796230 0.143328
H28   H     H_    0.446297 0.073456 0.772705 0.172249
H29   H     H_    0.415119 0.000051 0.899966 0.200530
I1    I     I_    0.554580 0.015369 0.161928 -0.327684
O12   O     O_3   0.485030 0.813906 0.043207 -0.543743
C50   C     C_3   0.353967 0.805357 0.051039 -0.279835
H30   H     H_    0.290981 0.837965 0.974763 0.156751
H31   H     H_    0.348844 0.847450 0.097070 0.223785
H32   H     H_    0.313918 0.725840 0.091341 0.152438
I2    I     I_    0.782770 0.427586 0.819542 -0.232976
I3    I     I_    0.207048 0.914036 0.261484 -0.390928
O13   O     O_3   0.790496 0.251448 0.779710 -0.569550
C51   C     C_3   0.744839 0.168654 0.863242 -0.204442
H33   H     H_    0.752115 0.096212 0.860173 0.192679
H34   H     H_    0.643718 0.171895 0.867230 0.166322
H35   H     H_    0.807405 0.170842 0.935637 0.200156
I4    I     I_    0.775723 0.655124 0.603660 -0.320062
I5    I     I_    0.153020 0.813502 0.699632 -0.346292
I6    I     I_    0.861608 0.861686 0.727017 -0.308749
O14   O     O_3   0.854928 0.134216 0.322650 -0.603252
C52   C     C_3   0.918843 0.177290 0.237513 -0.331663
H36   H     H_    0.968522 0.120901 0.233759 0.181140
H37   H     H_    0.985963 0.246386 0.236300 0.150481
H38   H     H_    0.844390 0.200183 0.166609 0.218230

loop_
_geom_bond_atom_site_label_1
_geom_bond_atom_site_label_2
_ccdc_geom_bond_type
C24   H4    S    
C12   O4    A    
C15   H9    S    
Cu2   O6    S    
O12   C50   S    
Cu2   N1    S    
C43   H15   S    
C7    C8    A    
C45   C46   S    
C7    C11   A    
C1    O1    A    
C40   N2    A    
C30   C35   A    
C1    C5    S    
C21   C22   A    
C36   C37   A    
C19   C21   A    
C26   H13   S    
C34   O7    A    
C30   C31   A    
C25   O13   S    
C15   C16   A    
C6    C22   A    
C50   H32   S    
C29   C33   A    
C16   O10   S    
C18   C19   A    
C42   C46   S    
Cu2   O8    S    
C20   C24   A    
O14   C52   S    
C18   H5    S    
C42   H8    S    
C40   I3    S    
C51   H34   S    
C19   C20   A    
C32   I4    S    
C50   H31   S    
C45   H19   S    
C35   H16   S    
C9    H7    S    
C52   H38   S    
C9    C10   A    
C23   O6    A    
C27   N1    A    
C17   H10   S    
C2    C34   S    
C48   H25   S    
C12   O3    A    
C39   H17   S    
Cu2   O2    S    
C47   H23   S    
C44   C46   S    
C4    C45   S    
C44   I5    S    
C25   C29   A    
C3    C44   S    
C1    O2    A    
Cu2   O4    S    
C8    I1    S    
O10   C48   S    
Cu1   O3    S    
C38   C41   A    
C12   C46   S    
C39   C40   A    
C3    H3    S    
C21   O12   S    
C25   C26   A    
C48   H24   S    
C35   C36   A    
C2    C4    S    
Cu1   N2    S    
C5    C9    A    
C37   C38   A    
C27   H14   S    
C14   C20   A    
C11   C16   A    
C49   H28   S    
Cu1   Cu2   S    
C2    C43   S    
C6    C24   A    
C50   H30   S    
C45   H20   S    
C17   C18   A    
C52   H37   S    
Cu1   O1    S    
C4    O9    S    
C47   H22   S    
C42   C43   S    
Cu1   O7    S    
C51   H33   S    
C49   H29   S    
C48   H26   S    
C44   H2    S    
C4    O14   S    
C28   C29   A    
C52   H36   S    
C31   C32   A    
C23   O5    A    
C47   H21   S    
C36   H12   S    
C10   C13   A    
C5    C8    A    
C31   C38   A    
C13   C17   A    
C33   I2    S    
C32   C33   A    
C28   C30   A    
C2    C3    S    
Cu1   O5    S    
C37   C39   A    
C34   O8    A    
C49   H27   S    
C3    I6    S    
C43   H18   S    
C6    C23   S    
C22   O11   S    
C51   H35   S    
O13   C51   S    
C10   C11   A    
C42   H1    S    
O9    C47   S    
C41   H11   S    
C27   C28   A    
C26   N1    A    
C14   C15   A    
C7    H6    S    
O11   C49   S    
C13   C14   A    
C41   N2    A    
