data_mof_unit_63004.cif
_audit_creation_date              2012-12-10T16:57:26-0500
_audit_creation_method            fapswitch 2.2
_symmetry_space_group_name_H-M    P1
_symmetry_Int_Tables_number       1
_space_group_crystal_system       triclinic
_cell_length_a                    21.742355
_cell_length_b                    21.78571
_cell_length_c                    22.325612
_cell_angle_alpha                 59.511998
_cell_angle_beta                  119.253601
_cell_angle_gamma                 90.541769
_cell_volume                      7540.10063279

loop_
_atom_site_label
_atom_site_type_symbol
_atom_type_description
_atom_site_fract_x
_atom_site_fract_y
_atom_site_fract_z
_atom_type_partial_charge
C1    C     C_R   0.617484 0.502146 0.496624 0.964973
C2    C     C_3   0.292458 0.711050 0.082584 -0.083366
C3    C     C_3   0.188598 0.728977 0.974285 -0.497184
C4    C     C_3   0.208125 0.791693 0.917328 -0.083195
C5    C     C_3   0.211359 0.761381 0.027033 0.487494
C6    C     C_3   0.230062 0.823401 0.970205 0.489097
C7    C     C_1   0.337554 0.665584 0.173431 0.095562
C8    C     C_1   0.162830 0.836790 0.826512 0.095363
C9    C     C_2   0.756112 0.485870 0.445492 0.581343
C10   C     C_2   0.816530 0.488267 0.503312 -0.443690
C11   C     C_2   0.694506 0.475606 0.457108 -0.295937
C12   C     C_R   0.418759 0.581902 0.337345 0.891370
C13   C     C_2   0.676899 0.510689 0.484066 -0.405624
C14   C     C_3   0.709261 0.217542 0.028057 0.446338
C15   C     C_3   0.694442 0.302056 0.971090 0.540847
C16   C     C_1   0.625919 0.372371 0.751619 -0.172835
C17   C     C_1   0.874499 0.125672 0.248361 -0.153741
C18   C     C_3   0.724035 0.203023 0.974584 -0.429883
C19   C     C_3   0.709376 0.288670 0.917482 -0.011490
C20   C     C_3   0.806504 0.195437 0.028716 0.593245
C21   C     C_3   0.791689 0.208352 0.082470 -0.021379
C22   C     C_3   0.792401 0.280360 0.970746 -0.277513
C23   C     C_R   0.382619 0.497763 0.503441 0.981417
C24   C     C_3   0.777169 0.293683 0.025199 -0.387808
C25   C     C_1   0.663647 0.334254 0.826632 0.042316
C26   C     C_1   0.837093 0.163058 0.173358 0.076659
C27   C     C_2   0.248523 0.498243 0.563827 -0.315319
C28   C     C_2   0.183487 0.513032 0.496917 -0.407140
C29   C     C_2   0.312839 0.509786 0.557623 0.586684
C30   C     C_2   0.321806 0.490229 0.513546 -0.434783
C31   C     C_R   0.002592 0.877914 0.506172 0.967634
C32   C     C_R   0.081230 0.918484 0.662675 0.881683
C33   C     C_R   0.997065 0.122174 0.493304 0.948945
C34   C     C_R   0.581283 0.418086 0.662671 0.911809
C35   C     C_R   0.918756 0.081304 0.337295 0.898318
C36   C     C_R   0.000994 0.620027 0.498817 0.858952
C37   C     C_R   0.881042 0.497074 0.500470 0.970044
C38   C     C_R   0.000433 0.380044 0.501332 0.844116
C39   C     C_R   0.119062 0.502628 0.499589 0.954985
C40   C     C_2   0.067513 0.687591 0.556324 0.334971
C41   C     C_2   0.006899 0.689097 0.493849 0.178838
C42   C     C_2   0.071128 0.756767 0.552962 0.512683
C43   C     C_2   0.008546 0.804088 0.523354 -0.434811
C44   C     C_2   0.937346 0.311541 0.446521 -0.421663
C45   C     C_3   0.289224 0.741375 0.972863 0.488759
C46   C     C_2   0.998033 0.310839 0.507004 0.328460
C47   C     C_2   0.930648 0.241128 0.453127 0.606831
C48   C     C_2   0.991098 0.195900 0.476471 -0.350750
C49   C     C_3   0.312001 0.773770 0.025633 -0.496433
C50   C     C_1   0.374691 0.627569 0.248424 -0.171369
C51   C     C_1   0.125461 0.874109 0.751548 -0.174863
C52   C     C_3   0.270511 0.679366 0.029671 0.488401
H1    H     H_    0.362408 0.790658 0.048263 0.175376
H2    H     H_    0.703917 0.550634 0.492222 0.156235
H3    H     H_    0.702439 0.167174 0.952473 0.163625
H4    H     H_    0.254431 0.478663 0.622388 0.177055
H5    H     H_    0.891744 0.363389 0.392925 0.157474
H6    H     H_    0.821249 0.478184 0.558574 0.123689
O1    O     O_R   0.590490 0.448940 0.499990 -0.620524
O2    O     O_R   0.948920 0.909510 0.500030 -0.640995
O3    O     O_R   0.112670 0.938280 0.623210 -0.614284
O4    O     O_R   0.010540 0.938370 0.623230 -0.622996
O5    O     O_R   0.051080 0.090340 0.499970 -0.639870
O6    O     O_R   0.948950 0.090430 0.499990 -0.556546
O7    O     O_R   0.989460 0.061480 0.376770 -0.616176
O8    O     O_R   0.887330 0.061570 0.376790 -0.608506
O9    O     O_R   0.965150 0.625240 0.430430 -0.614837
O10   O     O_R   0.034710 0.555670 0.569560 -0.589426
O11   O     O_R   0.874770 0.534770 0.430450 -0.573862
O12   O     O_R   0.590420 0.551070 0.499980 -0.630548
O13   O     O_R   0.944330 0.465210 0.569580 -0.631730
O14   O     O_R   0.965290 0.444330 0.430440 -0.637833
O15   O     O_R   0.034850 0.374760 0.569570 -0.604054
O16   O     O_R   0.055670 0.534790 0.430420 -0.622460
O17   O     O_R   0.125230 0.465230 0.569550 -0.622753
O18   O     O_R   0.438430 0.510550 0.376780 -0.612286
O19   O     O_R   0.438360 0.612680 0.376770 -0.623118
O20   O     O_R   0.409580 0.448930 0.500020 -0.633609
O21   O     O_R   0.409510 0.551060 0.500010 -0.566399
O22   O     O_R   0.561640 0.387320 0.623230 -0.626635
O23   O     O_R   0.561570 0.489450 0.623220 -0.599817
O24   O     O_R   0.051050 0.909420 0.500010 -0.559169
Zn1   Zn    Zn3+2 0.500050 0.431810 0.500010 0.963405
Zn2   Zn    Zn3+2 0.499950 0.568190 0.499990 0.995591
Zn3   Zn    Zn3+2 0.068190 0.999870 0.499990 1.001356
Zn4   Zn    Zn3+2 0.931810 0.999990 0.500010 0.998003
Zn5   Zn    Zn3+2 0.953560 0.546450 0.407100 0.979375
Zn6   Zn    Zn3+2 0.046440 0.453550 0.592900 0.978427
O25   O     O_3   0.631963 0.359861 0.933952 -0.601218
C53   C     C_3   0.637371 0.366203 0.995939 -0.299562
H7    H     H_    0.683994 0.387368 0.019688 0.159755
H8    H     H_    0.643505 0.312088 0.048772 0.192490
H9    H     H_    0.585329 0.407713 0.967162 0.190477
O26   O     O_3   0.669917 0.183710 0.064337 -0.602320
C54   C     C_3   0.599279 0.192454 0.001859 -0.283205
H10   H     H_    0.603978 0.159080 0.978832 0.161616
H11   H     H_    0.567602 0.252486 0.948609 0.191664
H12   H     H_    0.566987 0.170804 0.029875 0.187725
H13   H     H_    0.799572 0.329219 0.047514 0.175622
H14   H     H_    0.825709 0.306250 0.945387 0.163849
O27   O     O_3   0.868558 0.137201 0.065834 -0.586806
C55   C     C_3   0.868348 0.137835 0.002347 -0.279255
H15   H     H_    0.872596 0.191625 0.959878 0.152171
H16   H     H_    0.818230 0.126810 0.965758 0.157979
H17   H     H_    0.917678 0.092170 0.032368 0.195839
H18   H     H_    0.175936 0.538015 0.436519 0.165520
O28   O     O_3   0.367990 0.531319 0.602417 -0.580613
C56   C     C_3   0.340859 0.574411 0.619850 -0.288425
H19   H     H_    0.335323 0.537710 0.672878 0.148612
H20   H     H_    0.287500 0.619736 0.563276 0.156107
H21   H     H_    0.381972 0.601980 0.639792 0.199174
O29   O     O_3   0.324726 0.733070 0.937582 -0.601318
C57   C     C_3   0.400747 0.692910 0.000670 -0.297183
H22   H     H_    0.409465 0.637717 0.054313 0.189283
H23   H     H_    0.429596 0.726569 0.022959 0.162575
H24   H     H_    0.426614 0.681614 0.973548 0.184850
H25   H     H_    0.286085 0.462692 0.488513 0.122808
O30   O     O_3   0.123713 0.620985 0.627512 -0.617219
C58   C     C_3   0.178159 0.609785 0.613892 -0.280361
H26   H     H_    0.207414 0.652430 0.609483 0.190715
H27   H     H_    0.154256 0.610051 0.556817 0.148590
H28   H     H_    0.220065 0.553855 0.668457 0.177473
O31   O     O_3   0.957757 0.758139 0.418095 -0.611749
C59   C     C_3   0.883198 0.761105 0.390887 -0.292430
H29   H     H_    0.875972 0.730316 0.443756 0.118475
H30   H     H_    0.860991 0.739807 0.351129 0.200988
H31   H     H_    0.849096 0.820729 0.351233 0.196651
O32   O     O_3   0.137385 0.773197 0.576092 -0.591939
C60   C     C_3   0.174409 0.749089 0.660418 -0.260274
H32   H     H_    0.188896 0.687235 0.703537 0.181575
H33   H     H_    0.140955 0.778488 0.668822 0.143044
H34   H     H_    0.227109 0.762862 0.678616 0.192145
H35   H     H_    0.959763 0.786281 0.514450 0.132407
O33   O     O_3   0.049914 0.242613 0.581917 -0.590860
C61   C     C_3   0.122833 0.243171 0.604007 -0.301745
H36   H     H_    0.144295 0.269639 0.638338 0.193621
H37   H     H_    0.126818 0.271282 0.548708 0.125433
H38   H     H_    0.159685 0.184175 0.647208 0.197481
O34   O     O_3   0.864871 0.222620 0.431781 -0.593810
C62   C     C_3   0.815235 0.261756 0.433651 -0.269143
H39   H     H_    0.788868 0.321521 0.378712 0.165406
H40   H     H_    0.843024 0.257030 0.493648 0.176536
H41   H     H_    0.770145 0.236248 0.429208 0.184231
H42   H     H_    0.038932 0.214644 0.481976 0.133502
O35   O     O_3   0.203625 0.900952 0.932089 -0.596493
C63   C     C_3   0.240172 0.915693 0.993327 -0.274162
H43   H     H_    0.299935 0.906496 0.016883 0.159646
H44   H     H_    0.233898 0.881431 0.046373 0.190197
H45   H     H_    0.214657 0.975611 0.963867 0.189414
O36   O     O_3   0.175863 0.769698 0.062312 -0.599904
C64   C     C_3   0.099829 0.809783 0.999245 -0.276472
H46   H     H_    0.071027 0.776055 0.977043 0.161498
H47   H     H_    0.091065 0.864964 0.945551 0.192105
H48   H     H_    0.073960 0.821097 0.026356 0.187749
H49   H     H_    0.138198 0.712078 0.951663 0.176491
O37   O     O_3   0.296875 0.601835 0.067653 -0.598366
C65   C     C_3   0.260416 0.587259 0.006256 -0.285692
H50   H     H_    0.266839 0.621560 0.953333 0.186291
H51   H     H_    0.200612 0.596532 0.982518 0.162595
H52   H     H_    0.285878 0.527356 0.035623 0.187541
O38   O     O_3   0.757608 0.484784 0.384157 -0.592855
C66   C     C_3   0.685691 0.505881 0.314386 -0.328576
H53   H     H_    0.648268 0.558281 0.291247 0.166736
H54   H     H_    0.661632 0.459257 0.329513 0.157740
H55   H     H_    0.690086 0.517326 0.262446 0.188931
H56   H     H_    0.663455 0.440312 0.442709 0.180089

loop_
_geom_bond_atom_site_label_1
_geom_bond_atom_site_label_2
_ccdc_geom_bond_type
C61   H38   S    
C40   O30   S    
C21   C26   S    
O27   C55   S    
C37   O11   A    
C27   C29   S    
C24   H13   S    
C14   C18   S    
C2    C7    S    
C62   H41   S    
C4    C8    S    
O32   C60   S    
O23   Zn2   S    
O38   C66   S    
C36   O9    A    
O31   C59   S    
O15   Zn6   S    
C36   O10   A    
C15   C19   S    
O4    Zn4   S    
C65   H50   S    
C31   O24   A    
C31   C43   S    
C10   C37   S    
C17   C26   T    
C14   C21   S    
O37   C65   S    
C10   H6    S    
O1    Zn1   S    
C32   O3    A    
C57   H22   S    
C1    O1    A    
O21   Zn2   S    
O3    Zn3   S    
C3    C52   S    
C39   O16   A    
C46   O33   S    
C35   O7    A    
C66   H55   S    
C56   H19   S    
C48   H42   S    
C55   H17   S    
C18   C19   S    
C64   H48   S    
C43   H35   S    
O30   C58   S    
C16   C34   S    
O20   Zn1   S    
C54   H10   S    
C28   H18   S    
C11   H56   S    
C64   H46   S    
C34   O23   A    
C39   O17   A    
O16   Zn5   S    
O12   Zn2   S    
C9    C10   D    
C66   H54   S    
O11   Zn5   S    
C44   C47   S    
C42   O32   S    
C60   H34   S    
C34   O22   A    
C40   C42   S    
C65   H51   S    
O5    Zn3   S    
C36   C41   S    
O26   C54   S    
O22   Zn1   S    
O18   Zn1   S    
O6    Zn4   S    
O29   C57   S    
C44   C46   D    
O35   C63   S    
C63   H44   S    
C4    C45   S    
C58   H27   S    
C38   O14   A    
C54   H12   S    
C22   H14   S    
C63   H43   S    
C23   C30   S    
C61   H36   S    
C19   C22   S    
C62   H39   S    
C4    C6    S    
C6    O35   S    
O2    Zn4   S    
C27   H4    S    
C20   O27   S    
C35   O8    A    
C5    O36   S    
C57   H23   S    
C31   O2    A    
C55   H16   S    
C32   C51   S    
C29   C30   D    
C2    C49   S    
C15   O25   S    
C63   H45   S    
C45   O29   S    
C53   H8    S    
C47   C48   D    
C45   C49   S    
C44   H5    S    
C33   O5    A    
C12   O19   A    
C3    H49   S    
C58   H26   S    
C9    O38   S    
C9    C11   S    
C8    C51   T    
C2    C52   S    
C18   H3    S    
C59   H31   S    
C15   C24   S    
C20   C22   S    
C65   H52   S    
C12   O18   A    
O10   Zn6   S    
C22   C24   S    
C2    C5    S    
C1    C13   S    
C42   C43   D    
O28   C56   S    
C28   C39   S    
C3    C4    S    
O14   Zn5   S    
C53   H9    S    
C59   H30   S    
C66   H53   S    
C58   H28   S    
C16   C25   T    
C61   H37   S    
C40   C41   D    
C14   C15   S    
C7    C50   T    
C62   H40   S    
C3    C5    S    
O8    Zn4   S    
C12   C50   S    
O34   C62   S    
C54   H11   S    
O7    Zn3   S    
O33   C61   S    
C30   H25   S    
C52   O37   S    
O24   Zn3   S    
C13   H2    S    
O9    Zn5   S    
C1    O12   A    
O19   Zn2   S    
C56   H21   S    
C45   C52   S    
C57   H24   S    
C37   O13   A    
C60   H32   S    
C32   O4    A    
C11   C13   D    
C41   O31   S    
C53   H7    S    
C5    C6    S    
C33   O6    A    
C49   H1    S    
C56   H20   S    
C18   C20   S    
C64   H47   S    
C23   O20   A    
C55   H15   S    
C19   C25   S    
C38   C46   S    
O13   Zn6   S    
O17   Zn6   S    
C20   C21   S    
C21   C24   S    
C47   O34   S    
C27   C28   D    
C33   C48   S    
O36   C64   S    
C29   O28   S    
C17   C35   S    
C23   O21   A    
O25   C53   S    
C14   O26   S    
C6    C49   S    
C59   H29   S    
C60   H33   S    
C38   O15   A    
