data_mof_unit_64453.cif
_audit_creation_date              2012-10-26T19:46:54-0400
_audit_creation_method            fapswitch 2.2
_symmetry_space_group_name_H-M    P1
_symmetry_Int_Tables_number       1
_space_group_crystal_system       triclinic
_cell_length_a                    10.835774
_cell_length_b                    9.522332
_cell_length_c                    15.989338
_cell_angle_alpha                 90.010711
_cell_angle_beta                  90.196509
_cell_angle_gamma                 89.990337
_cell_volume                      1649.79951984

loop_
_atom_site_label
_atom_site_type_symbol
_atom_type_description
_atom_site_fract_x
_atom_site_fract_y
_atom_site_fract_z
_atom_type_partial_charge
C1    C     C_R   0.871657 0.500003 0.500051 -0.098568
C2    C     C_R   0.499740 0.372411 0.956310 0.391121
C3    C     C_R   0.500091 0.500012 0.912634 -0.084043
C4    C     C_R   0.499908 0.499988 0.087366 -0.084043
C5    C     C_1   0.500140 0.500022 0.823024 0.117990
C6    C     C_1   0.499860 0.499978 0.176976 0.117990
C7    C     C_1   0.499854 0.499976 0.252065 0.081601
C8    C     C_1   0.500146 0.500023 0.747935 0.081601
C9    C     C_R   0.421901 0.074400 0.448911 0.074745
C10   C     C_R   0.578099 0.925600 0.551089 0.074745
C11   C     C_R   0.578072 0.074395 0.551106 0.076774
C12   C     C_R   0.128343 0.499997 0.499949 -0.098568
C13   C     C_R   0.421928 0.925605 0.448894 0.076774
C14   C     C_R   0.064108 0.386211 0.534679 0.359483
C15   C     C_R   0.935892 0.613789 0.465320 0.359483
C16   C     C_R   0.936327 0.386226 0.534742 0.356516
C17   C     C_R   0.063673 0.613773 0.465258 0.356517
C18   C     C_R   0.262148 0.500005 0.499939 0.605775
C19   C     C_R   0.737852 0.499995 0.500061 0.605775
C20   C     C_R   0.499885 0.499991 0.341227 0.548770
C21   C     C_R   0.500115 0.500009 0.658773 0.548770
C22   C     C_R   0.500351 0.627600 0.956353 0.387277
C23   C     C_R   0.499648 0.372400 0.043647 0.387277
C24   C     C_R   0.500260 0.627589 0.043689 0.391121
Cu1   Cu    Cu3+1 0.500000 0.640660 0.500000 1.089042
Cu2   Cu    Cu3+1 0.500000 0.359340 0.500000 1.089042
F1    F     F_    0.500516 0.751624 0.085634 -0.503351
F2    F     F_    0.499484 0.248376 0.914366 -0.503351
F3    F     F_    0.500689 0.751647 0.914449 -0.507141
F4    F     F_    0.499311 0.248353 0.085551 -0.507141
F5    F     F_    0.124669 0.276608 0.570532 -0.527502
F6    F     F_    0.875331 0.723392 0.429468 -0.527502
F7    F     F_    0.876228 0.276675 0.570685 -0.550394
F8    F     F_    0.123772 0.723325 0.429315 -0.550394
H1    H     H_    0.359330 0.130445 0.407967 0.151464
H2    H     H_    0.640670 0.869555 0.592033 0.151464
H3    H     H_    0.640551 0.130429 0.592110 0.183068
H4    H     H_    0.359449 0.869571 0.407890 0.183068
N1    N     N_R   0.500000 0.852070 0.500000 -0.244201
N2    N     N_R   0.500000 0.147930 0.500000 -0.244201
O1    O     O_R   0.319640 0.618740 0.499990 -0.458066
O2    O     O_R   0.680360 0.381260 0.500010 -0.458066
O3    O     O_R   0.680360 0.618740 0.500010 -0.457356
O4    O     O_R   0.319640 0.381260 0.499990 -0.457356
O5    O     O_R   0.499970 0.618750 0.380310 -0.484543
O6    O     O_R   0.500030 0.381250 0.619690 -0.484543
O7    O     O_R   0.500030 0.618750 0.619690 -0.508462
O8    O     O_R   0.499970 0.381250 0.380310 -0.508462

loop_
_geom_bond_atom_site_label_1
_geom_bond_atom_site_label_2
_ccdc_geom_bond_type
C12   C17   A    
C5    C8    T    
C2    F2    S    
C24   F1    S    
C6    C7    T    
C1    C15   A    
C22   F3    S    
C18   O4    A    
C16   F7    S    
Cu1   O7    S    
C20   O5    A    
C19   O2    A    
Cu2   O8    S    
C14   F5    S    
Cu1   O3    S    
C2    C3    A    
Cu2   O4    S    
C15   F6    S    
C1    C16   A    
C21   O7    A    
Cu1   N1    S    
Cu2   N2    S    
C13   H4    S    
C20   O8    A    
C4    C6    S    
C19   O3    A    
C8    C21   S    
C22   C24   A    
C11   N2    A    
C4    C24   A    
C14   C16   A    
C1    C19   S    
C13   N1    A    
C10   C11   A    
Cu2   O6    S    
Cu1   O1    S    
C23   F4    S    
Cu1   O5    S    
Cu2   O2    S    
C15   C17   A    
C21   O6    A    
C17   F8    S    
C18   O1    A    
C12   C18   S    
C2    C23   A    
C11   H3    S    
C4    C23   A    
C9    C13   A    
C9    H1    S    
C10   H2    S    
C3    C5    S    
Cu1   Cu2   S    
C7    C20   S    
C9    N2    A    
C12   C14   A    
C10   N1    A    
C3    C22   A    
