data_mof_unit_49504.cif
_audit_creation_date              2012-12-11T15:55:41-0500
_audit_creation_method            fapswitch 2.2
_symmetry_space_group_name_H-M    P1
_symmetry_Int_Tables_number       1
_space_group_crystal_system       triclinic
_cell_length_a                    11.016729
_cell_length_b                    10.973376
_cell_length_c                    18.591503
_cell_angle_alpha                 90.737083
_cell_angle_beta                  90.539156
_cell_angle_gamma                 59.707949
_cell_volume                      1940.50163727

loop_
_atom_site_label
_atom_site_type_symbol
_atom_type_description
_atom_site_fract_x
_atom_site_fract_y
_atom_site_fract_z
_atom_type_partial_charge
C1    C     C_R   0.386358 0.709789 0.389115 0.565287
C2    C     C_R   0.610342 0.151262 0.157750 0.038408
C3    C     C_R   0.361905 0.349699 0.158291 -0.007357
C4    C     C_R   0.478027 0.260782 0.270191 -0.150799
C5    C     C_R   0.483430 0.258873 0.196136 -0.026791
C6    C     C_R   0.048811 0.657196 0.365720 -0.100724
C7    C     C_R   0.910943 0.755529 0.385254 -0.131001
C8    C     C_R   0.649057 0.008828 0.162826 -0.073819
C9    C     C_R   0.741594 0.909876 0.112602 -0.111668
C10   C     C_R   0.253103 0.466439 0.193837 -0.151874
C11   C     C_R   0.236842 0.472704 0.269778 -0.021749
C12   C     C_R   0.383785 0.357090 0.386828 0.541728
C13   C     C_R   0.802582 0.793502 0.337013 -0.101732
C14   C     C_R   0.833065 0.734358 0.269046 -0.126330
C15   C     C_R   0.969880 0.634598 0.249078 -0.115928
C16   C     C_R   0.086532 0.586492 0.297286 0.004656
C17   C     C_R   0.357388 0.360254 0.308748 0.007237
C18   C     C_R   0.943149 0.293453 0.195625 0.007794
C19   C     C_R   0.876027 0.223383 0.221968 0.027893
C20   C     C_R   0.839405 0.235086 0.294582 0.011041
C21   C     C_R   0.963574 0.360012 0.318300 -0.151854
C22   C     C_R   0.003644 0.342591 0.245746 -0.168953
C23   C     C_R   0.785542 0.372822 0.405806 0.539511
C24   C     C_3   0.944511 0.066281 0.224724 -0.255840
C25   C     C_3   0.900492 0.079719 0.301685 -0.271006
C26   C     C_R   0.871562 0.315488 0.341400 0.000278
C27   C     C_R   0.363270 0.797302 0.165055 0.016606
C28   C     C_R   0.489534 0.758806 0.200261 -0.007347
C29   C     C_R   0.499655 0.726699 0.274831 0.009881
C30   C     C_R   0.269156 0.755696 0.272154 -0.163341
C31   C     C_R   0.266871 0.768123 0.198834 -0.156596
C32   C     C_3   0.617131 0.617954 0.184995 -0.272755
C33   C     C_3   0.627404 0.587121 0.263649 -0.259894
C34   C     C_R   0.341240 0.774350 0.603122 0.546847
C35   C     C_R   0.382731 0.740804 0.312372 0.019158
C36   C     C_R   0.312816 0.334898 0.817311 0.010890
C37   C     C_R   0.446208 0.272348 0.786662 0.012395
C38   C     C_R   0.458349 0.269527 0.713857 0.034384
C39   C     C_R   0.207525 0.413915 0.699059 -0.174467
C40   C     C_R   0.193056 0.414341 0.773694 -0.164852
C41   C     C_3   0.574733 0.127770 0.793310 -0.271248
C42   C     C_3   0.582361 0.123448 0.712169 -0.261722
C43   C     C_R   0.341199 0.333419 0.668662 0.016632
C44   C     C_R   0.799490 0.334741 0.839990 0.018226
C45   C     C_R   0.370047 0.349336 0.595447 0.544643
C46   C     C_R   0.709143 0.471196 0.814341 0.023504
C47   C     C_R   0.676562 0.493863 0.741965 0.001171
C48   C     C_R   0.815555 0.244192 0.718474 -0.154238
C49   C     C_R   0.843823 0.220446 0.791888 -0.174113
C50   C     C_3   0.714043 0.604798 0.822028 -0.269484
C51   C     C_3   0.680459 0.627672 0.742579 -0.278364
C52   C     C_R   0.735508 0.382471 0.692610 0.024871
C53   C     C_R   0.240346 0.943430 0.814086 0.008991
C54   C     C_R   0.167806 0.885138 0.780797 0.002452
C55   C     C_R   0.193625 0.842538 0.710292 0.027350
C56   C     C_R   0.703796 0.410535 0.616617 0.563980
C57   C     C_R   0.344405 0.939898 0.697817 -0.175769
C58   C     C_R   0.316935 0.984869 0.770178 -0.164862
C59   C     C_3   0.151911 0.763023 0.801816 -0.264550
C60   C     C_3   0.180858 0.715817 0.723948 -0.253596
C61   C     C_R   0.293939 0.854625 0.670160 0.017166
C62   C     C_R   0.974141 0.288079 0.118603 0.558537
C63   C     C_R   0.329833 0.299001 0.090671 0.537251
C64   C     C_R   0.311118 0.889327 0.102077 0.545828
C65   C     C_R   0.877178 0.311559 0.906733 0.543215
C66   C     C_R   0.296507 0.290625 0.886777 0.540606
C67   C     C_R   0.795266 0.952750 0.057047 -0.116465
C68   C     C_R   0.234987 0.961904 0.891924 0.570568
C69   C     C_R   0.755597 0.094576 0.051177 -0.077422
C70   C     C_R   0.665445 0.193466 0.101713 -0.069040
Cr1   Cr    Cr6+3 0.601740 0.606840 0.505840 1.006823
Cr2   Cr    Cr6+3 0.291500 0.601560 0.495070 0.970559
Cr3   Cr    Cr6+3 0.606780 0.291630 0.499130 0.999655
Cr4   Cr    Cr6+3 0.062440 0.063060 0.008240 0.970771
Cr5   Cr    Cr6+3 0.062950 0.375000 0.998920 0.981470
Cr6   Cr    Cr6+3 0.374550 0.061770 0.992470 1.005528
H1    H     H_    0.695524 0.869949 0.351790 0.121359
H2    H     H_    0.748329 0.762113 0.232396 0.104249
H3    H     H_    0.978729 0.592216 0.195525 0.112883
H4    H     H_    0.081700 0.365893 0.227814 0.130359
H5    H     H_    0.059431 0.017220 0.218656 0.159050
H6    H     H_    0.895605 0.021557 0.189205 0.162948
H7    H     H_    0.990715 0.030415 0.339854 0.153646
H8    H     H_    0.179085 0.761316 0.297066 0.152447
H9    H     H_    0.767234 0.801044 0.114374 0.099336
H10   H     H_    0.706385 0.625336 0.163222 0.145656
H11   H     H_    0.593320 0.546661 0.152389 0.144578
H12   H     H_    0.609354 0.498657 0.276012 0.138101
H13   H     H_    0.718805 0.582906 0.290476 0.175943
H14   H     H_    0.115640 0.473727 0.665498 0.127644
H15   H     H_    0.088228 0.466926 0.796250 0.136906
H16   H     H_    0.558427 0.043328 0.814458 0.152891
H17   H     H_    0.677877 0.117506 0.690469 0.151795
H18   H     H_    0.888873 0.805940 0.437800 0.100477
H19   H     H_    0.557940 0.045879 0.687444 0.125219
H20   H     H_    0.862799 0.154796 0.681789 0.134399
H21   H     H_    0.912413 0.113511 0.809681 0.134141
H22   H     H_    0.576434 0.720077 0.731658 0.151174
H23   H     H_    0.767980 0.620914 0.710109 0.148311
H24   H     H_    0.412779 0.961191 0.665841 0.117474
H25   H     H_    0.362310 0.043316 0.792859 0.141586
H26   H     H_    0.042767 0.796626 0.818605 0.130204
H27   H     H_    0.864213 0.876898 0.017339 0.095840
H28   H     H_    0.235990 0.689275 0.839028 0.159634
H29   H     H_    0.282626 0.616185 0.716152 0.153587
H30   H     H_    0.088778 0.721490 0.695718 0.140585
H31   H     H_    0.790781 0.128640 0.006048 0.152513
H32   H     H_    0.631299 0.304003 0.094552 0.101824
H33   H     H_    0.116402 0.656100 0.405466 0.201756
H34   H     H_    0.174840 0.547060 0.159764 0.117280
O1    O     O_R   0.748670 0.497520 0.427970 -0.520049
O2    O     O_R   0.300170 0.471020 0.567120 -0.508214
O3    O     O_R   0.491630 0.259030 0.574940 -0.521360
O4    O     O_R   0.718640 0.304340 0.577850 -0.509002
O5    O     O_3   0.500010 0.500010 0.500020 -0.279468
O6    O     O_R   0.186620 0.923750 0.087000 -0.540479
O7    O     O_R   0.957350 0.194160 0.084660 -0.505650
O8    O     O_R   0.935120 0.407280 0.085350 -0.528165
O9    O     O_R   0.203800 0.365060 0.067090 -0.523192
O10   O     O_R   0.417470 0.174910 0.067830 -0.490805
O11   O     O_R   0.375160 0.946380 0.070880 -0.485902
O12   O     O_R   0.476470 0.723930 0.429450 -0.487334
O13   O     O_R   0.160500 0.919670 0.926690 -0.524253
O14   O     O_R   0.933140 0.190380 0.936050 -0.540918
O15   O     O_R   0.909010 0.403210 0.925030 -0.518485
O16   O     O_R   0.179590 0.361290 0.918480 -0.509321
O17   O     O_R   0.391360 0.170840 0.907510 -0.538824
O18   O     O_R   0.350950 0.942600 0.922260 -0.509884
O19   O     O_3   0.166650 0.166610 0.999880 -0.276726
O20   O     O_R   0.264730 0.744140 0.416740 -0.554785
O21   O     O_R   0.309440 0.472410 0.418220 -0.544081
O22   O     O_R   0.501630 0.260530 0.414310 -0.520264
O23   O     O_R   0.727920 0.305730 0.428950 -0.494925
O24   O     O_R   0.738670 0.496020 0.588600 -0.516525
O25   O     O_R   0.467190 0.722540 0.578350 -0.513292
O26   O     O_R   0.254720 0.742640 0.577370 -0.514517
H35   H     H_    0.571768 0.182311 0.297528 0.136288
H36   H     H_    0.999024 0.412359 0.355397 0.151331
H37   H     H_    0.818712 0.050850 0.310520 0.141994
H38   H     H_    0.175049 0.778407 0.171308 0.142273
H39   H     H_    0.663143 0.132040 0.819692 0.139337
H40   H     H_    0.819991 0.588580 0.834404 0.154822
H41   H     H_    0.627882 0.684320 0.856577 0.151950
H42   H     H_    0.596838 0.978504 0.201610 0.106394

loop_
_geom_bond_atom_site_label_1
_geom_bond_atom_site_label_2
_ccdc_geom_bond_type
C44   C49   A    
C7    C13   A    
Cr4   O14   S    
C21   C26   A    
Cr2   O2    S    
C64   O6    A    
C12   O21   A    
C2    C70   A    
C42   H17   S    
C41   C42   S    
Cr1   O12   S    
C19   C20   A    
Cr1   O24   S    
C69   H31   S    
C45   O2    A    
C67   H27   S    
C53   C54   A    
Cr2   O5    S    
Cr6   O10   S    
C30   C35   A    
Cr6   O11   S    
C28   C29   A    
C25   H37   S    
C33   H12   S    
C38   C42   S    
Cr1   O25   S    
C30   C31   A    
C36   C66   S    
Cr2   O26   S    
C20   C25   S    
C64   O11   A    
C29   C33   S    
Cr3   O3    S    
C66   O17   A    
C18   C19   A    
C11   C16   S    
C23   C26   S    
C7    H18   S    
C53   C68   S    
C24   H6    S    
C1    O12   A    
C62   O7    A    
Cr5   O19   S    
C9    H9    S    
C4    H35   S    
C54   C55   A    
C52   C56   S    
C15   H3    S    
C8    C9    A    
Cr1   O1    S    
C12   C17   S    
C12   O22   A    
C68   O18   A    
C39   H14   S    
C55   C60   S    
C51   H22   S    
Cr4   O13   S    
Cr3   O22   S    
C32   H10   S    
C59   C60   S    
C13   C14   A    
C30   H8    S    
C44   C65   S    
Cr5   O8    S    
C21   H36   S    
C68   O13   A    
C44   C46   A    
C54   C59   S    
C51   H23   S    
C13   H1    S    
C23   O23   A    
C27   C31   A    
C42   H19   S    
C28   C32   S    
Cr5   O9    S    
C24   C25   S    
C1    O20   A    
C10   C11   A    
C39   C40   A    
C18   C62   S    
C39   C43   A    
C32   H11   S    
C6    C16   A    
C34   C61   S    
Cr3   O4    S    
C66   O16   A    
Cr5   O15   S    
C65   O15   A    
C24   H5    S    
C9    C67   A    
C41   H39   S    
C37   C38   A    
C33   H13   S    
C63   O9    A    
Cr6   O19   S    
C56   O24   A    
C34   O26   A    
Cr4   O6    S    
C50   C51   S    
Cr1   O5    S    
C8    H42   S    
C58   H25   S    
C45   O3    A    
C57   C61   A    
C43   C45   S    
C47   C52   A    
C4    C17   A    
C48   C49   A    
Cr3   O23   S    
Cr6   O18   S    
C6    H33   S    
C2    C5    S    
C59   H28   S    
C36   C40   A    
C60   H30   S    
C50   H41   S    
C1    C35   S    
Cr2   O21   S    
Cr4   O7    S    
C46   C50   S    
C46   C47   A    
C36   C37   A    
C48   H20   S    
C18   C22   A    
C59   H26   S    
C2    C8    A    
C4    C5    A    
C3    C5    A    
C11   C17   A    
C47   C51   S    
C53   C58   A    
Cr2   O20   S    
C6    C7    A    
C3    C63   S    
C23   O1    A    
C29   C35   A    
Cr3   O5    S    
Cr5   O16   S    
C32   C33   S    
C19   C24   S    
C22   H4    S    
C38   C43   A    
C3    C10   A    
C70   H32   S    
C63   O10   A    
C57   H24   S    
C57   C58   A    
C20   C26   A    
C34   O25   A    
C55   C61   A    
C10   H34   S    
C14   H2    S    
C40   H15   S    
C37   C41   S    
C69   C70   A    
C62   O8    A    
C27   C64   S    
C49   H21   S    
C65   O14   A    
C50   H40   S    
C48   C52   A    
C41   H16   S    
Cr4   O19   S    
C27   C28   A    
C25   H7    S    
Cr6   O17   S    
C56   O4    A    
C14   C15   A    
C67   C69   A    
C31   H38   S    
C21   C22   A    
C60   H29   S    
C15   C16   A    
