data_mof_unit_11693.cif
_audit_creation_date              2012-12-10T17:04:34-0500
_audit_creation_method            fapswitch 2.2
_symmetry_space_group_name_H-M    P1
_symmetry_Int_Tables_number       1
_space_group_crystal_system       triclinic
_cell_length_a                    14.951312
_cell_length_b                    10.771658
_cell_length_c                    10.087289
_cell_angle_alpha                 90.471264
_cell_angle_beta                  89.876863
_cell_angle_gamma                 89.878268
_cell_volume                      1624.49969304

loop_
_atom_site_label
_atom_site_type_symbol
_atom_type_description
_atom_site_fract_x
_atom_site_fract_y
_atom_site_fract_z
_atom_type_partial_charge
C1    C     C_R   0.493721 0.263252 0.498827 1.012459
C2    C     C_R   0.187015 0.397493 0.448199 -0.009962
C3    C     C_R   0.231390 0.502924 0.496378 -0.209783
C4    C     C_R   0.327298 0.500753 0.499939 0.925896
C5    C     C_R   0.185788 0.613044 0.528942 -0.059867
C6    C     C_2   0.460126 0.929799 0.405775 0.386665
C7    C     C_2   0.508932 0.868666 0.497287 -0.209881
C8    C     C_2   0.472412 0.062013 0.387130 -0.133747
C9    C     C_2   0.470877 0.134159 0.496638 -0.374208
C10   C     C_2   0.547768 0.576344 0.924605 0.640294
C11   C     C_2   0.560096 0.556597 0.073016 -0.149029
C12   C     C_R   0.906659 0.619459 0.505561 0.028194
C13   C     C_R   0.501103 0.736942 0.500301 0.981119
C14   C     C_R   0.672854 0.500391 0.499351 0.882832
C15   C     C_R   0.815040 0.609829 0.534645 0.435042
C16   C     C_R   0.768960 0.502059 0.494238 -0.241765
C17   C     C_R   0.813183 0.403868 0.428342 -0.131064
C18   C     C_R   0.907108 0.402713 0.424723 -0.010312
C19   C     C_R   0.953619 0.511966 0.462555 -0.068551
C20   C     C_2   0.581519 0.924115 0.579116 0.843031
C21   C     C_2   0.489937 0.102985 0.249310 0.987150
C22   C     C_2   0.644855 0.599647 0.131332 0.946056
C23   C     C_R   0.955521 0.295924 0.383657 0.428114
C24   C     C_2   0.409504 0.508407 0.107671 1.132268
C25   C     C_2   0.760238 0.309013 0.354778 1.073326
C26   C     C_2   0.091670 0.221159 0.263802 0.981138
C27   C     C_2   0.234302 0.275713 0.448543 0.860152
C28   C     C_2   0.231975 0.711595 0.607357 0.931686
C29   C     C_2   0.094766 0.854431 0.484485 0.937435
C30   C     C_2   0.901792 0.853229 0.511473 1.033176
C31   C     C_R   0.048146 0.303453 0.365368 -0.161065
C32   C     C_R   0.094722 0.403868 0.424192 -0.037551
C33   C     C_R   0.047340 0.512481 0.462506 0.071827
C34   C     C_R   0.093536 0.621238 0.502320 0.030262
C35   C     C_R   0.046520 0.735727 0.508976 -0.122188
C36   C     C_R   0.952389 0.734439 0.515535 -0.080059
H1    H     H_    0.453514 0.094117 0.591978 0.158948
H2    H     H_    0.949725 0.118740 0.405592 0.389034
H3    H     H_    0.100511 0.053114 0.174663 0.374614
H4    H     H_    0.243454 0.104742 0.526959 0.352130
H5    H     H_    0.230858 0.821243 0.770392 0.369723
H6    H     H_    0.186947 0.943916 0.374430 0.361609
H7    H     H_    0.814938 0.960743 0.411250 0.391294
H8    H     H_    0.363504 0.927715 0.276081 0.354567
H9    H     H_    0.707843 0.699967 0.598902 0.356881
H10   H     H_    0.693011 0.028476 0.585857 0.390586
H11   H     H_    0.563853 0.080229 0.083409 0.372950
H12   H     H_    0.611441 0.733191 0.930587 0.349338
H13   H     H_    0.450425 0.343661 0.837873 0.387186
H14   H     H_    0.779091 0.583245 0.136361 0.361529
H15   H     H_    0.309303 0.610801 0.030580 0.359057
H16   H     H_    0.664112 0.179693 0.358764 0.374256
N1    N     N_2   0.500970 0.501330 0.852150 0.023299
N2    N     N_2   0.500990 0.501360 0.147810 -0.198330
O1    O     O_R   0.499990 0.319060 0.613040 -0.626782
O2    O     O_2   0.585534 0.901866 0.697588 -0.532959
O3    O     O_R   0.646723 0.997889 0.520003 -0.764676
O4    O     O_2   0.440577 0.178185 0.196262 -0.504890
O5    O     O_R   0.559269 0.047279 0.177034 -0.749528
O6    O     O_3   0.587030 0.676103 0.862396 -0.697458
O7    O     O_3   0.486866 0.388618 0.904129 -0.704847
O8    O     O_2   0.644882 0.686299 0.210298 -0.562808
O9    O     O_R   0.725343 0.545657 0.090001 -0.737566
O10   O     O_2   0.360290 0.419741 0.125909 -0.494211
O11   O     O_R   0.375143 0.617739 0.053239 -0.810795
O12   O     O_R   0.500010 0.319100 0.386900 -0.583179
O13   O     O_2   0.772136 0.294278 0.235645 -0.522905
O14   O     O_R   0.696307 0.238662 0.421012 -0.797737
O15   O     O_3   0.912172 0.184263 0.365383 -0.710646
O16   O     O_2   0.148017 0.264557 0.189339 -0.545678
O17   O     O_R   0.066523 0.096981 0.248513 -0.761988
O18   O     O_2   0.297997 0.257464 0.374921 -0.554549
O19   O     O_R   0.204750 0.181988 0.532851 -0.757923
O20   O     O_2   0.301857 0.756638 0.567525 -0.606611
O21   O     O_R   0.194021 0.753684 0.726329 -0.756280
O22   O     O_2   0.082783 0.944832 0.556414 -0.535088
O23   O     O_R   0.367830 0.499950 0.613080 -0.632028
O24   O     O_R   0.156038 0.860495 0.379767 -0.759998
O25   O     O_2   0.906288 0.927054 0.603918 -0.525781
O26   O     O_R   0.846588 0.877750 0.403083 -0.744793
O27   O     O_3   0.396834 0.866974 0.330509 -0.676594
O28   O     O_R   0.367860 0.499990 0.386940 -0.573146
O29   O     O_R   0.499990 0.680900 0.613100 -0.566886
O30   O     O_R   0.500010 0.680940 0.386960 -0.557227
O31   O     O_R   0.632140 0.500010 0.613060 -0.568603
O32   O     O_R   0.632170 0.500050 0.386920 -0.632658
O33   O     O_3   0.773557 0.706433 0.602966 -0.712369
Zn1   Zn    Zn3+2 0.499980 0.499970 0.650990 1.091440
Zn2   Zn    Zn3+2 0.500020 0.500030 0.349010 1.099985

loop_
_geom_bond_atom_site_label_1
_geom_bond_atom_site_label_2
_ccdc_geom_bond_type
H14   O9    S    
C23   O15   S    
C35   C36   A    
C25   O13   D    
C20   O2    D    
C28   O20   D    
C29   O22   D    
C13   O30   A    
O28   Zn2   S    
H9    O33   S    
C21   O5    S    
H5    O21   S    
C24   N2    S    
C15   C16   A    
H4    O19   S    
C2    C32   A    
C34   C35   A    
H15   O11   S    
O1    Zn1   S    
C10   N1    D    
C22   O9    S    
N1    O7    S    
C29   O24   S    
O23   Zn1   S    
C8    C9    D    
C2    C27   S    
C12   C36   A    
H16   O14   S    
C30   O26   S    
O29   Zn1   S    
H2    O15   S    
C26   C31   S    
C24   O10   D    
C6    O27   S    
C26   O17   S    
C21   O4    D    
C25   O14   S    
H12   O6    S    
O12   Zn2   S    
H13   O7    S    
C18   C23   A    
C1    C9    S    
C14   O32   A    
N2    Zn2   S    
H8    O27   S    
C19   C33   A    
C18   C19   A    
C6    C8    S    
H7    O26   S    
C1    O12   A    
C10   O6    S    
C22   O8    D    
C5    C28   S    
C31   C32   A    
C12   C15   A    
C5    C34   A    
C9    H1    S    
C17   C18   A    
C11   N2    D    
C24   O11   S    
C30   O25   D    
H6    O24   S    
H10   O3    S    
C26   O16   D    
C14   C16   S    
O30   Zn2   S    
C3    C4    S    
C15   O33   S    
O31   Zn1   S    
C13   O29   A    
C14   O31   A    
C3    C5    A    
O32   Zn2   S    
C8    C21   S    
C6    C7    D    
C29   C35   S    
C11   C22   S    
C30   C36   S    
C17   C25   S    
C32   C33   A    
C2    C3    A    
C1    O1    A    
C4    O23   A    
C16   C17   A    
C12   C19   A    
C33   C34   A    
N1    Zn1   S    
C10   C11   S    
H11   O5    S    
C7    C13   S    
C4    O28   A    
C7    C20   S    
H3    O17   S    
C20   O3    S    
C27   O19   S    
C28   O21   S    
C27   O18   D    
C23   C31   A    
