data_mof_unit_15185.cif
_audit_creation_date              2012-10-26T18:50:22-0400
_audit_creation_method            fapswitch 2.2
_symmetry_space_group_name_H-M    P1
_symmetry_Int_Tables_number       1
_space_group_crystal_system       triclinic
_cell_length_a                    9.607964
_cell_length_b                    10.75505
_cell_length_c                    15.528523
_cell_angle_alpha                 87.170854
_cell_angle_beta                  73.642724
_cell_angle_gamma                 90.074877
_cell_volume                      1537.60774985

loop_
_atom_site_label
_atom_site_type_symbol
_atom_type_description
_atom_site_fract_x
_atom_site_fract_y
_atom_site_fract_z
_atom_type_partial_charge
C1    C     C_R   0.000239 0.262800 0.499292 0.538755
C2    C     C_R   0.212861 0.494826 0.041272 0.048892
C3    C     C_R   0.312005 0.540454 0.085010 0.068255
C4    C     C_R   0.917239 0.499877 0.672106 0.542973
C5    C     C_R   0.069153 0.466180 0.090053 -0.142393
C6    C     C_R   0.025669 0.472697 0.183055 -0.145788
C7    C     C_R   0.268421 0.539041 0.179699 -0.081579
C8    C     C_R   0.008467 0.141827 0.334265 -0.098702
C9    C     C_R   0.016817 0.082564 0.255097 -0.117746
C10   C     C_R   0.023892 0.953321 0.253941 -0.125703
C11   C     C_R   0.021208 0.882564 0.332142 -0.128637
C12   C     C_R   0.660149 0.537437 0.901207 0.030869
C13   C     C_R   0.009315 0.940585 0.413490 0.018984
C14   C     C_R   0.005512 0.071874 0.414218 0.029250
C15   C     C_R   0.002118 0.129316 0.494669 0.008012
C16   C     C_R   0.000916 0.737290 0.498571 0.530911
C17   C     C_R   0.003247 0.058824 0.572282 -0.152546
C18   C     C_R   0.003390 0.930363 0.572114 -0.139098
C19   C     C_R   0.004267 0.871350 0.494006 0.010221
C20   C     C_R   0.695501 0.673863 0.386882 -0.091647
C21   C     C_R   0.645262 0.769225 0.340577 -0.139731
C22   C     C_R   0.500297 0.772614 0.343993 -0.134071
C23   C     C_R   0.755578 0.589353 0.945162 0.018740
C24   C     C_R   0.407108 0.677470 0.389522 -0.092832
C25   C     C_R   0.450440 0.586428 0.445113 0.154680
C26   C     C_R   0.600032 0.585708 0.444622 0.153487
C27   C     C_R   0.549639 0.418309 0.553013 -0.002035
C28   C     C_R   0.082388 0.502133 0.327740 0.511907
C29   C     C_R   0.401849 0.418162 0.552841 -0.002827
C30   C     C_R   0.868337 0.513291 0.769700 -0.003048
C31   C     C_R   0.126076 0.505044 0.228843 -0.007754
C32   C     C_R   0.905794 0.595291 0.903561 -0.139884
C33   C     C_R   0.961836 0.558471 0.815931 -0.140733
C34   C     C_R   0.508261 0.530885 0.945175 0.014418
C35   C     C_R   0.720536 0.495972 0.814242 -0.118220
C36   C     C_2   0.495037 0.756690 0.123587 0.550316
C37   C     C_R   0.455958 0.574224 0.033520 0.015313
C38   C     C_R   0.549598 0.650392 0.065790 0.032731
C39   C     C_R   0.699618 0.645599 0.026272 -0.138193
C40   C     C_R   0.405909 0.485832 0.903531 -0.129243
C41   C     C_R   0.259824 0.473252 0.950051 -0.137172
Cu1   Cu    Cu3+1 0.140660 0.499990 0.500010 0.925710
Cu2   Cu    Cu3+1 0.859340 0.500010 0.499990 0.922721
H1    H     H_    0.773065 0.696474 0.054037 0.152760
H2    H     H_    0.809534 0.673108 0.375278 0.177790
H3    H     H_    0.719805 0.839251 0.300232 0.156527
H4    H     H_    0.345934 0.561392 0.215676 0.131542
H5    H     H_    0.460103 0.846948 0.308511 0.169491
H6    H     H_    0.303335 0.679499 0.377947 0.180668
H7    H     H_    0.326838 0.351150 0.596241 0.115136
H8    H     H_    0.914840 0.447196 0.219422 0.136275
H9    H     H_    0.184824 0.438903 0.915699 0.108851
H10   H     H_    0.979090 0.634982 0.937007 0.119021
H11   H     H_    0.076616 0.571703 0.782922 0.130685
H12   H     H_    0.991613 0.434574 0.056610 0.115165
H13   H     H_    0.654351 0.453980 0.777779 0.115189
H14   H     H_    0.434071 0.460981 0.834528 0.102620
H15   H     H_    0.328181 0.867097 0.180733 0.333064
H16   H     H_    0.001982 0.103618 0.633523 0.114171
H17   H     H_    0.005361 0.242341 0.332103 0.130289
H18   H     H_    0.019340 0.137238 0.194222 0.124307
H19   H     H_    0.032352 0.907693 0.192111 0.144751
H20   H     H_    0.030640 0.782731 0.328018 0.107982
H21   H     H_    0.001634 0.876526 0.633323 0.124959
H22   H     H_    0.584788 0.351443 0.596578 0.115332
N1    N     N_R   0.648320 0.501210 0.499140 -0.241359
N2    N     N_R   0.352470 0.501290 0.499110 -0.240912
O1    O     O_R   0.118810 0.319640 0.500010 -0.493557
O2    O     O_R   0.349618 0.791319 0.143113 -0.716976
O3    O     O_R   0.881240 0.319660 0.500000 -0.500293
O4    O     O_R   0.055570 0.499980 0.629840 -0.501064
O5    O     O_R   0.818000 0.500010 0.629830 -0.499729
O6    O     O_R   0.118760 0.680340 0.500000 -0.517555
O7    O     O_R   0.881190 0.680360 0.499990 -0.509543
O8    O     O_R   0.182000 0.499990 0.370170 -0.517679
O9    O     O_R   0.944430 0.500020 0.370160 -0.528883
O10   O     O_2   0.580561 0.821428 0.147575 -0.556587

loop_
_geom_bond_atom_site_label_1
_geom_bond_atom_site_label_2
_ccdc_geom_bond_type
C22   H5    S    
Cu2   O5    S    
C27   C29   A    
C34   C37   A    
C25   N2    A    
C12   C23   A    
Cu1   O8    S    
C30   C35   A    
C9    H18   S    
C11   H20   S    
C36   O10   D    
Cu2   N1    S    
C5    C6    A    
C2    C41   A    
Cu2   O9    S    
C1    O1    A    
C18   C19   A    
C29   N2    A    
C8    C9    A    
C1    C15   S    
C6    H8    S    
C9    C10   A    
C41   H9    S    
C20   H2    S    
Cu2   O7    S    
C6    C31   A    
C13   C14   A    
Cu1   O1    S    
C10   H19   S    
C29   H7    S    
C7    C31   A    
C13   C19   A    
C16   O6    A    
C26   N1    A    
C24   C25   A    
C25   C26   A    
C7    H4    S    
C37   C38   A    
C27   H22   S    
C17   C18   A    
C12   C35   A    
C17   H16   S    
C40   C41   A    
Cu2   O3    S    
Cu1   N2    S    
C16   O7    A    
C2    C5    A    
Cu1   Cu2   S    
C12   C34   A    
C28   O9    A    
C32   H10   S    
C4    O5    A    
C36   O2    S    
C21   H3    S    
C33   H11   S    
C15   C17   A    
Cu1   O6    S    
C8    C14   A    
C40   H14   S    
C30   C33   A    
C35   H13   S    
C5    H12   S    
C28   C31   S    
C23   C32   A    
H15   O2    S    
C39   H1    S    
C3    C7    A    
C1    O3    A    
C32   C33   A    
C36   C38   S    
C2    C3    A    
C27   N1    A    
C8    H17   S    
C11   C13   A    
C18   H21   S    
C38   C39   A    
C20   C26   A    
C16   C19   S    
C23   C39   A    
C24   H6    S    
Cu1   O4    S    
C22   C24   A    
C10   C11   A    
C20   C21   A    
C3    C37   A    
C14   C15   A    
C34   C40   A    
C21   C22   A    
C28   O8    A    
C4    O4    A    
C4    C30   S    
