data_mof_unit_5171.cif
_audit_creation_date              2012-12-10T17:58:18-0500
_audit_creation_method            fapswitch 2.2
_symmetry_space_group_name_H-M    P1
_symmetry_Int_Tables_number       1
_space_group_crystal_system       triclinic
_cell_length_a                    9.542714
_cell_length_b                    10.787512
_cell_length_c                    15.335668
_cell_angle_alpha                 89.562662
_cell_angle_beta                  74.305452
_cell_angle_gamma                 89.860672
_cell_volume                      1519.78473117

loop_
_atom_site_label
_atom_site_type_symbol
_atom_type_description
_atom_site_fract_x
_atom_site_fract_y
_atom_site_fract_z
_atom_type_partial_charge
C1    C     C_R   0.999564 0.262428 0.501585 0.884361
C2    C     C_R   0.000454 0.737555 0.498352 0.891613
C3    C     C_R   0.586541 0.507805 0.103285 0.522875
C4    C     C_R   0.451216 0.633120 0.916189 0.515868
C5    C     C_R   0.732548 0.480307 0.059577 0.392454
C6    C     C_R   0.304320 0.658290 0.959886 0.399950
C7    C     C_R   0.890507 0.061350 0.566339 0.300992
C8    C     C_R   0.109380 0.938576 0.433472 0.303835
C9    C     C_R   0.890507 0.933014 0.561229 0.633407
C10   C     C_R   0.109455 0.066919 0.438631 0.625573
C11   C     C_R   0.999976 0.871403 0.496529 -0.446407
C12   C     C_R   0.000003 0.128546 0.503348 -0.442843
C13   C     C_R   0.550208 0.421430 0.555479 0.530512
C14   C     C_R   0.449696 0.578686 0.444641 0.566627
C15   C     C_R   0.401664 0.421505 0.555467 0.579414
C16   C     C_R   0.598039 0.578996 0.444972 0.583592
C17   C     C_R   0.918267 0.498151 0.672902 0.865228
C18   C     C_R   0.081902 0.504834 0.327376 0.854877
C19   C     C_R   0.875047 0.496267 0.772998 -0.246836
C20   C     C_R   0.127770 0.530837 0.229279 -0.248488
C21   C     C_R   0.930280 0.462566 0.917752 0.441870
C22   C     C_R   0.095288 0.639642 0.096120 0.473415
C23   C     C_R   0.975527 0.469536 0.822436 0.510470
C24   C     C_R   0.040237 0.599384 0.186641 0.520936
C25   C     C_R   0.730703 0.520894 0.819199 -0.127882
C26   C     C_R   0.269949 0.502458 0.181589 -0.123577
C27   C     C_R   0.684802 0.527983 0.914196 -0.025146
C28   C     C_R   0.334379 0.553695 0.095602 -0.024678
C29   C     C_R   0.783183 0.489854 0.964307 -0.104557
C30   C     C_R   0.243827 0.617097 0.049881 -0.111778
C31   C     C_R   0.540250 0.564964 0.959943 -0.114096
C32   C     C_R   0.486045 0.539574 0.053552 -0.115397
Cu1   Cu    Cu3+1 0.140660 0.500020 0.500000 1.139930
Cu2   Cu    Cu3+1 0.859340 0.499980 0.500000 1.134650
H1    H     H_    0.328898 0.438857 0.213296 0.245903
H2    H     H_    0.653237 0.529880 0.779737 0.258306
N1    N     N_R   0.352080 0.500030 0.499980 -0.358327
N2    N     N_R   0.647920 0.499970 0.500020 -0.355691
O1    O     O_R   0.118740 0.319660 0.500000 -0.498228
O2    O     O_R   0.881260 0.680340 0.500000 -0.491509
O3    O     O_R   0.881170 0.319630 0.500010 -0.551031
O4    O     O_R   0.118830 0.680370 0.499990 -0.553025
O5    O     O_R   0.055570 0.500030 0.629830 -0.495571
O6    O     O_R   0.944430 0.499970 0.370170 -0.505956
O7    O     O_R   0.818000 0.500000 0.629840 -0.554663
O8    O     O_R   0.182000 0.500000 0.370160 -0.541137
O9    O     O_3   0.826628 0.442276 0.109139 -0.637008
H3    H     H_    0.772728 0.428078 0.173301 0.391822
O10   O     O_3   0.218682 0.723666 0.915597 -0.610511
H4    H     H_    0.271408 0.736282 0.851058 0.390220
F1    F     F_    0.902859 0.630587 0.233704 -0.585206
F2    F     F_    0.116452 0.445002 0.778137 -0.604208
O11   O     O_3   0.027826 0.429429 0.966225 -0.643546
H5    H     H_    0.125689 0.415189 0.924716 0.371036
O12   O     O_3   0.007193 0.703904 0.053002 -0.616017
H6    H     H_    0.906670 0.709087 0.092900 0.383981
F3    F     F_    0.549299 0.518373 0.194942 -0.628098
F4    F     F_    0.510426 0.690001 0.835259 -0.631753
O13   O     O_3   0.784775 0.116270 0.635013 -0.565179
H7    H     H_    0.816500 0.200570 0.646040 0.346872
O14   O     O_3   0.214923 0.883619 0.364701 -0.568669
H8    H     H_    0.183047 0.799363 0.353669 0.348571
F5    F     F_    0.787049 0.867790 0.622754 -0.559631
F6    F     F_    0.212940 0.132138 0.377131 -0.585475
F7    F     F_    0.595214 0.342521 0.611536 -0.565067
F8    F     F_    0.404616 0.657808 0.388741 -0.536287
F9    F     F_    0.308034 0.342341 0.611117 -0.526934
F10   F     F_    0.690877 0.659742 0.390565 -0.508745

loop_
_geom_bond_atom_site_label_1
_geom_bond_atom_site_label_2
_ccdc_geom_bond_type
C19   C23   A    
O12   H6    S    
C17   O5    A    
Cu2   O3    S    
C22   O12   S    
C16   F10   S    
C18   O6    A    
C27   C29   A    
C5    O9    S    
C26   C28   A    
C31   C32   A    
C8    O14   S    
C18   O8    A    
C15   F9    S    
C10   F6    S    
C3    C5    A    
C24   F1    S    
C21   C23   A    
Cu1   Cu2   S    
C14   F8    S    
O13   H7    S    
Cu2   O7    S    
C13   F7    S    
O11   H5    S    
C14   N1    A    
C21   O11   S    
Cu1   O8    S    
C9    C11   A    
C23   F2    S    
C3    C32   A    
C1    C12   S    
C20   C26   A    
C2    O4    A    
C8    C11   A    
Cu2   O2    S    
Cu1   O4    S    
C10   C12   A    
C22   C24   A    
C1    O3    A    
C17   C19   S    
C13   N2    A    
C5    C29   A    
C13   C15   A    
C6    O10   S    
C7    O13   S    
O14   H8    S    
C19   C25   A    
C17   O7    A    
C14   C16   A    
C7    C12   A    
C4    C31   A    
C25   C27   A    
C1    O1    A    
C25   H2    S    
C27   C31   A    
Cu1   O5    S    
C2    O2    A    
C26   H1    S    
C28   C32   A    
Cu2   O6    S    
C18   C20   S    
C4    C6    A    
O10   H4    S    
C4    F4    S    
C7    C9    A    
C20   C24   A    
C15   N1    A    
C2    C11   S    
C22   C30   A    
C6    C30   A    
C9    F5    S    
C21   C29   A    
Cu1   O1    S    
C8    C10   A    
Cu1   N1    S    
O9    H3    S    
C16   N2    A    
C28   C30   A    
C3    F3    S    
Cu2   N2    S    
