data_mof_unit_57252.cif
_audit_creation_date              2012-12-11T15:19:53-0500
_audit_creation_method            fapswitch 2.2
_symmetry_space_group_name_H-M    P1
_symmetry_Int_Tables_number       1
_space_group_crystal_system       triclinic
_cell_length_a                    16.64781
_cell_length_b                    16.658831
_cell_length_c                    43.092076
_cell_angle_alpha                 89.999205
_cell_angle_beta                  89.945208
_cell_angle_gamma                 120.02236
_cell_volume                      10347.4066311

loop_
_atom_site_label
_atom_site_type_symbol
_atom_type_description
_atom_site_fract_x
_atom_site_fract_y
_atom_site_fract_z
_atom_type_partial_charge
C1    C     C_R   0.583741 0.426149 0.794614 0.547630
C2    C     C_R   0.426027 0.584150 0.205275 0.548379
C3    C     C_R   0.104296 0.559913 0.438575 0.425197
C4    C     C_R   0.579292 0.045043 0.068736 0.424640
C5    C     C_R   0.500411 0.441922 0.430247 0.424898
C6    C     C_R   0.589014 0.116756 0.559629 0.427411
C7    C     C_R   0.887645 0.449625 0.939760 0.433050
C8    C     C_R   0.527798 0.411141 0.559658 0.427404
C9    C     C_R   0.612079 0.098943 0.939041 0.426198
C10   C     C_R   0.046751 0.532239 0.567904 0.423140
C11   C     C_R   0.420630 0.465577 0.931267 0.424644
C12   C     C_R   0.112304 0.561780 0.060248 0.433042
C13   C     C_R   0.416179 0.842346 0.294609 0.548548
C14   C     C_R   0.455396 0.895395 0.438699 0.425205
C15   C     C_R   0.530044 0.484341 0.068089 0.421345
C16   C     C_R   0.940994 0.499453 0.430295 0.424907
C17   C     C_R   0.435612 0.902107 0.061425 0.423004
C18   C     C_R   0.439916 0.544575 0.438705 0.425175
C19   C     C_R   0.485681 0.953620 0.567976 0.423099
C20   C     C_R   0.052652 0.532172 0.931064 0.423797
C21   C     C_R   0.468135 0.514556 0.567983 0.423115
C22   C     C_R   0.470133 0.954208 0.931903 0.421360
C23   C     C_R   0.883513 0.472578 0.559757 0.427470
C24   C     C_R   0.157805 0.573829 0.205395 0.548625
C25   C     C_R   0.564601 0.466901 0.938565 0.423056
C26   C     C_R   0.098672 0.553402 0.027987 0.031151
C27   C     C_R   0.462644 0.908684 0.470980 0.033978
C28   C     C_R   0.538880 0.478455 0.035845 0.034858
C29   C     C_R   0.925320 0.492886 0.462537 0.034868
C30   C     C_R   0.443677 0.913801 0.029085 0.033698
C31   C     C_R   0.446028 0.537396 0.470987 0.033961
C32   C     C_R   0.477905 0.937759 0.535781 0.036131
C33   C     C_R   0.068861 0.538655 0.963229 0.035762
C34   C     C_R   0.459990 0.522276 0.535789 0.036152
C35   C     C_R   0.037843 0.458436 0.130742 -0.051203
C36   C     C_R   0.461320 0.939452 0.964147 0.034836
C37   C     C_R   0.896686 0.479806 0.527433 0.033319
C38   C     C_R   0.556543 0.470523 0.970905 0.033725
C39   C     C_R   0.007439 0.507967 0.016230 -0.030407
C40   C     C_R   0.518962 0.998799 0.482886 -0.032719
C41   C     C_R   0.470308 0.476114 0.016032 -0.032489
C42   C     C_R   0.001100 0.520267 0.482882 -0.032742
C43   C     C_R   0.521125 0.992766 0.016533 -0.032666
C44   C     C_R   0.479796 0.481075 0.482905 -0.032705
C45   C     C_R   0.526722 0.013337 0.515377 -0.032381
C46   C     C_R   0.422663 0.960461 0.370096 -0.057874
C47   C     C_R   0.992506 0.500506 0.983778 -0.030403
C48   C     C_R   0.486646 0.473385 0.515396 -0.032359
C49   C     C_R   0.529759 0.005805 0.983966 -0.032500
C50   C     C_R   0.986735 0.513555 0.515386 -0.032415
C51   C     C_R   0.478948 0.471737 0.983464 -0.032657
C52   C     C_R   0.840550 0.423184 0.024697 -0.141308
C53   C     C_R   0.623145 0.163846 0.474706 -0.132032
C54   C     C_R   0.325332 0.475650 0.008591 -0.127762
C55   C     C_R   0.165940 0.580491 0.491361 -0.126553
C56   C     C_R   0.666193 0.137569 0.023492 -0.127204
C57   C     C_R   0.377833 0.445809 0.131257 -0.054251
C58   C     C_R   0.540525 0.376814 0.474748 -0.132035
C59   C     C_R   0.631112 0.178065 0.506705 -0.134492
C60   C     C_R   0.825900 0.415465 0.992749 -0.149299
C61   C     C_R   0.546840 0.368910 0.506747 -0.134685
C62   C     C_R   0.674458 0.150588 0.991420 -0.127707
C63   C     C_R   0.151852 0.573866 0.523341 -0.127219
C64   C     C_R   0.333596 0.470909 0.976518 -0.127250
C65   C     C_R   0.174041 0.589208 0.007260 -0.149222
C66   C     C_R   0.414594 0.834066 0.491570 -0.126570
C67   C     C_R   0.615436 0.476394 0.022957 -0.125735
C68   C     C_R   0.039117 0.462096 0.370080 -0.057896
C69   C     C_R   0.835948 0.459546 0.474906 -0.132244
C70   C     C_R   0.375983 0.848386 0.009064 -0.126045
C71   C     C_R   0.419567 0.585523 0.491565 -0.126654
C72   C     C_R   0.422161 0.848325 0.523535 -0.127040
C73   C     C_R   0.159391 0.582288 0.975312 -0.141269
C74   C     C_R   0.426332 0.578026 0.523531 -0.127040
C75   C     C_R   0.384917 0.860679 0.977028 -0.125687
C76   C     C_R   0.821900 0.453354 0.506919 -0.134447
C77   C     C_R   0.624383 0.473083 0.990919 -0.126099
C78   C     C_R   0.420394 0.956441 0.129308 -0.056822
C79   C     C_R   0.537749 0.577033 0.370043 -0.057887
C80   C     C_R   0.467871 0.050947 0.628041 -0.054376
C81   C     C_R   0.841838 0.415898 0.705269 0.548141
C82   C     C_R   0.962064 0.420529 0.869273 -0.051204
C83   C     C_R   0.583350 0.532211 0.628000 -0.054302
C84   C     C_R   0.474727 0.062722 0.873738 -0.058124
C85   C     C_R   0.949187 0.416978 0.627998 -0.054408
C86   C     C_R   0.579547 0.536129 0.870665 -0.056769
C87   C     C_R   0.066304 0.469871 0.161649 -0.135388
C88   C     C_R   0.401540 0.929538 0.339487 -0.136871
C89   C     C_R   0.371121 0.468166 0.162041 -0.138291
C90   C     C_R   0.070186 0.471917 0.339473 -0.136818
C91   C     C_R   0.399397 0.926239 0.159981 -0.137328
C92   C     C_R   0.573974 0.158122 0.794725 0.548707
C93   C     C_R   0.527984 0.598173 0.339431 -0.136737
C94   C     C_R   0.475394 0.077770 0.659075 -0.138470
C95   C     C_R   0.933620 0.403507 0.838365 -0.135383
C96   C     C_R   0.602625 0.524643 0.659031 -0.138593
C97   C     C_R   0.480894 0.090984 0.842958 -0.138751
C98   C     C_R   0.922241 0.397576 0.659031 -0.138606
C99   C     C_R   0.600531 0.526893 0.839994 -0.137300
C100  C     C_R   0.119907 0.634391 0.157955 -0.135292
C101  C     C_R   0.523781 0.890590 0.340039 -0.135099
C102  C     C_R   0.519082 0.610144 0.157036 -0.138733
C103  C     C_R   0.584135 0.425915 0.705262 0.548345
C104  C     C_R   0.108857 0.632972 0.339983 -0.135046
C105  C     C_R   0.526268 0.894070 0.160397 -0.141872
C106  C     C_R   0.366563 0.476312 0.340110 -0.135290
C107  C     C_R   0.635865 0.114224 0.659421 -0.137255
C108  C     C_R   0.880134 0.514518 0.842039 -0.135318
C109  C     C_R   0.478309 0.364373 0.659482 -0.137043
C110  C     C_R   0.628928 0.097114 0.837965 -0.138290
C111  C     C_R   0.886543 0.522007 0.659530 -0.136947
C112  C     C_R   0.473801 0.367781 0.839620 -0.141890
C113  C     C_R   0.091828 0.622812 0.126995 -0.051410
C114  C     C_R   0.842192 0.416022 0.794606 0.548969
C115  C     C_R   0.544478 0.921256 0.370681 -0.054001
C116  C     C_R   0.525256 0.588057 0.126256 -0.058100
C117  C     C_R   0.078033 0.622977 0.370623 -0.054056
C118  C     C_R   0.547145 0.924410 0.129685 -0.059708
C119  C     C_R   0.376495 0.455605 0.370758 -0.053988
C120  C     C_R   0.628220 0.087688 0.628363 -0.055663
C121  C     C_R   0.908200 0.531018 0.873000 -0.051371
C122  C     C_R   0.459442 0.372063 0.628429 -0.055642
C123  C     C_R   0.622229 0.068060 0.868750 -0.054259
C124  C     C_R   0.913206 0.541002 0.628476 -0.055664
C125  C     C_R   0.574110 0.158218 0.705261 0.548467
C126  C     C_R   0.452941 0.377272 0.870331 -0.059675
C127  C     C_R   0.053061 0.535283 0.113067 0.241429
C128  C     C_R   0.492435 0.954030 0.386021 0.245888
C129  C     C_R   0.453786 0.506867 0.112942 0.238699
C130  C     C_R   0.045365 0.538237 0.385983 0.245909
C131  C     C_R   0.492489 0.952980 0.113743 0.244110
C132  C     C_R   0.461415 0.507453 0.386036 0.245855
C133  C     C_R   0.544945 0.058217 0.612340 0.243735
C134  C     C_R   0.946898 0.482206 0.886940 0.241397
C135  C     C_R   0.513407 0.455255 0.612354 0.243780
C136  C     C_R   0.426144 0.583794 0.294610 0.548669
C137  C     C_R   0.546241 0.053089 0.887058 0.238744
C138  C     C_R   0.942320 0.487025 0.612377 0.243784
C139  C     C_R   0.507536 0.460552 0.886252 0.244068
C140  C     C_R   0.889702 0.448197 0.824733 0.011051
C141  C     C_R   0.560315 0.112254 0.674835 0.012056
C142  C     C_R   0.549887 0.441590 0.824488 0.012209
C143  C     C_R   0.888028 0.448151 0.674859 0.012222
C144  C     C_R   0.559354 0.111114 0.824998 0.012150
C145  C     C_R   0.552023 0.439793 0.674841 0.012068
C146  C     C_R   0.450004 0.891563 0.324460 0.012320
C147  C     C_R   0.416258 0.842407 0.205386 0.547286
C148  C     C_R   0.110287 0.558495 0.175270 0.011132
C149  C     C_R   0.441456 0.549912 0.324465 0.012291
C150  C     C_R   0.450109 0.891695 0.175509 0.012278
C151  C     C_R   0.108140 0.558320 0.324434 0.012492
C152  C     C_R   0.440654 0.551773 0.175002 0.012216
C153  C     C_R   0.931085 0.469919 0.036779 0.035756
C154  C     C_R   0.567182 0.074439 0.462446 0.034852
C155  C     C_R   0.393558 0.478865 0.028630 0.033960
C156  C     C_R   0.091182 0.553954 0.470867 0.034040
C157  C     C_R   0.589561 0.058999 0.036408 0.033981
C158  C     C_R   0.157591 0.573802 0.294601 0.548341
C159  C     C_R   0.507115 0.432783 0.462475 0.034887
C160  C     C_R   0.582954 0.103416 0.527316 0.033248
C161  C     C_R   0.901274 0.454874 0.972021 0.031144
C162  C     C_R   0.520458 0.417144 0.527346 0.033179
C163  C     C_R   0.606368 0.085449 0.971375 0.033945
C164  C     C_R   0.062451 0.540275 0.535695 0.036168
C165  C     C_R   0.410368 0.469256 0.963596 0.033989
C166  C     C_R   0.947298 0.479635 0.068944 0.423801
C167  C     C_R   0.557982 0.058595 0.430219 0.424866
C168  C     C_R   0.387841 0.486638 0.060964 0.426259
Cr1   Cr    Cr6+3 0.530290 0.262330 0.750000 1.022542
Cr2   Cr    Cr6+3 0.732040 0.469710 0.750000 1.022536
Cr3   Cr    Cr6+3 0.737670 0.267960 0.750000 1.022396
Cr4   Cr    Cr6+3 0.262330 0.530290 0.250000 1.022727
Cr5   Cr    Cr6+3 0.469710 0.732040 0.250000 1.022858
Cr6   Cr    Cr6+3 0.267960 0.737670 0.250000 1.022860
H1    H     H_    0.219280 0.611317 0.960100 0.167528
H2    H     H_    0.315461 0.787754 0.018162 0.166674
H3    H     H_    0.776506 0.438074 0.459869 0.165277
H4    H     H_    0.669328 0.478456 0.037590 0.168112
H5    H     H_    0.846063 0.549630 0.832282 0.136282
H6    H     H_    0.702353 0.140779 0.670811 0.133508
H7    H     H_    0.433561 0.301128 0.828375 0.130896
H8    H     H_    0.860237 0.562074 0.670979 0.133721
H9    H     H_    0.690248 0.112100 0.824747 0.131549
H10   H     H_    0.438240 0.297945 0.670911 0.133746
H11   H     H_    0.562199 0.861450 0.329204 0.134312
H12   H     H_    0.383885 0.789027 0.538628 0.161943
H13   H     H_    0.154031 0.703585 0.167703 0.136262
H14   H     H_    0.298933 0.438062 0.329323 0.134097
H15   H     H_    0.566563 0.867747 0.171659 0.130867
H16   H     H_    0.137953 0.700493 0.329132 0.134257
H17   H     H_    0.573573 0.675315 0.166201 0.134186
H18   H     H_    0.755200 0.378369 0.984314 0.162915
H19   H     H_    0.675006 0.247858 0.515274 0.161683
H20   H     H_    0.279819 0.468995 0.961862 0.168570
H21   H     H_    0.211248 0.594855 0.538360 0.161640
H22   H     H_    0.734326 0.212055 0.982351 0.167794
H23   H     H_    0.685027 0.473230 0.981815 0.166693
H24   H     H_    0.572700 0.325001 0.515326 0.161699
H25   H     H_    0.660985 0.223187 0.459596 0.165525
H26   H     H_    0.780660 0.392445 0.039908 0.167547
H27   H     H_    0.561946 0.338917 0.459646 0.165477
H28   H     H_    0.719858 0.189537 0.038154 0.168578
H29   H     H_    0.235591 0.606082 0.482695 0.155084
H30   H     H_    0.265355 0.477028 0.017665 0.167781
H31   H     H_    0.896245 0.578778 0.886567 0.137125
H32   H     H_    0.688054 0.093316 0.616394 0.129544
H33   H     H_    0.397566 0.318323 0.882280 0.129340
H34   H     H_    0.752131 0.427528 0.515577 0.162191
H35   H     H_    0.907892 0.595390 0.616561 0.129468
H36   H     H_    0.677635 0.060236 0.878693 0.137642
H37   H     H_    0.405128 0.312324 0.616502 0.129564
H38   H     H_    0.598025 0.915463 0.382994 0.126959
H39   H     H_    0.103826 0.682530 0.113420 0.137031
H40   H     H_    0.317056 0.402208 0.383123 0.126959
H41   H     H_    0.602585 0.920916 0.117751 0.129256
H42   H     H_    0.083694 0.682269 0.382926 0.126880
H43   H     H_    0.584031 0.636094 0.112341 0.137450
H44   H     H_    0.057868 0.410108 0.174401 0.136335
H45   H     H_    0.331135 0.808746 0.962390 0.168120
H46   H     H_    0.344377 0.931233 0.328155 0.134266
H47   H     H_    0.309824 0.421801 0.175264 0.131528
H48   H     H_    0.068668 0.413132 0.328159 0.134240
H49   H     H_    0.340468 0.925501 0.170939 0.133483
H50   H     H_    0.586950 0.655193 0.328045 0.134573
H51   H     H_    0.416031 0.075598 0.670238 0.134075
H52   H     H_    0.942017 0.352144 0.825620 0.136398
H53   H     H_    0.659922 0.583905 0.670150 0.133786
H54   H     H_    0.426372 0.101606 0.833788 0.134192
H55   H     H_    0.924053 0.340186 0.670131 0.133757
H56   H     H_    0.405392 0.616359 0.538615 0.161920
H57   H     H_    0.659399 0.585106 0.829019 0.133538
H58   H     H_    0.008122 0.390637 0.120086 0.137580
H59   H     H_    0.381762 0.985115 0.381952 0.127505
H60   H     H_    0.322462 0.382543 0.121321 0.137741
H61   H     H_    0.014556 0.396611 0.381958 0.127432
H62   H     H_    0.377713 0.978263 0.117107 0.128992
H63   H     H_    0.603385 0.617783 0.381850 0.127607
H64   H     H_    0.403302 0.028406 0.615785 0.133364
H65   H     H_    0.991733 0.382412 0.879937 0.137623
H66   H     H_    0.625501 0.596715 0.615705 0.133309
H67   H     H_    0.370591 0.764389 0.482993 0.154457
H68   H     H_    0.415923 0.051919 0.887650 0.137362
H69   H     H_    0.971450 0.374821 0.615677 0.133219
H70   H     H_    0.622179 0.600677 0.882849 0.129087
H71   H     H_    0.244736 0.622679 0.015695 0.162898
H72   H     H_    0.393923 0.629532 0.482979 0.154468
N1    N     N_R   0.037011 0.525861 0.080161 -0.394892
N2    N     N_R   0.543948 0.033985 0.919798 -0.390002
N3    N     N_R   0.958139 0.498515 0.579443 -0.393869
N4    N     N_R   0.497289 0.464895 0.919265 -0.391619
N5    N     N_R   0.502679 0.969951 0.418902 -0.395514
N6    N     N_R   0.456094 0.490048 0.080202 -0.389966
N7    N     N_R   0.029604 0.532671 0.418875 -0.395586
N8    N     N_R   0.502770 0.967553 0.080731 -0.391641
N9    N     N_R   0.467100 0.497229 0.418919 -0.395513
N10   N     N_R   0.540502 0.042262 0.579412 -0.393778
N11   N     N_R   0.962943 0.488847 0.919846 -0.394879
N12   N     N_R   0.501905 0.459713 0.579430 -0.393772
O1    O     O_R   0.509640 0.171340 0.784000 -0.514413
O2    O     O_R   0.171340 0.509640 0.216000 -0.512463
O3    O     O_R   0.490360 0.661700 0.284000 -0.513810
O4    O     O_R   0.338300 0.828660 0.216000 -0.515306
O5    O     O_R   0.539230 0.345420 0.781810 -0.497949
O6    O     O_R   0.806190 0.460770 0.718190 -0.497881
O7    O     O_R   0.654580 0.193810 0.781810 -0.496251
O8    O     O_R   0.539230 0.345420 0.718190 -0.498057
O9    O     O_R   0.806190 0.460770 0.781810 -0.497782
O10   O     O_R   0.654580 0.193810 0.718190 -0.498562
O11   O     O_R   0.345420 0.539230 0.281810 -0.498001
O12   O     O_R   0.661700 0.490360 0.716000 -0.514462
O13   O     O_R   0.460770 0.806190 0.218190 -0.498150
O14   O     O_R   0.193810 0.654580 0.281810 -0.497307
O15   O     O_R   0.345420 0.539230 0.218190 -0.496432
O16   O     O_R   0.460770 0.806190 0.281810 -0.497491
O17   O     O_R   0.193810 0.654580 0.218190 -0.497994
O18   O     O_3   0.666667 0.333333 0.750000 -0.233213
O19   O     O_3   0.333333 0.666667 0.250000 -0.232778
O20   O     O_2   0.881856 0.447650 0.087015 -0.494620
O21   O     O_2   0.599007 0.123340 0.412203 -0.494839
O22   O     O_2   0.323157 0.492287 0.072000 -0.486933
O23   O     O_R   0.828660 0.338300 0.784000 -0.512181
O24   O     O_2   0.182102 0.589026 0.427866 -0.464060
O25   O     O_2   0.637880 0.101880 0.086242 -0.502208
O26   O     O_2   0.524053 0.400841 0.412241 -0.494799
O27   O     O_2   0.636555 0.194761 0.570239 -0.465891
O28   O     O_2   0.808830 0.409824 0.929280 -0.454762
O29   O     O_2   0.558227 0.363587 0.570277 -0.465788
O30   O     O_2   0.676648 0.169375 0.928009 -0.486897
O31   O     O_2   0.111742 0.555346 0.585748 -0.498470
O32   O     O_2   0.361910 0.463577 0.913767 -0.502236
O33   O     O_2   0.191118 0.600657 0.070728 -0.454748
O34   O     O_R   0.509640 0.171340 0.716000 -0.513923
O35   O     O_2   0.406767 0.817557 0.428088 -0.464129
O36   O     O_2   0.588252 0.484730 0.085469 -0.503880
O37   O     O_2   0.876136 0.475767 0.412357 -0.494770
O38   O     O_2   0.369139 0.833313 0.072512 -0.485370
O39   O     O_2   0.410731 0.593205 0.428084 -0.464171
O40   O     O_2   0.443958 0.888736 0.585897 -0.498525
O41   O     O_2   0.118097 0.565499 0.912993 -0.494642
O42   O     O_2   0.445063 0.556342 0.585895 -0.498543
O43   O     O_2   0.412027 0.896309 0.914518 -0.503824
O44   O     O_2   0.805537 0.442202 0.570465 -0.465722
O45   O     O_R   0.661700 0.490360 0.784000 -0.514996
O46   O     O_2   0.631201 0.464833 0.927472 -0.485416
O47   O     O_R   0.828660 0.338300 0.716000 -0.515039
O48   O     O_R   0.171340 0.509640 0.284000 -0.514955
O49   O     O_R   0.490360 0.661700 0.216000 -0.514727
O50   O     O_R   0.338300 0.828660 0.284000 -0.514343

loop_
_geom_bond_atom_site_label_1
_geom_bond_atom_site_label_2
_ccdc_geom_bond_type
C29   C42   A    
C21   O42   D    
C32   C45   A    
C62   H22   S    
C138  N3    S    
Cr4   O15   S    
C12   O33   D    
C96   C145  A    
Cr1   O8    S    
C115  H38   S    
Cr2   O45   S    
C153  C166  A    
C48   C162  A    
C124  H35   S    
C4    O25   D    
C120  C133  A    
C118  C131  A    
C1    O5    A    
C66   C72   A    
Cr2   O12   S    
C68   C90   A    
C118  H41   S    
C58   C61   A    
C136  O3    A    
C17   C30   A    
C45   C160  A    
C19   C32   A    
C57   H60   S    
C29   C69   A    
C2    C152  S    
C17   N8    Am   
C2    O49   A    
C16   O37   D    
C50   C164  A    
C151  C158  S    
C105  H15   S    
C147  C150  S    
Cr1   O34   S    
C137  N2    S    
C14   N5    Am   
C23   C37   A    
C111  H8    S    
C80   C133  A    
C82   C134  A    
C42   C156  A    
C3    N7    Am   
C64   C165  A    
C110  C123  A    
Cr6   O4    S    
C59   C160  A    
C6    C160  A    
C62   C163  A    
C75   H45   S    
C126  H33   S    
C55   H29   S    
C22   O43   D    
C102  H17   S    
C35   C127  A    
C86   C99   A    
C20   C33   A    
C109  H10   S    
C33   C73   A    
C110  H9    S    
C101  C115  A    
C56   C62   A    
C30   C43   A    
C7    N11   Am   
C34   C48   A    
C167  O21   D    
C107  C120  A    
C168  O22   D    
C39   C47   A    
C104  C117  A    
C135  N12   S    
Cr2   O9    S    
C109  C145  A    
C99   H57   S    
C12   N1    Am   
C22   C36   A    
C24   O2    A    
C27   C66   A    
C8    C162  A    
C22   N2    Am   
C37   C50   A    
C3    C156  A    
Cr3   O7    S    
C8    N12   Am   
C97   H54   S    
C78   H62   S    
C18   O39   D    
C7    O28   D    
C44   C159  A    
C18   C31   A    
C70   H2    S    
C85   C138  A    
C41   C51   A    
C44   C48   A    
C13   O50   A    
C67   C77   A    
C4    N8    Am   
C81   O47   A    
C59   H19   S    
C7    C161  A    
C68   H61   S    
C58   C159  A    
C89   H47   S    
Cr1   O5    S    
C69   C76   A    
Cr2   O6    S    
C35   H58   S    
C9    N2    Am   
C1    C142  S    
C52   C60   A    
C94   H51   S    
C35   C87   A    
C11   O32   D    
C125  C141  S    
C55   C63   A    
C52   H26   S    
C114  C140  S    
C107  C141  A    
Cr4   O19   S    
C111  C143  A    
C20   N11   Am   
C31   C71   A    
C14   O35   D    
Cr1   O18   S    
C101  H11   S    
C119  C132  A    
C126  C139  A    
C128  N5    S    
C61   C162  A    
C53   H25   S    
C6    O27   D    
Cr5   O13   S    
Cr6   O14   S    
C38   C51   A    
C52   C153  A    
C115  C128  A    
C108  H5    S    
C12   C26   A    
C97   C144  A    
C56   C157  A    
C36   C75   A    
C25   C38   A    
C4    C157  A    
C27   C40   A    
C60   H18   S    
C82   H65   S    
C158  O48   A    
C68   C130  A    
C86   C139  A    
C42   C50   A    
C84   C137  A    
C14   C27   A    
C51   C165  A    
C92   O1    A    
C103  C145  S    
C11   C165  A    
C83   H66   S    
C82   C95   A    
C43   C157  A    
C67   H4    S    
C112  H7    S    
C66   H67   S    
C123  C137  A    
C5    N9    Am   
C54   C64   A    
C83   C96   A    
C49   C163  A    
Cr5   O16   S    
C76   H34   S    
Cr6   O19   S    
C119  H40   S    
C70   C75   A    
C102  C152  A    
C41   C155  A    
C15   O36   D    
C106  C119  A    
C5    O26   D    
C93   C149  A    
C121  H31   S    
C108  C121  A    
C136  C149  S    
C32   C72   A    
C105  C150  A    
C25   O46   D    
C57   C89   A    
C39   C153  A    
C84   C97   A    
C124  C138  A    
C98   C143  A    
C26   C39   A    
C15   N6    Am   
C123  H36   S    
C28   C41   A    
C20   O41   D    
C158  O14   A    
C87   H44   S    
C9    C163  A    
C147  O13   A    
C91   C150  A    
C69   H3    S    
C3    O24   D    
C136  O11   A    
C121  C134  A    
C112  C126  A    
C26   C65   A    
C40   C45   A    
C30   C70   A    
Cr5   O19   S    
C63   C164  A    
C168  N6    Am   
C11   N4    Am   
Cr5   O49   S    
Cr6   O50   S    
C100  H13   S    
C87   C148  A    
C54   C155  A    
C21   C34   A    
C154  C167  A    
C88   H46   S    
C103  O12   A    
C25   N4    Am   
C114  O23   A    
Cr6   O17   S    
C155  C168  A    
C6    N10   Am   
Cr3   O10   S    
C110  C144  A    
C72   H12   S    
C13   O16   A    
C34   C74   A    
C92   O7    A    
C37   C76   A    
C63   H21   S    
C139  N4    S    
C127  N1    S    
C91   H49   S    
C46   C128  A    
C65   H71   S    
C90   C151  A    
C61   H24   S    
C71   C74   A    
C79   C93   A    
C38   C77   A    
C18   N9    Am   
C19   O40   D    
C23   N3    Am   
C23   O44   D    
C114  O9    A    
C2    O15   A    
C15   C28   A    
C134  N11   S    
C54   H30   S    
C93   H50   S    
C109  C122  A    
C122  C135  A    
C47   C161  A    
C130  N7    S    
C19   N10   Am   
C122  H37   S    
C71   H72   S    
C116  H43   S    
C77   H23   S    
C36   C49   A    
C73   H1    S    
C17   O38   D    
C107  H6    S    
C99   C142  A    
C113  H39   S    
C74   H56   S    
Cr2   O18   S    
C53   C59   A    
C131  N8    S    
C167  N5    Am   
C95   C140  A    
C166  N1    Am   
C104  C151  A    
C57   C129  A    
C90   H48   S    
C21   N12   Am   
C56   H28   S    
C112  C142  A    
C85   H69   S    
C65   C73   A    
C16   N7    Am   
C103  O8    A    
C80   H64   S    
C85   C98   A    
C132  N9    S    
C8    O29   D    
C116  C129  A    
C58   H27   S    
C5    C159  A    
Cr3   O18   S    
Cr4   O2    S    
Cr5   O3    S    
C129  N6    S    
C53   C154  A    
C106  C149  A    
C40   C154  A    
C13   C146  S    
C133  N10   S    
C10   O31   D    
C46   C88   A    
C89   C152  A    
C55   C156  A    
C101  C146  A    
C31   C44   A    
C46   H59   S    
C28   C67   A    
C24   C148  S    
C108  C140  A    
C43   C49   A    
C16   C29   A    
C64   H20   S    
C117  H42   S    
C78   C131  A    
C98   H55   S    
C104  H16   S    
C60   C161  A    
C147  O4    A    
C117  C130  A    
C105  C118  A    
C125  O10   A    
C79   H63   S    
Cr3   O47   S    
C10   C164  A    
C9    O30   D    
C94   C141  A    
C83   C135  A    
C100  C113  A    
Cr4   O11   S    
C113  C127  A    
C78   C91   A    
C96   H53   S    
C10   N3    Am   
C120  H32   S    
C95   H52   S    
C106  H14   S    
Cr3   O23   S    
C100  C148  A    
C33   C47   A    
C79   C132  A    
C92   C144  S    
C125  O34   A    
C102  C116  A    
C81   C143  S    
C81   O6    A    
C86   H70   S    
Cr4   O48   S    
Cr1   O1    S    
C88   C146  A    
C1    O45   A    
C84   H68   S    
C111  C124  A    
C80   C94   A    
C166  O20   D    
C24   O17   A    
