data_mof_unit_10290.cif
_audit_creation_date              2012-12-11T16:35:25-0500
_audit_creation_method            fapswitch 2.2
_symmetry_space_group_name_H-M    P1
_symmetry_Int_Tables_number       1
_space_group_crystal_system       triclinic
_cell_length_a                    6.927788
_cell_length_b                    17.684494
_cell_length_c                    19.521284
_cell_angle_alpha                 109.136514
_cell_angle_beta                  90.866062
_cell_angle_gamma                 90.148036
_cell_volume                      2259.14730826

loop_
_atom_site_label
_atom_site_type_symbol
_atom_type_description
_atom_site_fract_x
_atom_site_fract_y
_atom_site_fract_z
_atom_type_partial_charge
O1    O     O_R   0.505700 0.440210 0.561730 -0.555058
O2    O     O_R   0.169350 0.406300 0.412660 -0.538153
O3    O     O_R   0.005650 0.559790 0.438270 -0.533651
C1    C     C_R   0.337921 0.382994 0.384947 0.688618
O4    O     O_R   0.175560 0.430650 0.559600 -0.540304
O5    O     O_R   0.011900 0.584320 0.586250 -0.534162
C2    C     C_R   0.346109 0.415587 0.581650 0.682495
O6    O     O_R   0.499450 0.415680 0.413750 -0.536112
O7    O     O_3   0.341370 0.550390 0.508570 -0.365247
V1    V     V_3+5 0.063940 0.490650 0.498410 1.415486
O8    O     O_R   0.682570 0.593700 0.587340 -0.536708
C3    C     C_R   0.853307 0.617060 0.614792 0.693680
O9    O     O_R   0.676370 0.569350 0.440400 -0.559881
C4    C     C_R   0.843199 0.584829 0.418832 0.682827
V2    V     V_3+5 0.564750 0.509350 0.501590 1.405619
O10   O     O_3   0.837190 0.449610 0.491430 -0.374571
C5    C     C_R   0.034438 0.674996 0.281025 -0.109739
H1    H     H_    0.165183 0.669505 0.250135 0.097562
C6    C     C_R   0.017345 0.630733 0.328336 -0.121352
H2    H     H_    0.136826 0.593065 0.332473 0.101786
C7    C     C_R   0.848711 0.633301 0.368568 -0.119128
C8    C     C_R   0.693418 0.682614 0.359534 0.023518
C9    C     C_R   0.715981 0.728142 0.312966 -0.090680
H3    H     H_    0.599885 0.766998 0.307925 0.135091
C10   C     C_R   0.883800 0.724232 0.272616 0.044202
C11   C     C_R   0.734007 0.783052 0.183088 -0.150157
H4    H     H_    0.596576 0.756006 0.187699 0.096578
C12   C     C_R   0.744143 0.829667 0.137644 -0.161759
H5    H     H_    0.614003 0.837882 0.109524 0.122516
C13   C     C_R   0.919776 0.864546 0.128108 -0.053847
C14   C     C_R   0.085670 0.851126 0.164887 -0.169121
H6    H     H_    0.223258 0.877332 0.158934 0.119942
C15   C     C_R   0.075001 0.805282 0.211284 -0.125703
C16   C     C_R   0.898523 0.771024 0.221445 0.096126
C17   C     C_R   0.816823 0.908339 0.750437 -0.141578
C18   C     C_R   0.774467 0.924591 0.686170 -0.064469
C19   C     C_R   0.760248 0.860200 0.620321 -0.058771
C20   C     C_R   0.787848 0.781555 0.620502 -0.112838
C21   C     C_R   0.833108 0.764932 0.684883 0.038489
C22   C     C_R   0.849378 0.829682 0.750984 0.030912
C23   C     C_R   0.870922 0.685575 0.683675 -0.167752
C24   C     C_R   0.938561 0.672338 0.747858 0.047797
C25   C     C_R   0.952802 0.737187 0.814211 0.073153
C26   C     C_R   0.905314 0.815575 0.815944 -0.168299
C27   C     C_R   0.993976 0.595203 0.747402 -0.109471
C28   C     C_R   0.059647 0.582298 0.810469 -0.058851
C29   C     C_R   0.068224 0.645245 0.875579 -0.139275
C30   C     C_R   0.014758 0.721854 0.877826 -0.140658
H7    H     H_    0.830951 0.958542 0.800092 0.155121
H8    H     H_    0.776462 0.733359 0.569233 0.134512
H9    H     H_    0.988930 0.544095 0.698354 0.133949
H10   H     H_    0.103243 0.523010 0.808881 0.160072
H11   H     H_    0.023669 0.768759 0.929894 0.103871
H12   H     H_    0.034331 0.446707 0.182271 0.110835
C31   C     C_R   0.522402 0.235100 0.382451 -0.130020
C32   C     C_R   0.622881 0.167159 0.382970 -0.123017
C33   C     C_R   0.657206 0.106113 0.318391 -0.114461
C34   C     C_R   0.591011 0.112432 0.252769 -0.150476
C35   C     C_R   0.490383 0.181091 0.250266 0.069777
C36   C     C_R   0.455574 0.243980 0.316604 0.074718
C37   C     C_R   0.420665 0.186867 0.183459 -0.178880
C38   C     C_R   0.316603 0.256136 0.183374 0.033855
C39   C     C_R   0.282093 0.318987 0.249685 0.072811
C40   C     C_R   0.352108 0.313300 0.316505 -0.184058
C41   C     C_R   0.248315 0.264691 0.117545 -0.122262
C42   C     C_R   0.145014 0.332458 0.116707 0.036728
C43   C     C_R   0.112537 0.393573 0.181875 -0.222338
C44   C     C_R   0.180884 0.387414 0.247265 -0.148688
H13   H     H_    0.495636 0.279898 0.434394 0.100403
H14   H     H_    0.673003 0.161590 0.433888 0.110639
H15   H     H_    0.734270 0.053197 0.319143 0.125527
H16   H     H_    0.619263 0.062643 0.204330 0.113349
H17   H     H_    0.276565 0.219256 0.066110 0.135081
H18   H     H_    0.152951 0.437140 0.295764 0.112525
C45   C     C_R   0.515625 0.318349 0.722329 -0.148392
H19   H     H_    0.642740 0.315790 0.754393 0.190189
C46   C     C_R   0.523132 0.363160 0.674743 0.001120
C47   C     C_R   0.357632 0.365702 0.631096 -0.138892
C48   C     C_R   0.192325 0.321863 0.637607 -0.208629
H20   H     H_    0.064458 0.322976 0.605311 0.116609
C49   C     C_R   0.185343 0.278066 0.686269 0.026856
C50   C     C_R   0.351450 0.274984 0.728645 0.002960
C51   C     C_R   0.307851 0.144711 0.754560 -0.011552
H21   H     H_    0.248802 0.116866 0.700394 0.096165
C52   C     C_R   0.326278 0.098828 0.800754 -0.089196
H22   H     H_    0.277308 0.037073 0.781988 0.099789
C53   C     C_R   0.411639 0.131749 0.869935 -0.019408
C54   C     C_R   0.474826 0.211571 0.892922 -0.054520
H23   H     H_    0.539397 0.238188 0.946392 0.107459
C55   C     C_R   0.449386 0.258407 0.847908 -0.056922
H24   H     H_    0.495934 0.320425 0.867682 0.112920
C56   C     C_R   0.364993 0.225757 0.778125 0.121787
O11   O     O_R   0.273230 0.084330 0.086440 -0.535921
O12   O     O_R   0.596660 0.069390 0.940470 -0.531311
O13   O     O_R   0.760270 0.915710 0.913690 -0.537456
C57   C     C_R   0.426521 0.083671 0.918819 0.690633
O14   O     O_R   0.603330 0.093680 0.087390 -0.539206
O15   O     O_R   0.766990 0.940160 0.061660 -0.545806
C58   C     C_R   0.434804 0.117071 0.115113 0.682657
O16   O     O_R   0.266510 0.059870 0.938470 -0.530774
O17   O     O_3   0.431050 0.949630 0.991510 -0.375171
V3    V     V_3+5 0.708490 0.009340 0.001580 1.456984
O18   O     O_R   0.096270 0.930570 0.059390 -0.546881
C59   C     C_R   0.928381 0.915044 0.080545 0.672964
O19   O     O_R   0.089600 0.906290 0.912460 -0.540637
C60   C     C_R   0.919366 0.883277 0.885094 0.688624
V4    V     V_3+5 0.207670 0.990600 0.998190 1.441526
O20   O     O_3   0.935250 0.050360 0.008480 -0.355509
C61   C     C_2   0.757115 0.009521 0.688853 0.352148
H25   H     H_    0.736616 0.024905 0.639985 0.027405
O21   O     O_2   0.768580 0.064350 0.746414 -0.506109
C62   C     C_2   0.719790 0.873315 0.550312 0.413604
H26   H     H_    0.631659 0.922877 0.547783 0.033448
O22   O     O_2   0.786423 0.828598 0.494162 -0.508387
C63   C     C_2   0.070395 0.340494 0.048023 0.348818
H27   H     H_    0.994307 0.394277 0.048579 0.047084
O23   O     O_2   0.091770 0.287305 0.990169 -0.522949
C64   C     C_2   0.708033 0.405554 0.673903 0.287535
H28   H     H_    0.760148 0.415607 0.625800 0.088063
O24   O     O_2   0.811561 0.427279 0.728087 -0.546089
C65   C     C_2   0.998145 0.240389 0.692926 0.387607
H29   H     H_    0.892119 0.227528 0.649001 0.019103
O25   O     O_2   0.955686 0.226923 0.748300 -0.498823
C66   C     C_2   0.505249 0.689631 0.396852 0.372134
H30   H     H_    0.438402 0.639336 0.407163 0.068567
O26   O     O_2   0.416599 0.752538 0.414187 -0.511169
H31   H     H_    0.204321 0.798194 0.240351 0.114601
H32   H     H_    0.117226 0.634758 0.924593 0.121680

loop_
_geom_bond_atom_site_label_1
_geom_bond_atom_site_label_2
_ccdc_geom_bond_type
O17   V4    S    
C53   C54   A    
O17   V3    S    
C23   C24   A    
C6    H2    S    
C1    O6    A    
C62   O22   D    
C49   C50   A    
C55   H24   S    
C50   C56   S    
C29   H32   S    
C21   C23   A    
C46   C47   A    
C51   C56   A    
O19   V4    S    
C11   H4    S    
C19   C20   A    
C4    C7    S    
C66   O26   D    
C12   H5    S    
C6    C7    A    
C61   O21   D    
O5    C3    A    
C20   C21   A    
C27   H9    S    
C44   H18   S    
V2    O10   S    
C28   H10   S    
C15   H31   S    
C41   H17   S    
C32   C33   A    
C64   H28   S    
C19   C62   S    
C28   C29   A    
O8    V2    S    
C11   C16   A    
C51   H21   S    
C63   O23   D    
C17   H7    S    
V4    O20   S    
C14   C15   A    
V3    O20   S    
O1    V2    S    
O9    C4    A    
C25   C30   A    
O11   C58   A    
O14   V3    S    
O13   V3    S    
C10   C16   S    
C42   C43   A    
C35   C36   A    
C31   C36   A    
C37   C58   S    
C62   H26   S    
O14   C58   A    
C5    H1    S    
C52   C53   A    
C30   H11   S    
C35   C37   A    
C42   C63   S    
C43   C44   A    
C46   C64   S    
C21   C22   A    
C48   C49   A    
C47   C48   A    
H12   C43   S    
C34   C35   A    
O15   V3    S    
C48   H20   S    
C49   C65   S    
C17   C18   A    
O2    C1    A    
C45   H19   S    
C38   C39   A    
O13   C60   A    
C55   C56   A    
C29   C30   A    
C9    H3    S    
C53   C57   S    
C31   C32   A    
C15   C16   A    
C65   H29   S    
C33   H15   S    
O12   C57   A    
C45   C46   A    
C52   H22   S    
C31   H13   S    
O3    C4    A    
C2    C47   S    
C51   C52   A    
C54   C55   A    
O6    V2    S    
C32   H14   S    
O9    V2    S    
C25   C26   A    
C24   C25   A    
O2    V1    S    
C18   C61   S    
C3    C23   S    
O4    C2    A    
O7    V1    S    
C39   C44   A    
C18   C19   A    
O16   V4    S    
C38   C41   A    
O1    C2    A    
C14   H6    S    
O5    V1    S    
O8    C3    A    
C45   C50   A    
C8    C66   S    
C20   H8    S    
C26   C60   S    
O19   C60   A    
C1    C40   S    
C11   C12   A    
C36   C40   A    
C5    C10   A    
C12   C13   A    
C17   C22   A    
O7    V2    S    
O4    V1    S    
O3    V1    S    
V1    O10   S    
C61   H25   S    
O11   V4    S    
C34   H16   S    
C33   C34   A    
C13   C14   A    
O15   C59   A    
C57   O16   A    
C5    C6    A    
C9    C10   A    
C37   C38   A    
C64   O24   D    
C65   O25   D    
C39   C40   A    
C27   C28   A    
C22   C26   A    
C54   H23   S    
O12   V3    S    
C41   C42   A    
C13   C59   S    
O18   C59   A    
C8    C9    A    
O18   V4    S    
C7    C8    A    
C24   C27   A    
C63   H27   S    
C66   H30   S    
