data_mof_unit_38538.cif
_audit_creation_date              2013-03-05T15:45:58-0500
_audit_creation_method            fapswitch 2.2
_symmetry_space_group_name_H-M    P1
_symmetry_Int_Tables_number       1
_space_group_crystal_system       triclinic
_cell_length_a                    18.948378
_cell_length_b                    10.931098
_cell_length_c                    18.846688
_cell_angle_alpha                 89.802631
_cell_angle_beta                  89.786179
_cell_angle_gamma                 90.170641
_cell_volume                      3903.58216446

loop_
_atom_site_label
_atom_site_type_symbol
_atom_site_description
_atom_site_fract_x
_atom_site_fract_y
_atom_site_fract_z
_atom_type_partial_charge
O1    O     O_R   0.787510 0.042610 0.670410 -0.468101
O2    O     O_R   0.212490 0.042610 0.329590 -0.498369
O3    O     O_R   0.287510 0.542610 0.670410 -0.460784
O4    O     O_R   0.712490 0.542610 0.329590 -0.506796
O5    O     O_R   0.765670 0.292090 0.675090 -0.438050
O6    O     O_R   0.234330 0.292090 0.324910 -0.491325
O7    O     O_R   0.265670 0.792090 0.675090 -0.458534
O8    O     O_R   0.734330 0.792090 0.324910 -0.485119
C1    C     C_R   0.729695 0.375832 0.645459 0.560882
C2    C     C_R   0.269208 0.378864 0.353423 0.550784
C3    C     C_R   0.229630 0.875936 0.645466 0.550621
C4    C     C_R   0.769359 0.877052 0.353686 0.566084
O9    O     O_R   0.670220 0.409020 0.668560 -0.522752
O10   O     O_R   0.329780 0.409020 0.331440 -0.533123
O11   O     O_R   0.170220 0.909020 0.668560 -0.518503
O12   O     O_R   0.829780 0.909020 0.331440 -0.533847
O13   O     O_R   0.556580 0.251590 0.674980 -0.502136
O14   O     O_R   0.443420 0.251590 0.325020 -0.509237
O15   O     O_R   0.056580 0.751590 0.674980 -0.506203
O16   O     O_R   0.943420 0.751590 0.325020 -0.507396
C5    C     C_R   0.531730 0.154371 0.646243 0.562206
C6    C     C_R   0.468302 0.154613 0.353600 0.575897
C7    C     C_R   0.029954 0.655036 0.647836 0.562720
C8    C     C_R   0.965628 0.653525 0.355303 0.579888
O17   O     O_R   0.545890 0.049670 0.670030 -0.448269
O18   O     O_R   0.454110 0.049670 0.329970 -0.448865
O19   O     O_R   0.045890 0.549670 0.670030 -0.459207
O20   O     O_R   0.954110 0.549670 0.329970 -0.447029
O21   O     O_R   0.681340 0.957860 0.676500 -0.496562
O22   O     O_R   0.318660 0.957860 0.323500 -0.483670
O23   O     O_R   0.181340 0.457860 0.676500 -0.504812
O24   O     O_R   0.818660 0.457860 0.323500 -0.471842
C9    C     C_R   0.740244 0.976809 0.644781 0.549155
C10   C     C_R   0.259050 0.970297 0.352862 0.586361
C11   C     C_R   0.227983 0.520023 0.639863 0.558793
C12   C     C_R   0.758865 0.470174 0.352786 0.586284
O25   O     O_R   0.787380 0.044010 0.830940 -0.526096
O26   O     O_R   0.212620 0.044010 0.169060 -0.520394
O27   O     O_R   0.287380 0.544010 0.830940 -0.522496
O28   O     O_R   0.712620 0.544010 0.169060 -0.520999
O29   O     O_R   0.765540 0.293390 0.823910 -0.503625
O30   O     O_R   0.234460 0.293390 0.176090 -0.502879
O31   O     O_R   0.265540 0.793390 0.823910 -0.504938
O32   O     O_R   0.734460 0.793390 0.176090 -0.500725
C13   C     C_R   0.727372 0.373159 0.854649 0.547061
C14   C     C_R   0.269837 0.379121 0.147934 0.555917
C15   C     C_R   0.227367 0.873146 0.854653 0.547917
C16   C     C_R   0.769836 0.879121 0.147934 0.558512
O33   O     O_R   0.670090 0.410410 0.829090 -0.526367
O34   O     O_R   0.329910 0.410410 0.170910 -0.520283
O35   O     O_R   0.170090 0.910410 0.829090 -0.523860
O36   O     O_R   0.829910 0.910410 0.170910 -0.519910
O37   O     O_R   0.556450 0.252890 0.823790 -0.508142
O38   O     O_R   0.443550 0.252890 0.176210 -0.503800
O39   O     O_R   0.056450 0.752890 0.823790 -0.507146
O40   O     O_R   0.943550 0.752890 0.176210 -0.502964
C17   C     C_R   0.535770 0.156186 0.855526 0.546369
C18   C     C_R   0.468467 0.157838 0.147016 0.555795
C19   C     C_R   0.035759 0.656187 0.855520 0.548497
C20   C     C_R   0.968463 0.657838 0.147014 0.554951
O41   O     O_R   0.545750 0.051070 0.830560 -0.520695
O42   O     O_R   0.454250 0.051070 0.169440 -0.517436
O43   O     O_R   0.045750 0.551070 0.830560 -0.517101
O44   O     O_R   0.954250 0.551070 0.169440 -0.519784
O45   O     O_R   0.681210 0.959150 0.825320 -0.510541
O46   O     O_R   0.318790 0.959150 0.174680 -0.507589
O47   O     O_R   0.181210 0.459150 0.825320 -0.505050
O48   O     O_R   0.818790 0.459150 0.174680 -0.507526
C21   C     C_R   0.739911 0.976286 0.856375 0.541623
C22   C     C_R   0.258677 0.969959 0.146086 0.554554
C23   C     C_R   0.239907 0.476299 0.856378 0.549405
C24   C     C_R   0.758678 0.469961 0.146085 0.554149
Cr1   Cr    Cr6+3 0.771950 0.169480 0.750100 1.091360
Cr2   Cr    Cr6+3 0.228050 0.169480 0.249900 1.057770
Cr3   Cr    Cr6+3 0.271950 0.669480 0.750100 1.079699
Cr4   Cr    Cr6+3 0.728050 0.669480 0.249900 1.063815
Cr5   Cr    Cr6+3 0.614930 0.323340 0.749170 1.033539
Cr6   Cr    Cr6+3 0.385070 0.323340 0.250830 1.035204
Cr7   Cr    Cr6+3 0.114930 0.823340 0.749170 1.028224
Cr8   Cr    Cr6+3 0.885070 0.823340 0.250830 1.037515
Cr9   Cr    Cr6+3 0.616590 0.010620 0.750610 1.070643
Cr10  Cr    Cr6+3 0.383410 0.010620 0.249390 1.085905
Cr11  Cr    Cr6+3 0.116590 0.510620 0.750610 1.065183
Cr12  Cr    Cr6+3 0.883410 0.510620 0.249390 1.089145
O49   O     O_3   0.667820 0.167810 0.749960 -0.280203
O50   O     O_3   0.332180 0.167810 0.250040 -0.275694
O51   O     O_3   0.167820 0.667810 0.749960 -0.295292
O52   O     O_3   0.832180 0.667810 0.250040 -0.280882
C25   C     C_R   0.501413 0.158623 0.423581 0.007284
C26   C     C_R   0.505810 0.157069 0.573272 -0.051830
C27   C     C_R   0.991425 0.653445 0.428407 -0.000478
C28   C     C_R   0.997506 0.660660 0.578005 -0.048048
C29   C     C_R   0.504736 0.267568 0.462285 -0.005371
C30   C     C_R   0.510944 0.266727 0.535451 -0.035118
C31   C     C_R   0.003573 0.762837 0.464405 0.000790
C32   C     C_R   0.009968 0.765556 0.537406 -0.038511
C33   C     C_R   0.503337 0.045255 0.534675 0.158459
C34   C     C_R   0.511355 0.046906 0.460755 0.187895
C35   C     C_R   0.982885 0.548906 0.543038 0.152832
C36   C     C_R   0.988000 0.542966 0.469048 0.170234
C37   C     C_3   0.457707 0.376684 0.462580 -0.232641
C38   C     C_3   0.464951 0.376861 0.542545 -0.239895
C39   C     C_3   0.965558 0.881724 0.461624 -0.226358
C40   C     C_3   0.972217 0.885115 0.541619 -0.235911
H1    H     H_    0.910194 0.871275 0.443820 0.153438
H2    H     H_    0.007225 0.959859 0.560609 0.195685
H3    H     H_    0.403236 0.354601 0.445345 0.150610
H4    H     H_    0.494630 0.457309 0.562778 0.199499
H5    H     H_    0.482492 0.457538 0.436545 0.188399
H6    H     H_    0.414562 0.357119 0.570917 0.154043
H7    H     H_    0.996737 0.954236 0.434248 0.189195
H8    H     H_    0.920743 0.877499 0.569896 0.156626
C41   C     C_R   0.704777 0.859631 0.539518 -0.151881
C42   C     C_R   0.293545 0.008767 0.474728 -0.117355
C43   C     C_R   0.185617 0.410889 0.532461 -0.147487
C44   C     C_R   0.785972 0.519429 0.475046 -0.119649
H9    H     H_    0.671746 0.801269 0.572284 0.178436
H10   H     H_    0.327611 0.082080 0.456028 0.099353
H11   H     H_    0.144880 0.366035 0.563508 0.190630
H12   H     H_    0.814476 0.599644 0.456482 0.091245
C45   C     C_R   0.706094 0.842068 0.466679 -0.095977
C46   C     C_R   0.286635 0.988936 0.547167 -0.094544
C47   C     C_R   0.193632 0.377593 0.461706 -0.102278
C48   C     C_R   0.779274 0.499231 0.547432 -0.102081
H13   H     H_    0.676458 0.766521 0.444496 0.182598
H14   H     H_    0.315221 0.045918 0.584238 0.137808
H15   H     H_    0.161213 0.304747 0.440532 0.188967
H16   H     H_    0.802020 0.563487 0.584589 0.132128
C49   C     C_R   0.749351 0.916382 0.423936 0.029382
C50   C     C_R   0.241276 0.897222 0.570980 0.048958
C51   C     C_R   0.246742 0.431978 0.420634 0.013191
C52   C     C_R   0.741926 0.397103 0.571056 0.058532
C53   C     C_R   0.788363 0.010903 0.453623 -0.085254
C54   C     C_R   0.203402 0.824380 0.522896 -0.072681
C55   C     C_R   0.288751 0.524475 0.449651 -0.078804
C56   C     C_R   0.710445 0.315946 0.522800 -0.060972
H17   H     H_    0.821974 0.068314 0.420697 0.195595
H18   H     H_    0.168649 0.752442 0.542016 0.126592
H19   H     H_    0.329456 0.568862 0.418171 0.185551
H20   H     H_    0.680565 0.237561 0.541780 0.133689
C57   C     C_R   0.791139 0.024587 0.525873 0.119019
C58   C     C_R   0.210753 0.843238 0.450325 0.136127
C59   C     C_R   0.284852 0.552024 0.520922 0.123526
C60   C     C_R   0.716793 0.336261 0.450230 0.136664
C61   C     C_R   0.747937 0.949130 0.569953 -0.000665
C62   C     C_R   0.254962 0.937078 0.426626 0.068825
C63   C     C_R   0.233070 0.494001 0.563771 -0.002975
C64   C     C_R   0.754451 0.438522 0.426730 0.081166
C65   C     C_R   0.535988 0.060339 0.972830 -0.127675
C66   C     C_R   0.527237 0.064611 0.045267 -0.132856
C67   C     C_R   0.035960 0.560332 0.972820 -0.127428
C68   C     C_R   0.027214 0.564604 0.045256 -0.133272
H21   H     H_    0.557039 0.977086 0.950176 0.138675
H22   H     H_    0.538841 0.983461 0.076257 0.134872
H23   H     H_    0.057008 0.477076 0.950167 0.138665
H24   H     H_    0.038817 0.483452 0.076245 0.133727
C69   C     C_R   0.498845 0.169076 0.076560 0.031296
C70   C     C_R   0.518555 0.161826 0.930479 0.033534
C71   C     C_R   0.998830 0.669074 0.076552 0.031195
C72   C     C_R   0.018533 0.661824 0.930470 0.033187
C73   C     C_R   0.485325 0.273781 0.035180 -0.138293
C74   C     C_R   0.495582 0.270273 0.962097 -0.146303
C75   C     C_R   0.985309 0.773779 0.035173 -0.138155
C76   C     C_R   0.995563 0.770271 0.962089 -0.146540
H25   H     H_    0.463068 0.355542 0.058504 0.136138
H26   H     H_    0.484366 0.350654 0.930359 0.123536
H27   H     H_    0.963055 0.855541 0.058499 0.136047
H28   H     H_    0.984349 0.850654 0.930352 0.123350
C77   C     C_R   0.789137 0.024129 0.972652 -0.128123
C78   C     C_R   0.183596 0.935138 0.043154 -0.133770
C79   C     C_R   0.289133 0.524145 0.972655 -0.128515
C80   C     C_R   0.683601 0.435159 0.043148 -0.133713
H29   H     H_    0.821929 0.094957 0.949208 0.138283
H30   H     H_    0.137183 0.961005 0.073291 0.133855
H31   H     H_    0.321926 0.594969 0.949211 0.138067
H32   H     H_    0.637188 0.461024 0.073285 0.133774
C81   C     C_R   0.790610 0.010851 0.045186 -0.134704
C82   C     C_R   0.178252 0.925158 0.970683 -0.127922
C83   C     C_R   0.290609 0.510861 0.045189 -0.134562
C84   C     C_R   0.678259 0.425185 0.970677 -0.128189
H33   H     H_    0.826520 0.067488 0.075470 0.132816
H34   H     H_    0.126729 0.938520 0.947220 0.139684
H35   H     H_    0.326522 0.567492 0.075473 0.132439
H36   H     H_    0.626737 0.438552 0.947215 0.139581
C85   C     C_R   0.750255 0.919243 0.077461 0.032030
C86   C     C_R   0.237940 0.896801 0.929433 0.033793
C87   C     C_R   0.250252 0.419254 0.077464 0.031733
C88   C     C_R   0.737947 0.396824 0.929427 0.033825
C89   C     C_R   0.703285 0.848242 0.036996 -0.138172
C90   C     C_R   0.302554 0.872905 0.962146 -0.146122
C91   C     C_R   0.203276 0.348263 0.037000 -0.138092
C92   C     C_R   0.802561 0.372928 0.962141 -0.145903
H37   H     H_    0.671606 0.776557 0.061103 0.136503
H38   H     H_    0.348392 0.846673 0.931294 0.125043
H39   H     H_    0.171595 0.276580 0.061107 0.136356
H40   H     H_    0.848399 0.346696 0.931289 0.125957
C93   C     C_R   0.700870 0.863194 0.963859 -0.147833
C94   C     C_R   0.308275 0.885251 0.035232 -0.138232
C95   C     C_R   0.200858 0.363221 0.963864 -0.147857
C96   C     C_R   0.808280 0.385270 0.035228 -0.138211
H41   H     H_    0.665185 0.807380 0.932864 0.122883
H42   H     H_    0.359618 0.873829 0.059416 0.135874
H43   H     H_    0.165170 0.307412 0.932870 0.123484
H44   H     H_    0.859622 0.373845 0.059413 0.135934
C97   C     C_R   0.745580 0.948552 0.931283 0.034026
C98   C     C_R   0.249132 0.920677 0.075536 0.032354
C99   C     C_R   0.245572 0.448573 0.931288 0.032296
C100  C     C_R   0.749136 0.420690 0.075532 0.032730
N1    N     N_R   0.490723 0.930226 0.569968 0.138546
O53   O     O_R   0.534853 0.840101 0.563006 -0.288814
O54   O     O_R   0.437551 0.918574 0.613380 -0.308082
N2    N     N_R   0.522611 0.933834 0.423619 0.119854
O55   O     O_R   0.476850 0.845160 0.428808 -0.262880
O56   O     O_R   0.573075 0.926318 0.376840 -0.312937
N3    N     N_R   0.964872 0.440158 0.582669 0.132900
O57   O     O_R   0.000632 0.339851 0.573848 -0.269798
O58   O     O_R   0.918343 0.445387 0.633529 -0.329312
N4    N     N_R   0.984735 0.424703 0.436109 0.128324
O59   O     O_R   0.928163 0.357537 0.441858 -0.265600
O60   O     O_R   0.037204 0.386646 0.397367 -0.323998
Br1   Br    Br    0.859007 0.145663 0.556303 -0.381978
Br2   Br    Br    0.162649 0.738508 0.384910 -0.532040
Br3   Br    Br    0.357150 0.661763 0.554159 -0.398332
Br4   Br    Br    0.673927 0.225072 0.384731 -0.518634

loop_
_geom_bond_atom_site_label_1
_geom_bond_atom_site_label_2
_geom_bond_distance
_ccdc_geom_bond_type
C37   H3    1.109347 S    
Cr11  O51   1.970965 S    
C17   C70   1.450165 S    
O4    C12   1.262882 A    
C18   O42   1.267739 A    
C29   C30   1.384373 A    
C66   C69   1.395413 A    
O39   C19   1.272851 A    
O20   Cr12  2.073515 S    
C58   C62   1.393672 A    
C93   C97   1.397404 A    
C31   C32   1.382016 A    
C20   C71   1.449982 S    
O8    Cr4   1.955080 S    
C60   C64   1.394392 A    
O29   Cr1   1.948623 S    
C40   H2    1.111863 S    
C33   C34   1.400881 A    
O1    C9    1.246822 A    
O27   Cr3   2.068608 S    
C24   C100  1.448109 S    
C53   H17   1.084669 S    
C37   C38   1.513819 S    
C33   N1    1.439395 S    
C78   C82   1.374649 A    
C92   H40   1.083315 S    
C46   C50   1.390713 A    
O40   C20   1.268893 A    
C91   C95   1.388417 A    
C78   C98   1.394870 A    
C51   C55   1.399031 A    
N3    O58   1.301442 A    
C77   C97   1.405963 A    
C81   H33   1.083916 S    
O47   C23   1.272469 A    
C94   C98   1.407512 A    
C81   C85   1.394717 A    
C37   H5    1.111432 S    
C72   C76   1.398516 A    
C43   C63   1.408856 A    
C28   C32   1.395340 A    
O23   Cr11  1.945697 S    
C48   C52   1.390996 A    
C39   H7    1.111587 S    
O30   C14   1.264646 A    
C41   C61   1.399125 A    
O32   Cr4   1.941445 S    
C1    O9    1.261371 A    
C2    C51   1.457858 S    
O44   Cr12  2.060214 S    
O17   Cr9   2.073003 S    
C65   H21   1.083121 S    
C23   C99   1.447385 S    
C84   C88   1.406000 A    
C45   H13   1.083261 S    
C74   H26   1.083256 S    
C3    O11   1.259895 A    
C54   C58   1.388907 A    
C12   C64   1.436821 S    
O11   Cr7   2.062838 S    
C68   H24   1.083926 S    
O21   C9    1.280164 A    
C58   Br2   1.916573 S    
C94   H42   1.083249 S    
C84   H36   1.083327 S    
C67   C68   1.375564 A    
C93   H41   1.083330 S    
O6    Cr2   1.955080 S    
C67   H23   1.083120 S    
C14   C87   1.447324 S    
O3    Cr3   2.068666 S    
C65   C70   1.405322 A    
Cr4   O52   1.973247 S    
C26   C33   1.425230 A    
C87   C91   1.407515 A    
O2    Cr2   2.060537 S    
C56   H20   1.084508 S    
C48   H16   1.083216 S    
C21   C97   1.447385 S    
O2    C10   1.264990 A    
C55   C59   1.379320 A    
O42   Cr10  2.060214 S    
C68   C71   1.395409 A    
C36   N4    1.437267 S    
C96   C100  1.407517 A    
O28   C24   1.268120 A    
C83   C87   1.394720 A    
C95   H43   1.083330 S    
C79   C83   1.374610 A    
C50   C54   1.405947 A    
O8    C4    1.264787 A    
O34   Cr6   2.067563 S    
Cr7   O51   1.976121 S    
C31   C39   1.488583 S    
Cr9   O49   1.970965 S    
C73   C74   1.390969 A    
C90   H38   1.083313 S    
C83   H35   1.083915 S    
C5    C26   1.462295 S    
O31   Cr3   1.948623 S    
O24   Cr12  1.940673 S    
O9    Cr5   2.062838 S    
C38   H4    1.111728 S    
O30   Cr2   1.941445 S    
C26   C30   1.395456 A    
C43   C47   1.391366 A    
C4    C49   1.443132 S    
O22   C10   1.263831 A    
O48   Cr12  1.952587 S    
C4    O12   1.265574 A    
C80   C100  1.394864 A    
C42   C62   1.406014 A    
N1    O53   1.300760 A    
C5    O17   1.257784 A    
C2    O10   1.261303 A    
C29   C37   1.491021 S    
C44   C64   1.405188 A    
O16   Cr8   1.949816 S    
O15   C7    1.277764 A    
C92   C96   1.389102 A    
O7    Cr3   1.948880 S    
O26   Cr2   2.074403 S    
Cr10  O50   1.976073 S    
C34   N2    1.438564 S    
O13   C5    1.283469 A    
O28   Cr4   2.074403 S    
O43   Cr11  2.064156 S    
O48   C24   1.267563 A    
O12   Cr8   2.070407 S    
C42   C46   1.387241 A    
C46   H14   1.083195 S    
C40   H8    1.112467 S    
O7    C3    1.273245 A    
N3    O57   1.301475 A    
O5    C1    1.271810 A    
C60   Br4   1.916453 S    
C96   H44   1.083250 S    
O46   Cr10  1.952587 S    
O39   Cr7   1.942819 S    
C19   C72   1.450155 S    
N4    O60   1.301447 A    
C35   C36   1.399217 A    
O3    C11   1.291818 A    
C75   H27   1.083256 S    
C52   C56   1.405860 A    
C95   C99   1.397407 A    
C13   O33   1.257428 A    
C39   H1    1.108314 S    
C11   C63   1.465859 S    
O47   Cr11  1.951895 S    
Cr2   O50   1.973247 S    
C15   C86   1.448306 S    
O15   Cr7   1.951043 S    
O35   Cr7   2.069471 S    
Cr1   O49   1.973136 S    
C42   H10   1.084605 S    
C9    C61   1.450271 S    
C85   C89   1.407521 A    
C41   H9    1.082629 S    
C76   H28   1.083256 S    
Cr3   O51   1.973136 S    
O26   C22   1.268119 A    
N2    O56   1.301171 A    
O21   Cr9   1.945697 S    
C59   C63   1.415639 A    
C7    O19   1.261907 A    
C77   C81   1.374611 A    
C66   H22   1.083927 S    
O37   Cr5   1.942819 S    
C27   C36   1.429013 A    
O25   C21   1.255875 A    
C49   C53   1.389076 A    
C19   O43   1.257693 A    
C38   H6    1.112793 S    
C22   C98   1.448107 S    
O18   Cr10  2.073515 S    
C79   C99   1.405955 A    
C3    C50   1.438282 S    
C69   C73   1.407429 A    
C47   H15   1.082480 S    
C90   C94   1.389094 A    
C8    O20   1.251956 A    
O14   Cr6   1.949816 S    
O38   C18   1.268900 A    
C1    C52   1.438425 S    
C89   C93   1.388427 A    
C7    C28   1.455871 S    
O25   Cr1   2.068608 S    
O37   C17   1.272846 A    
O22   Cr10  1.940673 S    
C44   C48   1.386530 A    
C47   C51   1.397422 A    
O14   C6    1.279492 A    
C53   C57   1.371567 A    
O5    Cr1   1.948880 S    
Cr12  O52   1.976073 S    
C45   C49   1.402597 A    
C18   C69   1.449977 S    
C54   H18   1.083983 S    
C15   O35   1.257424 A    
O24   C12   1.266192 A    
C13   C88   1.448308 S    
C17   O41   1.257696 A    
C78   H30   1.083909 S    
C57   C61   1.423664 A    
C82   H34   1.083327 S    
C14   O34   1.265927 A    
C43   H11   1.082128 S    
O40   Cr8   1.949269 S    
C20   O44   1.267738 A    
C25   C34   1.419200 A    
C88   C92   1.397766 A    
C55   H19   1.083833 S    
O1    Cr1   2.068666 S    
C67   C72   1.405324 A    
C32   C40   1.493953 S    
C16   C85   1.447327 S    
Cr8   O52   1.971067 S    
O32   C16   1.264640 A    
O29   C13   1.274006 A    
C65   C66   1.375581 A    
C59   Br3   1.926087 S    
O13   Cr5   1.951043 S    
C10   C62   1.437391 S    
C77   H29   1.083253 S    
C80   C84   1.374644 A    
N4    O59   1.301441 A    
O46   C22   1.267568 A    
C35   N3    1.441192 S    
O45   C21   1.272482 A    
O23   C11   1.307010 A    
O19   Cr11  2.073003 S    
N1    O54   1.301194 A    
C6    C25   1.463378 S    
O33   Cr5   2.069471 S    
C71   C75   1.407435 A    
O10   Cr6   2.070407 S    
C25   C29   1.400054 A    
C44   H12   1.084718 S    
C91   H39   1.083268 S    
O4    Cr4   2.060537 S    
C75   C76   1.390978 A    
O6    C2    1.275808 A    
C70   C74   1.398516 A    
Cr5   O49   1.976121 S    
C8    C27   1.463637 S    
C82   C86   1.405994 A    
C89   H37   1.083267 S    
C16   O36   1.265932 A    
C41   C45   1.386924 A    
N2    O55   1.301803 A    
C30   C38   1.494387 S    
C27   C31   1.395806 A    
C56   C60   1.389570 A    
Cr6   O50   1.971067 S    
C6    O18   1.260618 A    
C39   C40   1.513955 S    
O27   C23   1.255870 A    
O45   Cr9   1.951895 S    
O41   Cr9   2.064156 S    
C86   C90   1.397767 A    
O36   Cr8   2.067563 S    
O31   C15   1.273999 A    
O16   C8    1.285372 A    
C73   H25   1.083255 S    
C80   H32   1.083906 S    
C28   C35   1.417132 A    
C57   Br1   1.932582 S    
O38   Cr6   1.949269 S    
C79   H31   1.083252 S    
