data_mof_unit_7121.cif
_audit_creation_date              2012-12-10T16:59:59-0500
_audit_creation_method            fapswitch 2.2
_symmetry_space_group_name_H-M    P1
_symmetry_Int_Tables_number       1
_space_group_crystal_system       triclinic
_cell_length_a                    14.97805
_cell_length_b                    15.141569
_cell_length_c                    10.063086
_cell_angle_alpha                 89.158419
_cell_angle_beta                  93.111887
_cell_angle_gamma                 89.114038
_cell_volume                      2278.3058242

loop_
_atom_site_label
_atom_site_type_symbol
_atom_type_description
_atom_site_fract_x
_atom_site_fract_y
_atom_site_fract_z
_atom_type_partial_charge
C1    C     C_R   0.378710 0.884595 0.497641 0.806221
C2    C     C_R   0.383871 0.122023 0.496835 0.768734
C3    C     C_R   0.878708 0.384597 0.497641 0.806193
C4    C     C_R   0.883872 0.622024 0.496835 0.768740
C5    C     C_R   0.623704 0.113992 0.501690 0.862159
C6    C     C_R   0.610093 0.873135 0.502636 0.898848
C7    C     C_R   0.123702 0.613994 0.501690 0.862159
C8    C     C_R   0.110092 0.373134 0.502636 0.898862
C9    C     C_2   0.670369 0.741120 0.399558 0.531542
C10   C     C_2   0.735944 0.198915 0.393112 0.513625
C11   C     C_2   0.170366 0.241117 0.399559 0.531547
C12   C     C_2   0.235940 0.698921 0.393113 0.513635
C13   C     C_2   0.649258 0.784375 0.511134 -0.193822
C14   C     C_2   0.707737 0.160029 0.505401 -0.228940
C15   C     C_2   0.149256 0.284373 0.511134 -0.193833
C16   C     C_2   0.207733 0.660035 0.505402 -0.228951
C17   C     C_2   0.241976 0.173702 0.414987 -0.312414
C18   C     C_2   0.308966 0.760343 0.405139 -0.332768
C19   C     C_2   0.741979 0.673705 0.414985 -0.312402
C20   C     C_2   0.808967 0.260342 0.405139 -0.332722
C21   C     C_2   0.317776 0.191837 0.485681 0.353486
C22   C     C_2   0.303928 0.827680 0.488712 0.298550
C23   C     C_2   0.817778 0.691839 0.485681 0.353490
C24   C     C_2   0.803927 0.327678 0.488715 0.298523
C25   C     C_2   0.572041 0.009290 0.932480 0.013126
C26   C     C_2   0.072041 0.509291 0.932480 0.013125
C27   C     C_2   0.571902 0.996323 0.080715 0.009008
C28   C     C_2   0.071902 0.496322 0.080715 0.009017
H1    H     H_    0.231667 0.109269 0.370891 0.067513
H2    H     H_    0.364317 0.752338 0.340426 0.149336
H3    H     H_    0.731670 0.609273 0.370884 0.067522
H4    H     H_    0.864315 0.252344 0.340419 0.149335
H5    H     H_    0.447724 0.969048 0.890233 0.210205
H6    H     H_    0.947724 0.469048 0.890233 0.210198
H7    H     H_    0.635414 0.982848 0.134982 0.126955
H8    H     H_    0.135414 0.482847 0.134981 0.126949
N1    N     N_2   0.501330 1.000000 0.852150 -0.172482
N2    N     N_2   0.001330 0.500000 0.852150 -0.172484
N3    N     N_2   0.501360 0.000000 0.147810 0.065968
N4    N     N_2   0.001360 0.500000 0.147810 0.065970
O1    O     O_R   0.409520 0.909540 0.613040 -0.601577
O2    O     O_R   0.409520 0.090460 0.613040 -0.628068
O3    O     O_R   0.909520 0.409540 0.613040 -0.601606
O4    O     O_R   0.909520 0.590460 0.613040 -0.628077
O5    O     O_R   0.409560 0.909540 0.386900 -0.683296
O6    O     O_R   0.409560 0.090460 0.386900 -0.622477
O7    O     O_R   0.909560 0.409540 0.386900 -0.683281
O8    O     O_R   0.909560 0.590460 0.386900 -0.622479
O9    O     O_R   0.590440 0.090460 0.613100 -0.604816
O10   O     O_R   0.590440 0.909540 0.613100 -0.581523
O11   O     O_R   0.090440 0.590460 0.613100 -0.604815
O12   O     O_R   0.090440 0.409540 0.613100 -0.581518
O13   O     O_R   0.590480 0.090460 0.386960 -0.542828
O14   O     O_R   0.590480 0.909540 0.386960 -0.558050
O15   O     O_R   0.090480 0.590460 0.386960 -0.542820
O16   O     O_R   0.090480 0.409540 0.386960 -0.558051
Zn1   Zn    Zn3+2 0.499970 0.000000 0.650990 0.980055
Zn2   Zn    Zn3+2 0.999970 0.500000 0.650990 0.980040
Zn3   Zn    Zn3+2 0.500030 0.000000 0.349010 1.005971
Zn4   Zn    Zn3+2 0.000030 0.500000 0.349010 1.005979
O17   O     O_3   0.635441 0.771039 0.274647 -0.602265
C29   C     C_3   0.656893 0.715083 0.169583 0.084753
H9    H     H_    0.631228 0.647441 0.186492 0.141611
H10   H     H_    0.730452 0.712603 0.158685 0.164852
C30   C     C_3   0.612887 0.751431 0.039923 -0.794145
H11   H     H_    0.640630 0.817017 0.016145 0.243746
H12   H     H_    0.625990 0.705725 0.957672 0.229677
H13   H     H_    0.539494 0.758313 0.048563 0.257057
O18   O     O_3   0.694169 0.184179 0.268382 -0.598790
C31   C     C_3   0.669467 0.265243 0.203822 0.091461
H14   H     H_    0.729121 0.297018 0.163818 0.136825
H15   H     H_    0.636946 0.311430 0.272589 0.144254
C32   C     C_3   0.602740 0.247983 0.088107 -0.781971
H16   H     H_    0.543198 0.214297 0.124570 0.283081
H17   H     H_    0.581064 0.311535 0.039116 0.198205
H18   H     H_    0.634096 0.205810 0.013837 0.232958
O19   O     O_3   0.135441 0.271038 0.274647 -0.602265
C33   C     C_3   0.156893 0.215081 0.169584 0.084755
H19   H     H_    0.131229 0.147439 0.186492 0.141607
H20   H     H_    0.230453 0.212601 0.158687 0.164854
C34   C     C_3   0.112888 0.251428 0.039924 -0.794144
H21   H     H_    0.140629 0.317015 0.016146 0.243746
H22   H     H_    0.125992 0.205723 0.957673 0.229680
H23   H     H_    0.039494 0.258310 0.048562 0.257057
O20   O     O_3   0.194163 0.684185 0.268383 -0.598783
C35   C     C_3   0.169480 0.765248 0.203807 0.091438
H24   H     H_    0.229141 0.797003 0.163793 0.136835
H25   H     H_    0.136973 0.811450 0.272567 0.144243
C36   C     C_3   0.102745 0.747995 0.088100 -0.781956
H26   H     H_    0.043194 0.714329 0.124576 0.283070
H27   H     H_    0.081086 0.811547 0.039095 0.198205
H28   H     H_    0.134087 0.705803 0.013839 0.232962
C37   C     C_2   0.662600 0.743358 0.647651 0.368424
H29   H     H_    0.668612 0.784826 0.734608 0.117153
O21   O     O_2   0.664093 0.663283 0.664421 -0.608706
C38   C     C_2   0.761205 0.159701 0.635267 0.493987
H30   H     H_    0.727563 0.162667 0.727730 0.085870
O22   O     O_2   0.842764 0.154155 0.639734 -0.572938
C39   C     C_2   0.162596 0.243355 0.647651 0.368418
H31   H     H_    0.168610 0.284824 0.734608 0.117147
O23   O     O_2   0.164085 0.163280 0.664420 -0.608672
C40   C     C_2   0.261198 0.659711 0.635270 0.493981
H32   H     H_    0.227554 0.662679 0.727731 0.085867
O24   O     O_2   0.342757 0.654164 0.639741 -0.572939
O25   O     O_3   0.334688 0.278202 0.526516 -0.636162
C41   C     C_3   0.394208 0.281294 0.639966 0.063492
H33   H     H_    0.463622 0.265536 0.612717 0.153492
H34   H     H_    0.373862 0.235218 0.719773 0.178740
C42   C     C_3   0.391791 0.373965 0.695910 -0.767460
H35   H     H_    0.324206 0.388819 0.730496 0.283809
H36   H     H_    0.441379 0.378774 0.781509 0.205859
H37   H     H_    0.407453 0.423316 0.618232 0.277282
O26   O     O_3   0.229529 0.840928 0.563876 -0.647082
C43   C     C_3   0.200437 0.930176 0.555588 0.092828
H38   H     H_    0.200111 0.956619 0.451491 0.100908
H39   H     H_    0.243723 0.971503 0.622051 0.190965
C44   C     C_3   0.105428 0.936479 0.600418 -0.777052
H40   H     H_    0.103176 0.912338 0.704923 0.252280
H41   H     H_    0.081142 0.006127 0.593932 0.261129
H42   H     H_    0.061016 0.895691 0.535107 0.241274
O27   O     O_3   0.834689 0.778202 0.526523 -0.636165
C45   C     C_3   0.894209 0.781291 0.639973 0.063502
H43   H     H_    0.963623 0.765531 0.612724 0.153478
H44   H     H_    0.873862 0.735215 0.719778 0.178745
C46   C     C_3   0.891797 0.873962 0.695918 -0.767466
H45   H     H_    0.824215 0.888815 0.730515 0.283803
H46   H     H_    0.941391 0.878770 0.781510 0.205863
H47   H     H_    0.907453 0.923314 0.618239 0.277285
O28   O     O_3   0.729531 0.340914 0.563892 -0.647115
C47   C     C_3   0.700462 0.430170 0.555712 0.092943
H48   H     H_    0.700160 0.456675 0.451651 0.100931
H49   H     H_    0.743747 0.471448 0.622251 0.190975
C48   C     C_3   0.605445 0.436464 0.600512 -0.777187
H50   H     H_    0.603166 0.412242 0.704973 0.252258
H51   H     H_    0.581182 0.506122 0.594144 0.261189
H52   H     H_    0.561030 0.395740 0.535109 0.241287
C49   C     C_2   0.660678 0.028227 0.883199 0.368619
H53   H     H_    0.705657 0.070590 0.940256 0.049811
O29   O     O_2   0.688134 0.991031 0.786872 -0.564097
C50   C     C_2   0.160678 0.528228 0.883199 0.368623
H54   H     H_    0.205656 0.570591 0.940257 0.049808
O30   O     O_2   0.188134 0.491033 0.786871 -0.564092
O31   O     O_3   0.429594 0.040477 0.085205 -0.553616
C51   C     C_3   0.353237 0.992554 0.116296 0.188261
H55   H     H_    0.330808 0.011054 0.215055 0.178223
H56   H     H_    0.365829 0.919776 0.114406 0.123680
C52   C     C_3   0.276939 0.015000 0.014557 -0.924226
H57   H     H_    0.214816 0.982717 0.044237 0.209678
H58   H     H_    0.265212 0.087532 0.008863 0.269189
H59   H     H_    0.292899 0.991271 0.914611 0.266824
O32   O     O_3   0.929595 0.540478 0.085205 -0.553612
C53   C     C_3   0.853237 0.492555 0.116295 0.188271
H60   H     H_    0.830808 0.511055 0.215054 0.178224
H61   H     H_    0.865828 0.419777 0.114403 0.123679
C54   C     C_3   0.776940 0.515002 0.014555 -0.924241
H62   H     H_    0.714817 0.482720 0.044234 0.209684
H63   H     H_    0.765212 0.587534 0.008862 0.269191
H64   H     H_    0.792900 0.491274 0.914609 0.266801

loop_
_geom_bond_atom_site_label_1
_geom_bond_atom_site_label_2
_ccdc_geom_bond_type
C37   H29   S    
N4    Zn4   S    
O6    Zn3   S    
C54   H63   S    
C17   H1    S    
C32   H16   S    
O25   C41   S    
C19   C23   D    
C52   H57   S    
C7    O15   A    
C19   H3    S    
C8    O16   A    
C34   H21   S    
O13   Zn3   S    
C23   O27   S    
O19   C33   S    
C2    O6    A    
C49   O29   D    
C3    O3    A    
C2    C21   S    
C12   O20   S    
C9    O17   S    
C5    O13   A    
C52   H58   S    
C50   O30   D    
O28   C47   S    
C26   C50   S    
O18   C31   S    
C44   H41   S    
C4    O8    A    
C33   H20   S    
C41   H33   S    
C28   N4    D    
O31   C51   S    
O9    Zn1   S    
C9    C13   D    
C29   H10   S    
C11   O19   S    
O3    Zn2   S    
C25   N1    D    
O7    Zn4   S    
N2    Zn2   S    
C11   C15   D    
C24   O28   S    
C9    C19   S    
C22   O26   S    
C11   C17   S    
C20   C24   D    
C10   C20   S    
C30   H12   S    
C38   O22   D    
C46   H47   S    
O32   C53   S    
C31   H14   S    
C18   H2    S    
C36   H27   S    
C8    O12   A    
C1    C22   S    
C37   O21   D    
H6    N2    S    
O15   Zn4   S    
C54   H64   S    
C32   H17   S    
C5    O9    A    
C3    C24   S    
O17   C29   S    
C6    O14   A    
C51   C52   S    
O2    Zn1   S    
C14   C38   S    
C34   H22   S    
O8    Zn4   S    
O14   Zn3   S    
N1    Zn1   S    
C12   C16   D    
C52   H59   S    
C50   H54   S    
C51   H56   S    
C10   C14   D    
C42   H37   S    
C27   N3    D    
C4    C23   S    
C35   H24   S    
C26   N2    D    
C4    O4    A    
C27   H7    S    
O20   C35   S    
C17   C21   D    
O16   Zn4   S    
N4    O32   S    
C13   C37   S    
C25   C49   S    
C29   H9    S    
C48   H52   S    
C39   H31   S    
C53   C54   S    
C30   H13   S    
N3    Zn3   S    
C38   H30   S    
O4    Zn2   S    
C31   C32   S    
C5    C14   S    
O11   Zn2   S    
C6    O10   A    
C36   H28   S    
C40   O24   D    
O27   C45   S    
O12   Zn2   S    
C16   C40   S    
C7    C16   S    
C39   O23   D    
C53   H61   S    
C8    C15   S    
C48   H50   S    
C32   H18   S    
C44   H42   S    
C47   C48   S    
C45   H44   S    
C34   H23   S    
C46   H46   S    
O26   C43   S    
C20   H4    S    
C1    O1    A    
O5    Zn3   S    
C29   C30   S    
C18   C22   D    
O10   Zn1   S    
N3    O31   S    
C51   H55   S    
C35   C36   S    
C43   H39   S    
C43   H38   S    
C25   C27   S    
C49   H53   S    
C26   C28   S    
C47   H49   S    
C45   C46   S    
C42   H36   S    
C47   H48   S    
C45   H43   S    
C7    O11   A    
C44   H40   S    
C6    C13   S    
C15   C39   S    
C33   H19   S    
C33   C34   S    
C1    O5    A    
C46   H45   S    
C41   H34   S    
C2    O2    A    
C3    O7    A    
C35   H25   S    
C40   H32   S    
H5    N1    S    
C43   C44   S    
O1    Zn1   S    
C10   O18   S    
C53   H60   S    
C28   H8    S    
C30   H11   S    
C12   C18   S    
C54   H62   S    
C48   H51   S    
C31   H15   S    
C36   H26   S    
C42   H35   S    
C21   O25   S    
C41   C42   S    
