data_mof_unit_50944.cif
_audit_creation_date              2012-12-11T17:01:34-0500
_audit_creation_method            fapswitch 2.2
_symmetry_space_group_name_H-M    P1
_symmetry_Int_Tables_number       1
_space_group_crystal_system       triclinic
_cell_length_a                    14.955751
_cell_length_b                    14.836696
_cell_length_c                    14.895612
_cell_angle_alpha                 109.503296
_cell_angle_beta                  109.23742
_cell_angle_gamma                 109.764883
_cell_volume                      2541.44808996

loop_
_atom_site_label
_atom_site_type_symbol
_atom_type_description
_atom_site_fract_x
_atom_site_fract_y
_atom_site_fract_z
_atom_type_partial_charge
C1    C     C_R   0.004646 0.804924 0.097786 -0.155303
C2    C     C_R   0.223283 0.750424 0.315127 -0.120507
C3    C     C_R   0.904664 0.409814 0.210008 -0.139048
C4    C     C_R   0.792417 0.195500 0.700499 -0.154291
C5    C     C_R   0.299281 0.591698 0.993848 -0.146153
C6    C     C_R   0.934503 0.502959 0.302792 0.063071
C7    C     C_R   0.299677 0.500019 0.930300 -0.003108
C8    C     C_R   0.325935 0.775470 0.325041 0.069891
C9    C     C_R   0.051247 0.225728 0.052894 0.072495
C10   C     C_3   0.469649 0.396024 0.828026 -0.397036
C11   C     C_3   0.365322 0.395876 0.823567 -0.403457
C12   C     C_R   0.697983 0.131389 0.696609 0.077486
C13   C     C_3   0.565353 0.500133 0.036097 -0.387104
C14   C     C_3   0.573155 0.603722 0.931084 -0.399481
C15   C     C_3   0.572604 0.499946 0.934528 0.387946
C16   C     C_R   0.024673 0.593225 0.779503 -0.055345
C17   C     C_3   0.396504 0.500047 0.926581 0.393046
C18   C     C_3   0.462427 0.500330 0.031432 -0.393102
C19   C     C_3   0.468948 0.603889 0.926701 -0.399857
C20   C     C_R   0.623596 0.963812 0.520462 0.169040
C21   C     C_R   0.620138 0.014150 0.616187 0.030341
C22   C     C_R   0.529668 0.954015 0.623558 -0.201778
C23   C     C_R   0.952228 0.502105 0.675608 0.039933
C24   C     C_R   0.434734 0.861990 0.528320 -0.198986
C25   C     C_R   0.430440 0.831248 0.426123 0.033773
C26   C     C_R   0.529844 0.873874 0.426390 0.163368
C27   C     C_3   0.560208 0.913691 0.354785 -0.524207
C28   C     C_R   0.685408 0.407438 0.932422 -0.134657
C29   C     C_3   0.662805 0.011326 0.457635 -0.523411
C30   C     C_R   0.953937 0.608671 0.483005 0.060173
C31   C     C_R   0.900911 0.508429 0.384866 0.016633
C32   C     C_R   0.830635 0.411173 0.377207 -0.182778
C33   C     C_R   0.835806 0.410944 0.472742 -0.185685
C34   C     C_R   0.674529 0.499977 0.947810 -0.009536
C35   C     C_R   0.912331 0.507469 0.575528 0.067162
C36   C     C_R   0.962567 0.607019 0.577325 -0.105923
C37   C     C_3   0.076636 0.706696 0.647137 0.261151
C38   C     C_3   0.066139 0.709659 0.543281 0.232472
C39   C     C_R   0.058224 0.037504 0.163618 0.161704
C40   C     C_R   0.936594 0.408344 0.684699 -0.161422
C41   C     C_R   0.103816 0.987526 0.109934 0.031858
C42   C     C_R   0.172006 0.048522 0.080608 -0.202333
C43   C     C_R   0.169006 0.140889 0.077806 -0.200612
C44   C     C_R   0.096979 0.170890 0.103201 0.033065
C45   C     C_R   0.994709 0.592992 0.298586 -0.172793
C46   C     C_R   0.054253 0.127751 0.159812 0.161893
C47   C     C_3   0.943108 0.087788 0.149968 -0.521748
C48   C     C_3   0.948087 0.989842 0.154939 -0.523635
C49   C     C_R   0.777472 0.592542 0.024858 -0.130602
C50   C     C_R   0.699126 0.195184 0.789684 -0.135509
C51   C     C_R   0.094743 0.805920 0.005595 -0.151809
C52   C     C_R   0.065983 0.869809 0.068823 0.083278
C53   C     C_3   0.167020 0.598582 0.638948 0.313971
C54   C     C_3   0.279058 0.634790 0.647660 -0.965214
C55   C     C_3   0.163376 0.892344 0.592085 0.294216
C56   C     C_R   0.208370 0.408281 0.903084 -0.154153
C57   C     C_3   0.154370 0.993067 0.598187 -0.921211
C58   C     C_R   0.313348 0.745580 0.221328 -0.147957
C59   C     C_R   0.976964 0.255064 0.068984 -0.148051
C60   C     C_R   0.066467 0.250156 0.974617 -0.122892
H1    H     H_    0.986196 0.833068 0.162546 0.103470
H2    H     H_    0.473505 0.395321 0.754476 0.159556
H3    H     H_    0.317231 0.394406 0.747465 0.156761
H4    H     H_    0.827992 0.166878 0.652950 0.102759
H5    H     H_    0.314096 0.318731 0.819705 0.149673
H6    H     H_    0.564116 0.425894 0.039565 0.157038
H7    H     H_    0.411774 0.426222 0.032627 0.156790
H8    H     H_    0.645030 0.681342 0.005191 0.148747
H9    H     H_    0.577644 0.604198 0.858136 0.160352
H10   H     H_    0.422145 0.604823 0.851797 0.160645
H11   H     H_    0.494518 0.681191 0.999327 0.148786
H12   H     H_    0.177924 0.322646 0.847366 0.089063
H13   H     H_    0.638284 0.574371 0.113346 0.161299
H14   H     H_    0.485925 0.574806 0.106165 0.157305
H15   H     H_    0.526202 0.984743 0.698419 0.124812
H16   H     H_    0.051785 0.678845 0.803698 0.115344
H17   H     H_    0.361911 0.825451 0.533506 0.115661
H18   H     H_    0.577008 0.857533 0.300506 0.189920
H19   H     H_    0.504753 0.939001 0.313397 0.201170
H20   H     H_    0.738551 0.010889 0.462922 0.192975
H21   H     H_    0.664863 0.091006 0.473677 0.198415
H22   H     H_    0.781815 0.333033 0.300931 0.120780
H23   H     H_    0.373928 0.747519 0.197211 0.108325
H24   H     H_    0.790033 0.332959 0.466784 0.121662
H25   H     H_    0.078326 0.778455 0.705373 0.095175
H26   H     H_    0.621787 0.321606 0.883915 0.091959
H27   H     H_    0.123888 0.694315 0.517320 0.036558
H28   H     H_    0.216307 0.018059 0.046712 0.127396
H29   H     H_    0.211196 0.178069 0.041990 0.124834
H30   H     H_    0.944593 0.143588 0.222869 0.190363
H31   H     H_    0.877000 0.062794 0.069005 0.201271
H32   H     H_    0.953271 0.989696 0.231080 0.190879
H33   H     H_    0.884840 0.910482 0.077126 0.199915
H34   H     H_    0.950579 0.253336 0.127658 0.111043
H35   H     H_    0.884934 0.322832 0.619885 0.101823
H36   H     H_    0.799433 0.678397 0.062052 0.092298
H37   H     H_    0.646969 0.166439 0.821444 0.083508
H38   H     H_    0.155917 0.835193 0.983134 0.097545
H39   H     H_    0.013383 0.676819 0.344548 0.143278
H40   H     H_    0.103614 0.548883 0.550661 0.071824
H41   H     H_    0.154530 0.543010 0.673924 0.120563
H42   H     H_    0.344177 0.681234 0.735207 0.262598
H43   H     H_    0.283290 0.561056 0.602870 0.219077
H44   H     H_    0.293427 0.688826 0.611279 0.249348
H45   H     H_    0.119707 0.239019 0.943166 0.091362
H46   H     H_    0.203474 0.874711 0.542682 0.075333
H47   H     H_    0.215718 0.912658 0.677170 0.096379
H48   H     H_    0.115518 0.013538 0.648015 0.254234
H49   H     H_    0.237330 0.065144 0.637098 0.206596
H50   H     H_    0.104053 0.976042 0.514251 0.257134
H51   H     H_    0.202377 0.761177 0.379208 0.086952
H52   H     H_    0.844079 0.325515 0.178651 0.085168
H53   H     H_    0.353725 0.677212 0.022398 0.091642
H54   H     H_    0.464240 0.318524 0.825142 0.146324
N1    N     N_R   0.995640 0.706130 0.053910 -0.037569
N2    N     N_R   0.054010 0.556790 0.847890 -0.046836
N3    N     N_R   0.789940 0.443190 0.997130 -0.036164
N4    N     N_R   0.997630 0.443170 0.791110 -0.040258
N5    N     N_R   0.846320 0.556810 0.053910 -0.034886
N6    N     N_R   0.791080 0.293860 0.847890 -0.037583
N7    N     N_R   0.052880 0.706130 0.997130 -0.042342
N8    N     N_R   0.002370 0.556830 0.208890 -0.039063
N9    N     N_R   0.153680 0.443190 0.946090 -0.032884
N10   N     N_R   0.208920 0.706140 0.152110 -0.040330
N11   N     N_R   0.947120 0.293870 0.002870 -0.040927
N12   N     N_R   0.004360 0.293870 0.946090 -0.040405
N13   N     N_R   0.151690 0.706140 0.208890 -0.040324
N14   N     N_R   0.945990 0.443210 0.152110 -0.038015
N15   N     N_R   0.210060 0.556810 0.002870 -0.034052
N16   N     N_R   0.848310 0.293860 0.791110 -0.036772
Ni1   Ni    Ni4+2 0.999010 0.630300 0.130220 0.213648
Ni2   Ni    Ni4+2 0.000990 0.369700 0.869780 0.208967
Ni3   Ni    Ni4+2 0.130280 0.630280 0.000000 0.218272
Ni4   Ni    Ni4+2 0.869720 0.369720 0.000000 0.207289
O1    O     O_3   0.165189 0.693114 0.702335 -0.643303
O2    O     O_3   0.057448 0.801342 0.542409 -0.627422

loop_
_geom_bond_atom_site_label_1
_geom_bond_atom_site_label_2
_ccdc_geom_bond_type
N11   Ni4   S    
C40   N4    A    
N1    N7    A    
C6    C45   A    
N9    Ni2   S    
C27   C29   S    
C41   C42   A    
C19   H11   S    
C35   C36   A    
C53   O1    S    
C41   C52   S    
C27   H18   S    
C39   C41   A    
N1    Ni1   S    
C53   C54   S    
C26   C27   S    
C43   H29   S    
C13   C18   S    
C50   N6    A    
C7    C56   A    
C37   H25   S    
C36   C37   S    
C11   H3    S    
C28   N3    A    
N3    N5    A    
C30   C31   A    
C55   O2    S    
C30   C38   S    
C8    C58   A    
C57   H49   S    
C47   C48   S    
C53   H41   S    
C56   H12   S    
C23   C40   A    
N5    Ni1   S    
C37   O1    S    
C59   H34   S    
C38   O2    S    
C4    C12   A    
C15   C34   S    
C10   H54   S    
C13   H6    S    
C2    N13   A    
C3    C6    A    
C51   H38   S    
C5    N15   A    
C6    C31   S    
C28   C34   A    
C18   H14   S    
C21   C22   A    
N9    N15   A    
C8    C25   S    
C10   H2    S    
C22   H15   S    
N3    Ni4   S    
C16   N2    A    
C33   H24   S    
C44   C46   A    
C20   C29   S    
C53   H40   S    
C2    H51   S    
C48   H33   S    
C55   H46   S    
C51   C52   A    
C56   N9    A    
C54   H43   S    
C24   C25   A    
C45   H39   S    
C5    C7    A    
C3    N14   A    
C17   C19   S    
C4    N16   A    
N2    Ni3   S    
C7    C17   S    
C18   H7    S    
C12   C21   S    
C55   H47   S    
C9    C59   A    
N16   Ni2   S    
C43   C44   A    
C29   H21   S    
C37   C38   S    
N14   Ni4   S    
C57   H50   S    
N12   Ni2   S    
C3    H52   S    
C17   C18   S    
C9    C44   S    
C39   C46   A    
N15   Ni3   S    
N10   Ni3   S    
C13   H13   S    
C16   C23   A    
C23   C35   S    
C55   C57   S    
C28   H26   S    
N11   N12   A    
C51   N7    A    
C14   H9    S    
C22   C24   A    
C42   H28   S    
C42   C43   A    
C40   H35   S    
N8    Ni1   S    
C54   H44   S    
C46   C47   S    
C11   C17   S    
C34   C49   A    
C50   H37   S    
C5    H53   S    
C16   H16   S    
C47   H31   S    
C14   C19   S    
C54   H42   S    
C31   C32   A    
C2    C8    A    
C58   N10   A    
C1    H1    S    
C12   C50   A    
C45   N8    A    
C59   N11   A    
C32   H22   S    
C4    H4    S    
C27   H19   S    
C30   C36   A    
C38   H27   S    
C10   C15   S    
C9    C60   A    
C32   C33   A    
C13   C15   S    
C25   C26   A    
C58   H23   S    
N6    N16   A    
C49   N5    A    
C29   H20   S    
C20   C26   A    
C60   N12   A    
C33   C35   A    
N2    N4    A    
N6    Ni4   S    
C49   H36   S    
N8    N14   A    
C1    C52   A    
N13   Ni1   S    
C47   H30   S    
N4    Ni2   S    
C10   C11   S    
C24   H17   S    
C57   H48   S    
C20   C21   A    
C48   H32   S    
N10   N13   A    
C14   H8    S    
C14   C15   S    
C19   H10   S    
C1    N1    A    
N7    Ni3   S    
C60   H45   S    
C11   H5    S    
C39   C48   S    
