data_mof_unit_50793.cif
_audit_creation_date              2012-12-10T19:15:15-0500
_audit_creation_method            fapswitch 2.2
_symmetry_space_group_name_H-M    P1
_symmetry_Int_Tables_number       1
_space_group_crystal_system       triclinic
_cell_length_a                    10.664696
_cell_length_b                    9.703788
_cell_length_c                    23.137958
_cell_angle_alpha                 90.480626
_cell_angle_beta                  90.661392
_cell_angle_gamma                 89.732503
_cell_volume                      2394.23101702

loop_
_atom_site_label
_atom_site_type_symbol
_atom_type_description
_atom_site_fract_x
_atom_site_fract_y
_atom_site_fract_z
_atom_type_partial_charge
C1    C     C_R   0.257823 0.500339 0.501425 0.894980
C2    C     C_R   0.437525 0.635983 0.123336 0.611605
C3    C     C_R   0.487445 0.415131 0.228776 -0.123903
C4    C     C_R   0.497824 0.499543 0.388875 0.868049
C5    C     C_R   0.524619 0.407859 0.286885 0.127304
C6    C     C_R   0.469599 0.500838 0.326926 -0.053259
C7    C     C_R   0.379367 0.596934 0.307962 -0.258517
C8    C     C_R   0.344560 0.603106 0.250174 -0.081861
C9    C     C_R   0.399178 0.512992 0.210582 0.241762
C10   C     C_R   0.470667 0.398050 0.766625 -0.080341
C11   C     C_R   0.496354 0.391452 0.707800 -0.172136
C12   C     C_R   0.237898 0.341629 0.967240 -0.212204
C13   C     C_R   0.469862 0.505193 0.672723 -0.071566
C14   C     C_R   0.412930 0.623091 0.696496 -0.146615
C15   C     C_R   0.384512 0.628134 0.754762 -0.096748
C16   C     C_R   0.741648 0.500060 0.507659 0.851113
C17   C     C_R   0.415281 0.516837 0.790278 0.254362
C18   C     C_3   0.076478 0.627608 0.540933 -0.413559
C19   C     C_3   0.078563 0.367075 0.535295 -0.424915
C20   C     C_3   0.933040 0.643428 0.535409 0.642818
C21   C     C_3   0.935786 0.371360 0.545786 0.627090
C22   C     C_3   0.065314 0.504058 0.443794 -0.422456
C23   C     C_R   0.233569 0.341132 0.027358 0.691253
C24   C     C_3   0.121988 0.500527 0.505254 -0.045504
C25   C     C_3   0.879285 0.500726 0.511786 -0.058345
C26   C     C_3   0.923010 0.486195 0.447598 -0.358464
C27   C     C_3   0.373429 0.082166 0.511680 0.575463
C28   C     C_3   0.374495 0.919667 0.513524 0.541930
C29   C     C_3   0.535816 0.079876 0.441646 -0.607317
C30   C     C_3   0.532092 0.917272 0.441104 -0.575357
C31   C     C_3   0.589775 0.080944 0.542103 0.491858
C32   C     C_3   0.593762 0.919115 0.540233 0.525775
C33   C     C_R   0.493909 0.500891 0.610845 0.852744
C34   C     C_R   0.301296 0.439753 0.059904 -0.109510
C35   C     C_R   0.458827 0.629713 0.881406 0.600399
C36   C     C_R   0.321619 0.435614 0.878232 0.562936
C37   C     C_R   0.310084 0.439341 0.938389 -0.049508
C38   C     C_R   0.374550 0.541662 0.970273 -0.088937
C39   C     C_R   0.447062 0.640469 0.941527 -0.241219
C40   C     C_3   0.876946 0.701411 0.592751 -0.472570
C41   C     C_3   0.918568 0.849583 0.606005 -0.657069
C42   C     C_3   0.916513 0.362434 0.612229 -0.452747
C43   C     C_3   0.781713 0.370897 0.632199 -0.790714
C44   C     C_3   0.627595 0.307235 0.303282 -0.410157
C45   C     C_R   0.369402 0.542677 0.031091 -0.161705
C46   C     C_3   0.750672 0.381769 0.315599 -0.813145
C47   C     C_R   0.435609 0.644044 0.062968 -0.229137
C48   C     C_R   0.502028 0.746761 0.033706 0.602189
C49   C     C_R   0.508172 0.744621 0.973683 0.595958
C50   C     C_R   0.307289 0.436042 0.120469 0.569234
F1    F     F_    0.909156 0.742884 0.493577 -0.661889
F2    F     F_    0.887014 0.250791 0.522007 -0.677509
F3    F     F_    0.164906 0.242065 0.053178 -0.586241
F4    F     F_    0.329501 0.136485 0.563268 -0.564370
F5    F     F_    0.337775 0.873868 0.567316 -0.582008
F6    F     F_    0.558976 0.124558 0.597297 -0.578562
F7    F     F_    0.575877 0.867500 0.595108 -0.571956
F8    F     F_    0.564196 0.848119 0.062811 -0.551827
F9    F     F_    0.575631 0.844273 0.947534 -0.551607
H1    H     H_    0.186649 0.263031 0.943443 0.222656
H2    H     H_    0.105386 0.420317 0.416345 0.174641
H3    H     H_    0.876682 0.564126 0.419378 0.211970
H4    H     H_    0.897012 0.383210 0.429774 0.212725
H5    H     H_    0.305819 0.115429 0.477485 0.002005
H6    H     H_    0.303580 0.880755 0.481824 0.013551
H7    H     H_    0.471150 0.119147 0.407477 0.221200
H8    H     H_    0.462365 0.881738 0.408156 0.218606
H9    H     H_    0.685130 0.120216 0.533339 0.108374
H10   H     H_    0.688912 0.885659 0.526867 0.079128
H11   H     H_    0.631523 0.115271 0.430440 0.236681
H12   H     H_    0.538459 0.298906 0.690041 0.227043
H13   H     H_    0.624434 0.875491 0.427264 0.249816
H14   H     H_    0.530904 0.348817 0.196767 0.156103
H15   H     H_    0.335191 0.667560 0.338122 0.155999
H16   H     H_    0.277274 0.679839 0.235857 0.160450
H17   H     H_    0.495305 0.311844 0.793984 0.176653
H18   H     H_    0.021699 0.854231 0.612761 0.257048
H19   H     H_    0.891486 0.920345 0.570524 0.287777
H20   H     H_    0.872810 0.886567 0.646160 0.256875
H21   H     H_    0.773305 0.701268 0.590818 0.250088
H22   H     H_    0.904942 0.640049 0.630558 0.186049
H23   H     H_    0.388744 0.710882 0.669919 0.240464
H24   H     H_    0.742238 0.474575 0.624915 0.202978
H25   H     H_    0.724984 0.292784 0.609167 0.325154
H26   H     H_    0.778184 0.349869 0.679243 0.258969
H27   H     H_    0.952748 0.260199 0.626387 0.258638
H28   H     H_    0.974969 0.437803 0.636307 0.172815
H29   H     H_    0.781549 0.437091 0.276446 0.279451
H30   H     H_    0.739325 0.457022 0.351432 0.236129
H31   H     H_    0.824153 0.305798 0.327985 0.254022
H32   H     H_    0.600370 0.245637 0.341014 0.222513
H33   H     H_    0.643938 0.231829 0.267674 0.228852
H34   H     H_    0.340661 0.719640 0.772658 0.173458
H35   H     H_    0.120059 0.724563 0.525740 0.251016
H36   H     H_    0.101428 0.276135 0.507540 0.244748
H37   H     H_    0.106577 0.614483 0.586807 0.140521
H38   H     H_    0.133635 0.352539 0.576084 0.183771
H39   H     H_    0.087312 0.604027 0.423000 0.213063
N1    N     N_R   0.397132 0.528075 0.851284 -0.364653
N2    N     N_R   0.377096 0.531084 0.150269 -0.373053
N3    N     N_3   0.499750 0.138610 0.498760 -0.164774
N4    N     N_3   0.499750 0.861390 0.498760 -0.166570
O1    O     O_R   0.314910 0.616040 0.499990 -0.615323
O2    O     O_2   0.258596 0.340061 0.846853 -0.534118
O3    O     O_2   0.246511 0.337192 0.149565 -0.457281
O4    O     O_2   0.502602 0.729079 0.155141 -0.457527
O5    O     O_R   0.314910 0.383960 0.499990 -0.601432
O6    O     O_R   0.500080 0.616070 0.416130 -0.625445
O7    O     O_R   0.500080 0.383930 0.416130 -0.631422
O8    O     O_R   0.685320 0.616040 0.499970 -0.599958
O9    O     O_R   0.685320 0.383960 0.499970 -0.573836
O10   O     O_R   0.500150 0.616010 0.583820 -0.538633
O11   O     O_R   0.500150 0.383990 0.583820 -0.534362
O12   O     O_2   0.533762 0.717726 0.853196 -0.452757
Zn1   Zn    Zn3+2 0.500150 0.654960 0.499970 1.006107
Zn2   Zn    Zn3+2 0.500150 0.345040 0.499970 1.009673

loop_
_geom_bond_atom_site_label_1
_geom_bond_atom_site_label_2
_ccdc_geom_bond_type
C4    O7    A    
C22   H39   S    
C18   H37   S    
O1    Zn1   S    
C19   H38   S    
C27   F4    S    
C16   O8    A    
C7    C8    A    
C46   H30   S    
C4    O6    A    
C12   C23   A    
C29   C30   S    
C18   C24   S    
C31   N3    S    
O6    Zn1   S    
C36   C37   A    
C19   C21   S    
C20   F1    S    
C41   H18   S    
C5    C6    A    
C20   C40   S    
C11   H12   S    
C20   C25   S    
C10   C17   A    
C43   H24   S    
C35   O12   S    
C12   C37   A    
C38   C45   A    
N4    Zn1   S    
O7    Zn2   S    
C10   H17   S    
C47   C48   A    
C8    C9    A    
C50   O3    S    
C40   H21   S    
O9    Zn2   S    
C42   H27   S    
C31   F6    S    
C1    O1    A    
C18   C20   S    
C30   H8    S    
C44   H33   S    
O11   Zn2   S    
C2    N2    A    
C13   C14   A    
C43   H25   S    
C32   F7    S    
C35   N1    A    
C28   F5    S    
C44   C46   S    
C23   F3    S    
C7    H15   S    
C46   H29   S    
C45   C47   A    
C31   H9    S    
C34   C50   A    
C43   H26   S    
C4    C6    S    
C27   H5    S    
C41   H19   S    
C33   O10   A    
C25   C26   S    
C27   N3    S    
C8    H16   S    
C21   C42   S    
C35   C39   A    
C26   H4    S    
C13   C33   S    
C37   C38   A    
C3    C9    A    
C31   C32   S    
C23   C34   A    
C30   N4    S    
C29   N3    S    
C34   C45   A    
C17   N1    S    
C6    C7    A    
C44   H32   S    
C1    O5    A    
C48   C49   A    
C39   C49   A    
C5    C44   S    
C9    N2    S    
C18   H35   S    
C32   N4    S    
C42   C43   S    
C14   H23   S    
C19   H36   S    
C29   H11   S    
C16   C25   S    
C15   C17   A    
C21   C25   S    
C40   C41   S    
C50   N2    A    
C40   H22   S    
C3    C5    A    
C15   H34   S    
C30   H13   S    
C48   F8    S    
C32   H10   S    
C46   H31   S    
C2    C47   A    
C33   O11   A    
C49   F9    S    
C36   O2    S    
C28   H6    S    
C26   H3    S    
C22   H2    S    
C11   C13   A    
C38   C39   A    
C2    O4    S    
C19   C24   S    
C36   N1    A    
C22   C24   S    
O10   Zn1   S    
C3    H14   S    
O5    Zn2   S    
C10   C11   A    
C29   H7    S    
C12   H1    S    
C28   N4    S    
C1    C24   S    
C22   C26   S    
C41   H20   S    
C27   C28   S    
N3    Zn2   S    
C14   C15   A    
C42   H28   S    
O8    Zn1   S    
C21   F2    S    
C16   O9    A    
