data_mof_unit_35327.cif
_audit_creation_date              2012-10-26T21:08:09-0400
_audit_creation_method            fapswitch 2.2
_symmetry_space_group_name_H-M    P1
_symmetry_Int_Tables_number       1
_space_group_crystal_system       triclinic
_cell_length_a                    15.867974
_cell_length_b                    10.896812
_cell_length_c                    9.582686
_cell_angle_alpha                 91.009688
_cell_angle_beta                  90.058891
_cell_angle_gamma                 92.65899
_cell_volume                      1654.90159852

loop_
_atom_site_label
_atom_site_type_symbol
_atom_type_description
_atom_site_fract_x
_atom_site_fract_y
_atom_site_fract_z
_atom_type_partial_charge
C1    C     C_R   0.505970 0.262907 0.499040 0.573338
C2    C     C_R   0.568029 0.073523 0.871547 -0.119502
C3    C     C_R   0.527690 0.958924 0.887063 -0.126768
C4    C     C_R   0.339896 0.499634 0.499898 0.554864
C5    C     C_R   0.496966 0.893534 0.770004 -0.093838
C6    C     C_R   0.506548 0.942149 0.634146 0.010033
C7    C     C_R   0.530614 0.067701 0.623929 -0.020961
C8    C     C_R   0.513556 0.128929 0.498045 0.025607
C9    C     C_R   0.493218 0.059997 0.375471 0.212842
C10   C     C_R   0.487494 0.932340 0.381247 -0.156327
C11   C     C_R   0.493551 0.872156 0.508293 -0.042262
C12   C     C_3   0.082890 0.500747 0.498416 0.073613
C13   C     C_R   0.613275 0.662523 0.147182 -0.089579
C14   C     C_R   0.668965 0.741003 0.076246 -0.178018
C15   C     C_R   0.669062 0.740486 0.932493 -0.168662
C16   C     C_R   0.496279 0.737640 0.502281 0.535253
C17   C     C_R   0.613144 0.661960 0.858832 -0.090149
C18   C     C_R   0.555578 0.579796 0.926706 0.143990
C19   C     C_R   0.555588 0.579886 0.076380 0.152621
C20   C     C_R   0.447492 0.423499 0.072321 0.013220
C21   C     C_R   0.447500 0.423556 0.924325 -0.001607
C22   C     C_R   0.660093 0.500427 0.500107 0.529618
C23   C     C_3   0.974989 0.599106 0.574771 -0.104731
C24   C     C_3   0.968340 0.396157 0.557189 -0.068660
C25   C     C_3   0.024437 0.403306 0.424492 -0.114668
C26   C     C_1   0.250158 0.499971 0.499642 -0.025016
C27   C     C_1   0.749815 0.500830 0.500315 -0.032837
C28   C     C_3   0.027285 0.494306 0.627639 0.134828
C29   C     C_3   0.917046 0.501125 0.500494 0.029886
C30   C     C_3   0.031134 0.605303 0.442005 -0.124469
C31   C     C_3   0.971429 0.507837 0.367730 -0.112571
C32   C     C_1   0.174598 0.500331 0.499160 -0.040122
C33   C     C_1   0.825380 0.501073 0.500454 -0.062637
C34   C     C_R   0.569637 0.127976 0.741185 -0.095165
Cu1   Cu    Cu3+1 0.499990 0.499990 0.640660 0.912411
Cu2   Cu    Cu3+1 0.500010 0.500010 0.359340 0.958009
H1    H     H_    0.045742 0.323611 0.362372 0.109421
H2    H     H_    0.404515 0.360852 0.867640 0.129183
H3    H     H_    0.941972 0.311345 0.606499 0.109560
H4    H     H_    0.946784 0.513505 0.259684 0.114109
H5    H     H_    0.057930 0.690514 0.394127 0.108435
H6    H     H_    0.954067 0.678223 0.638281 0.100934
H7    H     H_    0.602625 0.216620 0.733270 0.146221
H8    H     H_    0.595767 0.121927 0.961221 0.136426
H9    H     H_    0.007398 0.486205 0.836461 0.221549
H10   H     H_    0.095486 0.566770 0.791048 0.227838
H11   H     H_    0.463764 0.056607 0.177177 0.309664
H12   H     H_    0.521839 0.919098 0.989502 0.113616
H13   H     H_    0.462952 0.807900 0.790184 0.154204
H14   H     H_    0.476407 0.879889 0.285315 0.125364
H15   H     H_    0.404507 0.360783 0.126334 0.143462
H16   H     H_    0.618635 0.671045 0.257264 0.183723
H17   H     H_    0.712206 0.803055 0.133580 0.120541
H18   H     H_    0.712086 0.802506 0.877313 0.124253
H19   H     H_    0.617168 0.671101 0.749024 0.187756
N1    N     N_R   0.500800 0.501210 0.147910 -0.244830
N2    N     N_R   0.500830 0.501290 0.852040 -0.251321
N3    N     N_3   0.059304 0.486079 0.769439 -0.627127
O1    O     O_R   0.499990 0.319640 0.618810 -0.525261
O2    O     O_R   0.500000 0.319660 0.381240 -0.425640
O3    O     O_R   0.379070 0.499980 0.618770 -0.493203
O4    O     O_R   0.379080 0.500000 0.381190 -0.497306
O5    O     O_R   0.500000 0.680340 0.618760 -0.535514
O6    O     O_R   0.500010 0.680360 0.381190 -0.528292
O7    O     O_R   0.620920 0.500000 0.618810 -0.522670
O8    O     O_R   0.620930 0.500020 0.381230 -0.514536
O9    O     O_3   0.479670 0.118353 0.250911 -0.692144

loop_
_geom_bond_atom_site_label_1
_geom_bond_atom_site_label_2
_ccdc_geom_bond_type
C19   N1    A    
C25   C31   S    
C4    C26   S    
C24   C25   S    
C9    O9    S    
C30   H5    S    
C21   N2    A    
C6    C7    A    
Cu2   N1    S    
C16   O5    A    
C28   N3    S    
H10   N3    S    
C1    C8    S    
Cu1   O1    S    
C9    C10   A    
C17   H19   S    
C18   N2    A    
Cu1   Cu2   S    
C14   C15   A    
Cu1   N2    S    
C12   C25   S    
C20   N1    A    
C4    O4    A    
C25   H1    S    
C20   C21   A    
C17   C18   A    
C3    C5    A    
C7    C8    A    
C22   O7    A    
Cu2   O6    S    
C23   C28   S    
C12   C32   S    
C26   C32   T    
C5    H13   S    
C14   H17   S    
C30   C31   S    
C23   H6    S    
Cu1   O3    S    
Cu2   O4    S    
C23   C29   S    
H11   O9    S    
C12   C28   S    
C2    C3    A    
C20   H15   S    
C22   C27   S    
C1    O1    A    
C34   H7    S    
C5    C6    A    
C7    C34   A    
Cu2   O8    S    
H9    N3    S    
C10   C11   A    
Cu1   O7    S    
C13   H16   S    
C23   C30   S    
C29   C33   S    
C3    H12   S    
C24   H3    S    
C31   H4    S    
C29   C31   S    
C18   C19   A    
C11   C16   S    
C1    O2    A    
C6    C11   A    
C15   C17   A    
C13   C19   A    
C24   C29   S    
C22   O8    A    
Cu1   O5    S    
C16   O6    A    
C12   C30   S    
C2    C34   A    
C13   C14   A    
C15   H18   S    
C4    O3    A    
C27   C33   T    
C21   H2    S    
C24   C28   S    
C2    H8    S    
C8    C9    A    
Cu2   O2    S    
C10   H14   S    
