data_mof_unit_33812.cif
_audit_creation_date              2012-12-11T16:53:24-0500
_audit_creation_method            fapswitch 2.2
_symmetry_space_group_name_H-M    P1
_symmetry_Int_Tables_number       1
_space_group_crystal_system       triclinic
_cell_length_a                    14.87674
_cell_length_b                    14.8061
_cell_length_c                    17.043505
_cell_angle_alpha                 109.130934
_cell_angle_beta                  106.012953
_cell_angle_gamma                 108.126596
_cell_volume                      3057.81912547

loop_
_atom_site_label
_atom_site_type_symbol
_atom_type_description
_atom_site_fract_x
_atom_site_fract_y
_atom_site_fract_z
_atom_type_partial_charge
C1    C     C_R   0.089993 0.275385 0.049661 -0.101728
C2    C     C_R   0.063244 0.550423 0.263808 -0.100624
C3    C     C_R   0.277924 0.786802 0.178280 -0.067977
C4    C     C_R   0.935598 0.513505 0.744364 -0.218693
C5    C     C_R   0.698566 0.407149 0.997477 -0.137565
C6    C     C_R   0.333627 0.783304 0.256060 0.042400
C7    C     C_R   0.639481 0.439207 0.944781 0.078508
C8    C     C_R   0.970629 0.537704 0.273238 0.051870
C9    C     C_R   0.989346 0.824168 0.031657 0.136083
C10   C     C_R   0.387910 0.451715 0.867197 0.104844
C11   C     C_R   0.344970 0.411365 0.919044 0.044732
C12   C     C_R   0.026458 0.571230 0.740952 -0.107396
C13   C     C_R   0.377016 0.341248 0.944107 -0.180809
C14   C     C_R   0.468825 0.337877 0.941226 -0.207845
C15   C     C_R   0.527152 0.403349 0.911784 0.039125
C16   C     C_R   0.768699 0.200454 0.810964 -0.126651
C17   C     C_R   0.478064 0.447526 0.863506 0.169587
C18   C     C_3   0.518702 0.554286 0.864881 -0.544984
C19   C     C_3   0.420412 0.559063 0.868963 -0.410420
C20   C     C_R   0.962454 0.582938 0.360188 0.122908
C21   C     C_R   0.033696 0.600801 0.667867 0.169795
C22   C     C_R   0.137398 0.654977 0.589878 -0.240007
C23   C     C_R   0.751966 0.194829 0.724832 0.055341
C24   C     C_R   0.128061 0.628987 0.658766 -0.065726
C25   C     C_R   0.945432 0.591569 0.601989 -0.280133
C26   C     C_R   0.950971 0.603232 0.525161 0.169744
C27   C     C_R   0.048401 0.637448 0.520712 0.174459
C28   C     C_R   0.251014 0.526353 0.942958 -0.091817
C29   C     C_R   0.053680 0.637002 0.441028 -0.252201
C30   C     C_R   0.865413 0.556463 0.365061 -0.160680
C31   C     C_R   0.860183 0.570432 0.448613 -0.207029
C32   C     C_R   0.709547 0.098707 0.638467 0.128657
C33   C     C_R   0.441353 0.857326 0.322856 0.119809
C34   C     C_R   0.285147 0.455715 0.960502 0.025726
C35   C     C_R   0.585354 0.033229 0.395774 -0.198962
C36   C     C_R   0.494170 0.952917 0.320896 -0.145212
C37   C     C_R   0.488087 0.837790 0.395075 -0.267375
C38   C     C_R   0.575228 0.919833 0.472366 0.184718
C39   C     C_R   0.621355 0.019731 0.474077 0.173407
C40   C     C_R   0.778350 0.297607 0.734958 -0.118616
C41   C     C_R   0.692694 0.107671 0.556808 -0.264888
C42   C     C_R   0.674116 0.997230 0.635148 -0.167726
C43   C     C_R   0.608366 0.907495 0.551732 -0.216408
C44   C     C_R   0.102174 0.060370 0.991510 -0.036775
C45   C     C_R   0.272644 0.689136 0.252807 -0.146957
C46   C     C_R   0.009096 0.070334 0.967879 0.101184
C47   C     C_R   0.918972 0.975770 0.898692 -0.178358
C48   C     C_R   0.926196 0.881000 0.852560 -0.224288
C49   C     C_R   0.023143 0.877832 0.873037 0.166409
C50   C     C_R   0.108308 0.969800 0.943892 -0.154895
C51   C     C_3   0.224687 0.019511 0.989362 0.390242
C52   C     C_R   0.256795 0.440248 0.027881 -0.129464
C53   C     C_3   0.218674 0.122364 0.043877 0.181628
C54   C     C_R   0.107908 0.604565 0.823923 0.460561
C55   C     C_R   0.917740 0.191744 0.974545 -0.136324
C56   C     C_R   0.704383 0.500561 0.918994 -0.145160
C57   C     C_R   0.005751 0.174811 0.000379 0.069182
C58   C     C_3   0.227246 0.035723 0.854367 0.342458
C59   C     C_3   0.295431 0.046208 0.802718 -0.830009
C60   C     C_R   0.889446 0.466098 0.187359 -0.119475
C61   C     C_R   0.078980 0.808216 0.048744 -0.046424
C62   C     C_R   0.906742 0.723731 0.971270 -0.180512
H1    H     H_    0.168689 0.292939 0.088361 0.131324
H2    H     H_    0.499539 0.295261 0.973020 0.141120
H3    H     H_    0.589427 0.616029 0.928289 0.206561
H4    H     H_    0.856936 0.490107 0.698550 0.124312
H5    H     H_    0.523774 0.548859 0.799746 0.198823
H6    H     H_    0.436433 0.623796 0.934685 0.225529
H7    H     H_    0.368966 0.556115 0.805974 0.214409
H8    H     H_    0.129640 0.664189 0.440436 0.117757
H9    H     H_    0.793538 0.518783 0.304121 0.123257
H10   H     H_    0.211590 0.676418 0.584976 0.138728
H11   H     H_    0.784649 0.544642 0.450725 0.134780
H12   H     H_    0.681295 0.522679 0.865011 0.104091
H13   H     H_    0.193945 0.625769 0.701694 0.172683
H14   H     H_    0.871097 0.567191 0.606177 0.124725
H15   H     H_    0.724605 0.184315 0.557396 0.120482
H16   H     H_    0.749575 0.134328 0.826578 0.089872
H17   H     H_    0.690630 0.987059 0.696704 0.115981
H18   H     H_    0.621317 0.109145 0.395798 0.142021
H19   H     H_    0.575369 0.830561 0.550818 0.130183
H20   H     H_    0.462296 0.969171 0.264826 0.139738
H21   H     H_    0.451405 0.763342 0.396644 0.119853
H22   H     H_    0.843420 0.975491 0.876352 0.120426
H23   H     H_    0.806978 0.438099 0.169365 0.100466
H24   H     H_    0.856777 0.811101 0.798629 0.130990
H25   H     H_    0.252151 0.981691 0.031229 0.132376
H26   H     H_    0.253846 0.550899 0.890839 0.144101
H27   H     H_    0.253054 0.189635 0.029435 0.013610
H28   H     H_    0.772754 0.323908 0.682744 0.098179
H29   H     H_    0.277307 0.395214 0.061746 0.087526
H30   H     H_    0.838226 0.132991 0.946455 0.094205
H31   H     H_    0.295772 0.651790 0.294289 0.099464
H32   H     H_    0.209084 0.105165 0.871337 0.047978
H33   H     H_    0.154380 0.961122 0.807356 0.120399
H34   H     H_    0.157665 0.869200 0.093115 0.139675
H35   H     H_    0.307434 0.973344 0.778656 0.271222
H36   H     H_    0.257167 0.056461 0.742526 0.200379
H37   H     H_    0.372413 0.115940 0.847864 0.250055
H38   H     H_    0.332533 0.328681 0.216713 0.328678
H39   H     H_    0.327117 0.844943 0.017368 0.369264
H40   H     H_    0.825207 0.705868 0.943383 0.116722
H41   H     H_    0.141964 0.599766 0.315373 0.095793
H42   H     H_    0.306985 0.843669 0.154417 0.125960
H43   H     H_    0.670235 0.345674 0.017496 0.097072
H44   H     H_    0.340833 0.300961 0.977582 0.128412
N1    N     N_R   0.055640 0.348550 0.045600 -0.048217
N2    N     N_R   0.811290 0.303400 0.871650 -0.040919
N3    N     N_R   0.205180 0.552990 0.997660 -0.025746
N4    N     N_R   0.814810 0.361830 0.823710 -0.040611
N5    N     N_R   0.201660 0.494570 0.045600 -0.047677
N6    N     N_R   0.068420 0.560530 0.871650 -0.091419
N7    N     N_R   0.948050 0.295860 0.997660 -0.042650
N8    N     N_R   0.185190 0.638170 0.176290 -0.049606
N9    N     N_R   0.798340 0.505430 0.954400 -0.039422
N10   N     N_R   0.931580 0.439470 0.128350 -0.042083
N11   N     N_R   0.051950 0.704140 0.002340 -0.030825
N12   N     N_R   0.944360 0.651450 0.954400 -0.048829
N13   N     N_R   0.039170 0.492150 0.176290 -0.041802
N14   N     N_R   0.188710 0.696600 0.128350 -0.035716
N15   N     N_R   0.794820 0.447010 0.002340 -0.041859
N16   N     N_R   0.960830 0.507850 0.823710 -0.064725
Ni1   Ni    Ni4+2 0.119330 0.493420 0.109950 0.226808
Ni2   Ni    Ni4+2 0.880670 0.506580 0.890050 0.205329
Ni3   Ni    Ni4+2 0.872590 0.372590 0.000000 0.218095
Ni4   Ni    Ni4+2 0.127410 0.627410 0.000000 0.305726
O1    O     O_3   0.280893 0.031106 0.934677 -0.592138
O2    O     O_2   0.184621 0.078972 0.178577 -0.267939
O3    O     O_2   0.365634 0.156032 0.199062 -0.302289
O4    O     O_3   0.274803 0.280053 0.222873 -0.505799
O5    O     O_2   0.310433 0.708708 0.859625 -0.362197
O6    O     O_2   0.202563 0.802787 0.845119 -0.294172
O7    O     O_3   0.260836 0.780417 0.992297 -0.589261
S1    S     S_3+6 0.261925 0.157488 0.163747 -0.038315
S2    S     S_3+6 0.223168 0.726392 0.879017 -0.094192

loop_
_geom_bond_atom_site_label_1
_geom_bond_atom_site_label_2
_ccdc_geom_bond_type
C3    H42   S    
N9    N15   A    
C6    C45   A    
C27   C29   A    
C59   H37   S    
C35   C36   A    
N1    Ni1   S    
C3    C6    A    
C45   H31   S    
C30   H9    S    
C61   H34   S    
C39   C41   A    
C5    H43   S    
C1    C57   A    
C18   H3    S    
N15   Ni3   S    
C26   C27   A    
C8    C20   S    
C58   O1    S    
C9    C61   A    
C37   C38   A    
O5    S2    D    
N3    N5    A    
C41   H15   S    
C30   C31   A    
H38   O4    S    
C31   H11   S    
N7    Ni3   S    
C10   C17   A    
C23   C40   A    
C5    N15   A    
C35   H18   S    
C33   C36   A    
C18   C19   S    
N1    N7    A    
N4    Ni2   S    
C45   N8    A    
C36   H20   S    
C28   H26   S    
C32   C41   A    
N2    Ni3   S    
C4    C12   A    
N11   Ni4   S    
N6    Ni4   S    
C7    C15   S    
C28   C34   A    
C42   H17   S    
C12   C54   A    
C13   C14   A    
O4    S1    S    
C7    C56   A    
C1    H1    S    
C22   H10   S    
C44   C46   A    
C50   C51   S    
C20   C29   A    
C56   H12   S    
C54   N6    A    
C9    C62   A    
C3    N14   A    
C51   H25   S    
C5    C7    A    
C48   H24   S    
C20   C30   A    
C55   N7    A    
C52   N5    A    
C18   H5    S    
C61   N11   A    
C12   C21   S    
C33   C37   A    
C51   C53   S    
C35   C39   A    
C58   H33   S    
N6    N16   A    
C55   H30   S    
O2    S1    D    
C47   C48   A    
C10   C19   S    
C60   H23   S    
C14   H2    S    
C17   C18   S    
C44   C53   S    
C4    N16   A    
C19   H6    S    
N12   Ni2   S    
C47   H22   S    
N14   Ni4   S    
C1    N1    A    
N8    Ni1   S    
C48   C49   A    
C16   C23   A    
H39   O7    S    
C22   C27   A    
C55   C57   A    
C46   C57   S    
C53   H27   S    
C43   H19   S    
C22   C24   A    
C60   N10   A    
C42   C43   A    
N16   Ni2   S    
C29   H8    S    
C44   C50   A    
C15   C17   A    
N5    Ni1   S    
C21   C25   A    
C46   C47   A    
N9    Ni2   S    
C11   C34   S    
C2    C8    A    
C53   S1    S    
C13   H44   S    
C40   N4    A    
C2    N13   A    
C6    C33   S    
C24   H13   S    
N13   Ni1   S    
C28   N3    A    
C34   C52   A    
N10   N13   A    
N10   Ni3   S    
C25   H14   S    
C51   O1    S    
C23   C32   S    
C25   C26   A    
C38   C43   A    
N11   N12   A    
C8    C60   A    
C4    H4    S    
C11   C13   A    
C38   C39   A    
C2    H41   S    
O6    S2    D    
C59   H35   S    
C54   S2    S    
C56   N9    A    
N2    N4    A    
C16   H16   S    
C58   H32   S    
C58   C59   S    
C62   N12   A    
C19   H7    S    
C10   C11   A    
C16   N2    A    
O3    S1    D    
N3    Ni4   S    
C26   C31   A    
C49   C50   A    
C21   C24   A    
O7    S2    S    
C59   H36   S    
C32   C42   A    
C14   C15   A    
C37   H21   S    
C52   H29   S    
C40   H28   S    
N8    N14   A    
C62   H40   S    
