data_mof_unit_31202.cif
_audit_creation_date              2012-12-10T18:23:17-0500
_audit_creation_method            fapswitch 2.2
_symmetry_space_group_name_H-M    P1
_symmetry_Int_Tables_number       1
_space_group_crystal_system       triclinic
_cell_length_a                    27.813807
_cell_length_b                    10.655472
_cell_length_c                    9.399734
_cell_angle_alpha                 90.550172
_cell_angle_beta                  89.460445
_cell_angle_gamma                 89.756264
_cell_volume                      2785.51380023

loop_
_atom_site_label
_atom_site_type_symbol
_atom_type_description
_atom_site_fract_x
_atom_site_fract_y
_atom_site_fract_z
_atom_type_partial_charge
C1    C     C_R   0.501060 0.259816 0.499159 0.884918
C2    C     C_R   0.498762 0.740124 0.500880 0.903747
C3    C     C_R   0.101847 0.517011 0.510451 -0.043849
C4    C     C_R   0.897952 0.499899 0.490622 -0.045653
C5    C     C_R   0.127945 0.406562 0.540025 -0.013309
C6    C     C_R   0.871228 0.612170 0.480073 -0.021857
C7    C     C_R   0.103499 0.295447 0.568970 -0.106868
C8    C     C_R   0.895009 0.726893 0.472083 -0.105971
C9    C     C_R   0.126964 0.630078 0.484572 -0.075024
C10   C     C_R   0.873492 0.383584 0.497450 -0.083766
C11   C     C_R   0.354583 0.504028 0.503713 -0.032879
C12   C     C_R   0.645448 0.497612 0.496242 -0.049900
C13   C     C_R   0.975676 0.392431 0.512025 0.031030
C14   C     C_R   0.024320 0.625009 0.481503 0.033520
C15   C     C_R   0.973090 0.621762 0.483061 0.048316
C16   C     C_R   0.026414 0.397843 0.526756 0.052231
C17   C     C_R   0.949065 0.504634 0.495005 0.076782
C18   C     C_R   0.050705 0.513479 0.506375 0.076356
C19   C     C_R   0.950848 0.277243 0.508923 -0.232725
C20   C     C_R   0.050113 0.736839 0.457522 -0.235892
C21   C     C_R   0.900839 0.271156 0.499446 0.000612
C22   C     C_R   0.100254 0.741639 0.462505 -0.001583
C23   C     C_R   0.407506 0.500413 0.500767 0.840050
C24   C     C_R   0.592499 0.499449 0.499229 0.872587
C25   C     C_R   0.053801 0.291091 0.563338 -0.177993
C26   C     C_R   0.944770 0.731987 0.473845 -0.172864
C27   C     C_3   0.538319 0.039417 0.573709 -0.086158
C28   C     C_3   0.461476 0.960346 0.426319 -0.109459
C29   C     C_3   0.540155 0.953119 0.440783 -0.120757
C30   C     C_3   0.459686 0.046587 0.559511 -0.125572
C31   C     C_3   0.498217 0.876344 0.502491 -0.196135
C32   C     C_3   0.501576 0.123529 0.497704 -0.194718
C33   C     C_3   0.496387 0.962033 0.635538 -0.084459
C34   C     C_3   0.503489 0.037771 0.364382 -0.107113
C35   C     C_3   0.495381 0.612825 0.051792 -0.013982
C36   C     C_3   0.504612 0.387196 0.948178 -0.002028
C37   C     C_3   0.460291 0.546392 0.950962 -0.053932
C38   C     C_3   0.539707 0.453625 0.049009 -0.059888
C39   C     C_3   0.535118 0.566418 0.949202 -0.013310
C40   C     C_3   0.464877 0.433595 0.050773 -0.013443
C41   C     C_R   0.178226 0.409415 0.541336 0.582746
C42   C     C_R   0.820957 0.607698 0.478497 0.589100
C43   C     C_R   0.177888 0.625504 0.478071 0.546902
C44   C     C_R   0.822578 0.385341 0.504102 0.614122
C45   C     C_R   0.278591 0.520644 0.381227 -0.045191
C46   C     C_R   0.721521 0.497363 0.619111 -0.094906
C47   C     C_R   0.328606 0.514343 0.377186 -0.182159
C48   C     C_R   0.671505 0.499055 0.623094 -0.164503
C49   C     C_R   0.329688 0.499765 0.634327 -0.204402
C50   C     C_R   0.670255 0.493878 0.365316 -0.246790
C51   C     C_R   0.279440 0.507914 0.639838 -0.071747
C52   C     C_R   0.720673 0.491526 0.359314 0.002748
C53   C     C_R   0.253690 0.517596 0.511470 0.254848
C54   C     C_R   0.746348 0.493845 0.488801 0.281936
Cu1   Cu    Cu3+1 0.500010 0.499990 0.643150 1.007710
Cu2   Cu    Cu3+1 0.499990 0.500010 0.356850 0.995334
H1    H     H_    0.491650 0.707890 0.100010 0.156841
H2    H     H_    0.508304 0.292208 0.899780 0.172954
H3    H     H_    0.564562 0.622495 0.901311 0.159504
H4    H     H_    0.435437 0.377463 0.098600 0.152096
H5    H     H_    0.122742 0.210526 0.596166 0.190568
H6    H     H_    0.875129 0.814204 0.465031 0.207461
H7    H     H_    0.969908 0.188907 0.505186 0.154033
H8    H     H_    0.032176 0.824101 0.435570 0.154000
N1    N     N_R   0.202027 0.517743 0.511157 -0.477132
N2    N     N_R   0.797889 0.495595 0.490129 -0.456971
N3    N     N_3   0.500040 0.499970 0.858290 -0.171631
N4    N     N_3   0.499960 0.500030 0.141710 -0.172494
O1    O     O_R   0.500020 0.316850 0.620870 -0.543624
O2    O     O_R   0.499980 0.683150 0.379130 -0.572008
O3    O     O_R   0.500000 0.316860 0.379090 -0.580905
O4    O     O_R   0.500000 0.683140 0.620910 -0.572482
O5    O     O_R   0.430270 0.500020 0.620880 -0.587544
O6    O     O_R   0.569730 0.499980 0.379120 -0.591322
O7    O     O_R   0.430250 0.500030 0.379090 -0.576217
O8    O     O_R   0.569750 0.499970 0.620910 -0.572580
O9    O     O_2   0.203317 0.304112 0.570362 -0.501660
O10   O     O_2   0.795148 0.714586 0.466197 -0.516076
O11   O     O_2   0.797653 0.279166 0.527413 -0.486973
O12   O     O_2   0.203385 0.726466 0.437233 -0.486132
H9    H     H_    0.349376 0.492013 0.732857 0.167581
H10   H     H_    0.650113 0.492070 0.267284 0.201315
C55   C     C_2   0.582062 0.082136 0.653113 0.912002
O13   O     O_2   0.608047 0.004525 0.709046 -0.500236
O14   O     O_R   0.593212 0.209631 0.661760 -0.775923
H11   H     H_    0.623516 0.226229 0.717868 0.338131
C56   C     C_2   0.418077 0.917322 0.345421 0.942006
O15   O     O_2   0.392498 0.994700 0.287487 -0.511285
O16   O     O_R   0.406810 0.789879 0.337499 -0.774761
H12   H     H_    0.376810 0.773150 0.280040 0.336174
C57   C     C_2   0.489871 0.918994 0.786071 0.934218
O17   O     O_2   0.521765 0.934930 0.872748 -0.553928
O18   O     O_R   0.446864 0.861420 0.826129 -0.741613
H13   H     H_    0.445801 0.840069 0.930910 0.334170
C58   C     C_2   0.509627 0.081864 0.214030 0.949152
O19   O     O_2   0.478372 0.061884 0.126370 -0.566949
O20   O     O_R   0.551541 0.145243 0.175287 -0.716461
H14   H     H_    0.552825 0.165166 0.070176 0.333961
H15   H     H_    0.426904 0.585535 0.904804 0.146197
H16   H     H_    0.573116 0.414575 0.095121 0.155246
C59   C     C_2   0.254833 0.504408 0.780721 0.911557
O21   O     O_2   0.267994 0.428713 0.869109 -0.519479
O22   O     O_R   0.217484 0.587425 0.816426 -0.706995
H17   H     H_    0.213550 0.657375 0.745384 0.322599
C60   C     C_2   0.744964 0.486402 0.217124 0.900395
O23   O     O_2   0.788300 0.468539 0.206618 -0.569311
O24   O     O_R   0.717873 0.501016 0.093617 -0.766743
H18   H     H_    0.738191 0.495344 0.003635 0.339927
H19   H     H_    0.653299 0.501841 0.725454 0.170036
H20   H     H_    0.346880 0.517640 0.275036 0.165036
H21   H     H_    0.741267 0.499392 0.717840 0.146938
H22   H     H_    0.258955 0.526927 0.282582 0.175268
C61   C     C_2   0.879598 0.144626 0.481840 0.923468
O25   O     O_2   0.890344 0.060918 0.563935 -0.602043
O26   O     O_R   0.849225 0.119608 0.367381 -0.690111
H23   H     H_    0.837584 0.029571 0.365757 0.352425
C62   C     C_2   0.122389 0.867785 0.454251 0.927568
O27   O     O_2   0.112371 0.937427 0.356094 -0.571522
O28   O     O_R   0.152735 0.909254 0.562618 -0.704841
H24   H     H_    0.165241 0.997137 0.545701 0.359281
H25   H     H_    0.037815 0.202789 0.591913 0.153437
H26   H     H_    0.959612 0.824989 0.470933 0.159359
C63   C     C_2   0.585036 0.894027 0.379300 0.883313
O29   O     O_2   0.596114 0.910729 0.254877 -0.531763
O30   O     O_R   0.613561 0.818235 0.465122 -0.739575
H27   H     H_    0.642613 0.782854 0.412307 0.347441
C64   C     C_2   0.415845 0.102757 0.630561 0.893781
O31   O     O_2   0.375907 0.082518 0.582728 -0.527583
O32   O     O_R   0.421138 0.177684 0.752164 -0.745814
H28   H     H_    0.389300 0.211201 0.790094 0.348435

loop_
_geom_bond_atom_site_label_1
_geom_bond_atom_site_label_2
_ccdc_geom_bond_type
C22   C62   S    
Cu1   Cu2   S    
C59   O21   D    
C40   H4    S    
C27   C29   S    
C8    C26   A    
C14   C18   A    
C11   C47   A    
C58   O19   D    
C12   C48   A    
C28   C31   S    
O20   H14   S    
C36   N3    S    
C63   O29   D    
O14   H11   S    
C27   C33   S    
C60   O24   S    
C1    O3    A    
C11   C49   A    
C35   C37   S    
C61   O25   D    
C37   C40   S    
C36   H2    S    
C62   O28   S    
C41   O9    S    
C38   C39   S    
C9    C22   A    
C63   O30   S    
O26   H23   S    
C37   N3    S    
C3    C18   A    
C49   H9    S    
C11   C23   S    
C7    H5    S    
C44   N2    A    
C19   H7    S    
C49   C51   A    
C50   C52   A    
O24   H18   S    
C31   C33   S    
C53   N1    S    
Cu1   O4    S    
C48   H19   S    
C9    C43   A    
C28   C34   S    
C59   O22   S    
Cu2   O7    S    
C46   H21   S    
C23   O5    A    
C2    O4    A    
C52   C54   A    
C45   C47   A    
C10   C21   A    
C46   C48   A    
C45   H22   S    
Cu2   O6    S    
C13   C19   A    
C10   C44   A    
C14   C20   A    
C36   C40   S    
C34   C58   S    
C38   H16   S    
C23   O7    A    
C57   O17   D    
C5    C7    A    
C24   O8    A    
C15   C26   A    
C41   N1    A    
C43   O12   S    
Cu2   N4    S    
C29   C34   S    
C1    C32   S    
C1    O1    A    
C2    C31   S    
C51   C53   A    
C32   C34   S    
C20   H8    S    
C35   C39   S    
C64   O32   S    
C3    C9    A    
C57   O18   S    
Cu1   N3    S    
C55   O13   D    
C43   N1    A    
Cu2   O3    S    
C39   H3    S    
C46   C54   A    
C28   C56   S    
O18   H13   S    
Cu1   O1    S    
C4    C17   A    
C6    C8    A    
C21   C61   S    
C55   O14   S    
C38   N4    S    
C52   C60   S    
C42   O10   S    
Cu2   O2    S    
C56   O16   S    
C40   N4    S    
O30   H27   S    
C4    C6    A    
Cu1   O8    S    
C4    C10   A    
C64   O31   D    
C37   H15   S    
C50   H10   S    
O32   H28   S    
C16   C25   A    
C15   C17   A    
C5    C41   A    
C30   C64   S    
C30   C33   S    
C19   C21   A    
C27   C32   S    
C39   N3    S    
C44   O11   S    
C20   C22   A    
C3    C5    A    
C12   C50   A    
O28   H24   S    
C58   O20   S    
C54   N2    S    
C51   C59   S    
C47   H20   S    
C60   O23   D    
C12   C24   S    
C7    C25   A    
C13   C17   A    
C35   H1    S    
C36   C38   S    
C29   C31   S    
C62   O27   D    
C30   C32   S    
C24   O6    A    
C35   N4    S    
C29   C63   S    
C28   C30   S    
C45   C53   A    
C27   C55   S    
Cu1   O5    S    
C56   O15   D    
C16   C18   A    
C6    C42   A    
C13   C16   A    
O22   H17   S    
C42   N2    A    
C14   C15   A    
C26   H26   S    
O16   H12   S    
C2    O2    A    
C25   H25   S    
C8    H6    S    
C61   O26   S    
C33   C57   S    
