data_mof_unit_49872.cif
_audit_creation_date              2012-12-10T17:22:11-0500
_audit_creation_method            fapswitch 2.2
_symmetry_space_group_name_H-M    P1
_symmetry_Int_Tables_number       1
_space_group_crystal_system       triclinic
_cell_length_a                    10.137393
_cell_length_b                    10.449746
_cell_length_c                    15.744499
_cell_angle_alpha                 89.817719
_cell_angle_beta                  82.585085
_cell_angle_gamma                 94.832222
_cell_volume                      1647.87224048

loop_
_atom_site_label
_atom_site_type_symbol
_atom_type_description
_atom_site_fract_x
_atom_site_fract_y
_atom_site_fract_z
_atom_type_partial_charge
C1    C     C_R   0.555196 0.735140 0.491244 0.937640
C2    C     C_2   0.499189 0.931902 0.431343 0.605084
C3    C     C_2   0.414889 0.126224 0.496366 -0.097501
C4    C     C_R   0.501702 0.499797 0.661473 0.881140
C5    C     C_2   0.493821 0.070282 0.434249 -0.251946
C6    C     C_2   0.927782 0.510799 0.507543 -0.118101
C7    C     C_2   0.071973 0.488084 0.493171 -0.121523
C8    C     C_R   0.444431 0.264588 0.504568 0.896204
C9    C     C_R   0.498212 0.499806 0.338514 0.918492
C10   C     C_3   0.388160 0.578188 0.959285 -0.226002
C11   C     C_3   0.637734 0.566855 0.940520 0.463635
C12   C     C_3   0.371615 0.557845 0.057866 -0.494757
C13   C     C_3   0.625078 0.583269 0.039461 -0.131198
C14   C     C_1   0.493878 0.499595 0.250110 -0.187101
C15   C     C_3   0.504588 0.499700 0.916650 0.070731
C16   C     C_3   0.253700 0.567512 0.921011 -0.367137
C17   C     C_3   0.188033 0.431279 0.912014 -0.416938
C18   C     C_3   0.051753 0.435575 0.881417 -0.735996
C19   C     C_3   0.311727 0.047058 0.558866 -0.405919
C20   C     C_3   0.234653 0.125087 0.628316 -0.344164
C21   C     C_3   0.146614 0.037124 0.694059 -0.883400
C22   C     C_3   0.697938 0.944304 0.513620 -0.498277
C23   C     C_3   0.497764 0.499694 0.083137 0.172077
C24   C     C_3   0.814328 0.987354 0.444557 -0.299360
C25   C     C_3   0.928422 0.059924 0.483651 -0.863581
C26   C     C_3   0.758645 0.578232 0.078220 -0.331997
C27   C     C_3   0.803835 0.444333 0.093820 -0.271321
C28   C     C_3   0.940650 0.454504 0.125303 -0.940330
C29   C     C_3   0.493687 0.359865 0.050127 -0.465468
C30   C     C_3   0.490100 0.359205 0.952578 0.552230
C31   C     C_1   0.492892 0.499489 0.174932 -0.034480
C32   C     C_1   0.507881 0.499364 0.824930 0.021643
C33   C     C_1   0.506109 0.499436 0.749840 -0.174468
C34   C     C_2   0.584052 0.872741 0.474851 -0.232776
F1    F     F_    0.403229 0.863376 0.393164 -0.660467
F2    F     F_    0.744478 0.498018 0.910197 -0.640591
F3    F     F_    0.590798 0.289257 0.913227 -0.623430
H1    H     H_    0.357828 0.651625 0.089812 0.190586
H2    H     H_    0.657201 0.663611 0.909262 0.040422
H3    H     H_    0.602274 0.685037 0.050239 0.092844
H4    H     H_    0.395211 0.307548 0.939941 0.053346
H5    H     H_    0.403005 0.302984 0.082314 0.134808
H6    H     H_    0.987682 0.494040 0.925342 0.296375
H7    H     H_    0.063003 0.478362 0.815919 0.258047
H8    H     H_    0.002515 0.336718 0.879954 0.264686
H9    H     H_    0.250070 0.378171 0.863251 0.226531
H10   H     H_    0.175297 0.378837 0.974368 0.222984
H11   H     H_    0.182751 0.624518 0.961671 0.206598
H12   H     H_    0.280788 0.493129 0.080006 0.205059
H13   H     H_    0.270033 0.614755 0.856640 0.203065
H14   H     H_    0.074365 0.974255 0.662342 0.258435
H15   H     H_    0.208932 0.976390 0.727696 0.260768
H16   H     H_    0.090113 0.096155 0.742193 0.260883
H17   H     H_    0.305741 0.186006 0.662372 0.223971
H18   H     H_    0.169671 0.187649 0.598322 0.248172
H19   H     H_    0.238895 0.993989 0.521854 0.243459
H20   H     H_    0.364161 0.975312 0.591125 0.209566
H21   H     H_    0.893655 0.146941 0.516902 0.265069
H22   H     H_    0.967211 0.997112 0.529987 0.262060
H23   H     H_    0.579415 0.309758 0.065829 0.204954
H24   H     H_    0.010981 0.090221 0.432319 0.247182
H25   H     H_    0.852109 0.901754 0.410863 0.233821
H26   H     H_    0.780426 0.051048 0.396644 0.210959
H27   H     H_    0.661734 0.028444 0.549800 0.228866
H28   H     H_    0.734854 0.880641 0.560507 0.213954
H29   H     H_    0.015872 0.509775 0.078793 0.266168
H30   H     H_    0.935353 0.503027 0.188189 0.271451
H31   H     H_    0.973393 0.356862 0.133075 0.253114
H32   H     H_    0.732798 0.392253 0.144281 0.211386
H33   H     H_    0.809412 0.387578 0.034262 0.285437
H34   H     H_    0.566069 0.127569 0.389464 0.128575
H35   H     H_    0.838706 0.634867 0.035459 0.205160
H36   H     H_    0.749287 0.628864 0.140508 0.188317
H37   H     H_    0.106593 0.417445 0.446973 0.159887
H38   H     H_    0.893023 0.580828 0.554148 0.165566
H39   H     H_    0.121209 0.617591 0.577791 0.165988
H40   H     H_    0.423685 0.681615 0.948199 0.145199
H41   H     H_    0.878861 0.382861 0.421883 0.163884
N1    N     N_2   0.842720 0.448890 0.465540 -0.193272
N2    N     N_2   0.157250 0.551040 0.534500 -0.181168
O1    O     O_R   0.431050 0.692470 0.506940 -0.557465
O2    O     O_R   0.651130 0.659650 0.484820 -0.613284
O3    O     O_R   0.389910 0.516410 0.633920 -0.621635
O4    O     O_R   0.609990 0.483590 0.611800 -0.591965
O5    O     O_R   0.348870 0.340350 0.515180 -0.617397
O6    O     O_R   0.568950 0.307530 0.493060 -0.609943
O7    O     O_R   0.390010 0.516410 0.388200 -0.581325
O8    O     O_R   0.610090 0.483590 0.366080 -0.616581
Zn1   Zn    Zn3+2 0.353060 0.521920 0.514770 0.965163
Zn2   Zn    Zn3+2 0.646940 0.478080 0.485230 0.940631

loop_
_geom_bond_atom_site_label_1
_geom_bond_atom_site_label_2
_ccdc_geom_bond_type
C19   H19   S    
C2    F1    S    
C29   H5    S    
C26   H35   S    
C19   C20   S    
C14   C31   T    
C16   H11   S    
C12   H12   S    
C15   C32   S    
C19   H20   S    
C12   C23   S    
C26   C27   S    
C23   C29   S    
C11   F2    S    
C28   H31   S    
C16   H13   S    
C10   C15   S    
C9    O8    A    
C1    O1    A    
C26   H36   S    
C13   C23   S    
C8    O5    A    
N2    Zn1   S    
C13   H3    S    
C11   C15   S    
C16   C17   S    
N1    Zn2   S    
C30   H4    S    
C3    C19   S    
C27   H32   S    
O1    Zn1   S    
C2    C34   D    
O4    Zn2   S    
C20   H18   S    
C22   C34   S    
C10   H40   S    
C1    C34   S    
C7    H37   S    
O3    Zn1   S    
C17   H10   S    
C6    H38   S    
C28   H30   S    
C17   H9    S    
C20   H17   S    
C3    C8    S    
O6    Zn2   S    
O5    Zn1   S    
H41   N1    S    
C1    O2    A    
C30   F3    S    
C23   C31   S    
C28   H29   S    
C9    C14   S    
C22   H28   S    
C29   C30   S    
C18   H7    S    
C4    O4    A    
C29   H23   S    
C17   C18   S    
C25   H24   S    
C24   C25   S    
C11   H2    S    
C27   H33   S    
C10   C12   S    
O8    Zn2   S    
C24   H26   S    
O7    Zn1   S    
C22   C24   S    
C13   C26   S    
C2    C5    S    
C25   H21   S    
C18   H8    S    
C21   H14   S    
C15   C30   S    
C4    C33   S    
C24   H25   S    
H39   N2    S    
C3    C5    D    
C6    C7    S    
O2    Zn2   S    
C32   C33   T    
C5    H34   S    
C10   C16   S    
C18   H6    S    
C9    O7    A    
C21   H16   S    
C11   C13   S    
C6    N1    D    
C4    O3    A    
C8    O6    A    
C12   H1    S    
C22   H27   S    
C20   C21   S    
C27   C28   S    
C25   H22   S    
C21   H15   S    
C7    N2    D    
