data_mof_unit_35088.cif
_audit_creation_date              2012-12-11T17:29:50-0500
_audit_creation_method            fapswitch 2.2
_symmetry_space_group_name_H-M    P1
_symmetry_Int_Tables_number       1
_space_group_crystal_system       triclinic
_cell_length_a                    18.816447
_cell_length_b                    18.857108
_cell_length_c                    20.51838
_cell_angle_alpha                 107.174814
_cell_angle_beta                  106.358742
_cell_angle_gamma                 111.000213
_cell_volume                      5849.01774466

loop_
_atom_site_label
_atom_site_type_symbol
_atom_type_description
_atom_site_fract_x
_atom_site_fract_y
_atom_site_fract_z
_atom_type_partial_charge
C1    C     C_R   0.079917 0.087574 0.351063 0.620356
C2    C     C_R   0.747175 0.002992 0.464255 0.073778
C3    C     C_R   0.770385 0.728636 0.286788 0.040048
C4    C     C_R   0.052997 0.290454 0.548949 0.051823
C5    C     C_R   0.239810 0.194766 0.653225 -0.134411
C6    C     C_R   0.968237 0.790247 0.537751 -0.122259
C7    C     C_R   0.169760 0.933761 0.431717 -0.143362
C8    C     C_R   0.010518 0.051592 0.718193 -0.135131
C9    C     C_R   0.939894 0.911227 0.653810 -0.126928
C10   C     C_R   0.240909 0.073340 0.498886 -0.160611
C11   C     C_R   0.163027 0.192622 0.718829 -0.126666
C12   C     C_R   0.755084 0.930433 0.454773 -0.127805
C13   C     C_R   0.049406 0.801658 0.476417 -0.129400
C14   C     C_R   0.244977 0.217186 0.725729 0.044021
C15   C     C_R   0.031388 0.773023 0.527708 0.066080
C16   C     C_R   0.244646 0.004738 0.454108 0.088583
C17   C     C_R   0.985061 0.977199 0.725965 0.039331
C18   C     C_R   0.130528 0.713772 0.544707 -0.232163
C19   C     C_R   0.071991 0.733027 0.564946 0.124662
C20   C     C_R   0.047441 0.707863 0.616371 -0.251072
C21   C     C_R   0.066206 0.649251 0.634419 0.177378
C22   C     C_R   0.114697 0.620029 0.604397 -0.004417
C23   C     C_R   0.846722 0.779268 0.289117 -0.108752
C24   C     C_R   0.153308 0.657647 0.564716 -0.058734
C25   C     C_R   0.028961 0.612242 0.674427 -0.212907
C26   C     C_R   0.030413 0.539524 0.676215 -0.214181
C27   C     C_R   0.069442 0.503892 0.638300 0.162525
C28   C     C_R   0.116069 0.546925 0.606299 0.031678
C29   C     C_R   0.155764 0.511606 0.568530 0.039392
C30   C     C_R   0.203357 0.555302 0.538172 -0.252866
C31   C     C_R   0.204441 0.629435 0.537534 0.509786
C32   C     C_R   0.055249 0.422173 0.625033 -0.258679
C33   C     C_R   0.085421 0.382469 0.578731 0.113945
C34   C     C_R   0.001647 0.236845 0.569403 -0.140623
C35   C     C_R   0.141131 0.429896 0.555846 -0.211930
C36   C     C_R   0.301952 0.931908 0.378482 -0.258434
C37   C     C_R   0.308176 0.007642 0.424986 0.111914
C38   C     C_R   0.378214 0.085419 0.447388 -0.265495
C39   C     C_R   0.446872 0.087090 0.433279 0.147643
C40   C     C_R   0.444174 0.010050 0.394502 0.027733
C41   C     C_R   0.369846 0.932495 0.363696 0.140051
C42   C     C_R   0.521104 0.163944 0.463646 -0.207339
C43   C     C_R   0.594929 0.163795 0.462957 -0.204190
C44   C     C_R   0.594822 0.086776 0.431975 0.140451
C45   C     C_R   0.769605 0.771887 0.353883 -0.149999
C46   C     C_R   0.518304 0.009891 0.393768 0.026240
C47   C     C_R   0.517656 0.932161 0.362372 0.138491
C48   C     C_R   0.441314 0.855982 0.324350 -0.200128
C49   C     C_R   0.367555 0.856145 0.325071 -0.200050
C50   C     C_R   0.670707 0.084631 0.446334 -0.255171
C51   C     C_R   0.670538 0.006554 0.426007 0.115004
C52   C     C_R   0.594132 0.931217 0.377376 -0.253060
C53   C     C_R   0.321464 0.252376 0.795626 0.148005
C54   C     C_R   0.314567 0.245612 0.860127 -0.185990
C55   C     C_R   0.386606 0.282759 0.927509 -0.165423
C56   C     C_R   0.077970 0.243080 0.504309 -0.103623
C57   C     C_R   0.467027 0.327884 0.931425 0.225611
C58   C     C_R   0.474061 0.328423 0.865593 -0.181061
C59   C     C_R   0.401941 0.291488 0.798183 -0.178818
C60   C     C_R   0.674735 0.509831 0.129525 -0.163128
C61   C     C_R   0.733757 0.592042 0.184301 -0.188256
C62   C     C_R   0.591616 0.473682 0.122737 0.224394
C63   C     C_R   0.710944 0.639207 0.233212 0.146165
C64   C     C_R   0.630228 0.600280 0.230290 -0.180927
C65   C     C_R   0.571461 0.517819 0.175864 -0.181367
C66   C     C_R   0.096848 0.027522 0.231676 0.165991
C67   C     C_R   0.824598 0.071447 0.519497 -0.129032
C68   C     C_R   0.112715 0.962604 0.196151 -0.185795
C69   C     C_R   0.143293 0.965570 0.142164 -0.168765
C70   C     C_R   0.159217 0.034191 0.124014 0.230162
C71   C     C_R   0.152241 0.102856 0.165236 -0.213792
C72   C     C_R   0.119474 0.098932 0.217591 -0.138306
C73   C     C_R   0.132392 0.027419 0.919375 -0.168694
C74   C     C_R   0.098066 0.034005 0.853587 -0.182362
C75   C     C_R   0.086769 0.956591 0.928936 0.226399
C76   C     C_R   0.018552 0.969784 0.795742 0.151398
C77   C     C_R   0.976206 0.896226 0.802610 -0.191901
C78   C     C_R   0.013281 0.947416 0.288329 -0.231958
C79   C     C_R   0.010373 0.889864 0.868967 -0.180751
C80   C     C_R   0.058180 0.021231 0.284074 -0.117910
H1    H     H_    0.934656 0.769972 0.568730 0.087649
H2    H     H_    0.144840 0.871158 0.387637 0.086663
H3    H     H_    0.039030 0.114408 0.762929 0.089073
H4    H     H_    0.903249 0.845408 0.639312 0.083919
H5    H     H_    0.284796 0.139189 0.519824 0.077815
H6    H     H_    0.145471 0.206395 0.764687 0.085942
H7    H     H_    0.094618 0.798629 0.454675 0.098472
H8    H     H_    0.151606 0.735538 0.507162 0.128607
H9    H     H_    0.006905 0.726832 0.636672 0.115412
H10   H     H_    0.993138 0.635441 0.699098 0.129633
H11   H     H_    0.707710 0.865827 0.416223 0.096364
H12   H     H_    0.995905 0.507911 0.702417 0.129391
H13   H     H_    0.014756 0.387881 0.645666 0.115214
H14   H     H_    0.168058 0.401817 0.522896 0.119167
H15   H     H_    0.236984 0.529989 0.511892 0.161401
H16   H     H_    0.247476 0.871447 0.358412 0.118291
H17   H     H_    0.382796 0.144672 0.480597 0.114125
H18   H     H_    0.523530 0.223682 0.492374 0.128819
H19   H     H_    0.653165 0.223403 0.491387 0.130671
H20   H     H_    0.729280 0.143679 0.479992 0.119385
H21   H     H_    0.874003 0.761308 0.251499 0.085130
H22   H     H_    0.593062 0.870800 0.357508 0.118439
H23   H     H_    0.439811 0.795951 0.298917 0.132068
H24   H     H_    0.310261 0.796234 0.299957 0.134111
H25   H     H_    0.796261 0.618868 0.186661 0.112889
H26   H     H_    0.692771 0.476440 0.090110 0.124447
H27   H     H_    0.535456 0.362994 0.867871 0.120393
H28   H     H_    0.409527 0.296982 0.749272 0.112300
H29   H     H_    0.610770 0.634643 0.267448 0.113542
H30   H     H_    0.379004 0.279703 0.977163 0.123357
H31   H     H_    0.507769 0.490769 0.171176 0.120958
H32   H     H_    0.981322 0.254696 0.612968 0.089444
H33   H     H_    0.253620 0.213188 0.859266 0.108016
H34   H     H_    0.133890 0.089690 0.848272 0.111180
H35   H     H_    0.192372 0.079749 0.964059 0.124780
H36   H     H_    0.163495 0.155459 0.150836 0.128121
H37   H     H_    0.107528 0.149647 0.243490 0.171875
H38   H     H_    0.915625 0.845006 0.757958 0.114378
H39   H     H_    0.149128 0.912195 0.110971 0.124470
H40   H     H_    0.974464 0.835275 0.875701 0.120800
H41   H     H_    0.099172 0.908316 0.208137 0.118392
H42   H     H_    0.727041 0.745467 0.376621 0.093048
H43   H     H_    0.127430 0.267466 0.487790 0.143379
H44   H     H_    0.841971 0.137639 0.541056 0.096828
H45   H     H_    0.995798 0.883711 0.251057 0.128812
H46   H     H_    0.291021 0.204086 0.637075 0.093504
N1    N     N_R   0.052570 0.055840 0.395080 -0.096979
N2    N     N_R   0.954640 0.834860 0.500130 -0.040434
N3    N     N_R   0.122510 0.958410 0.460270 -0.036723
N4    N     N_R   0.990190 0.031260 0.644790 -0.036969
N5    N     N_R   0.947430 0.944160 0.604920 -0.037641
N6    N     N_R   0.165270 0.045500 0.500140 -0.041910
N7    N     N_R   0.109810 0.150880 0.644800 -0.037430
N8    N     N_R   0.002890 0.838790 0.460260 -0.040421
N9    N     N_2   0.539517 0.385292 0.001039 -0.104981
N10   N     N_2   0.523483 0.401876 0.056905 -0.105754
N11   N     N_2   0.161177 0.027751 0.054545 -0.106461
N12   N     N_R   0.834730 0.954500 0.499860 -0.042817
N13   N     N_2   0.105291 0.957648 0.001097 -0.100078
N14   N     N_R   0.890190 0.849120 0.355200 -0.035386
N15   N     N_R   0.997110 0.161210 0.539740 -0.041802
N16   N     N_R   0.841940 0.845190 0.395070 -0.038361
N17   N     N_R   0.045360 0.165140 0.499870 -0.044729
N18   N     N_R   0.877490 0.041590 0.539730 -0.042582
N19   N     N_R   0.009810 0.968740 0.355210 -0.064170
N20   N     N_R   0.158060 0.154810 0.604930 -0.041945
Ni1   Ni    Ni4+2 0.104370 0.104380 0.500010 0.212305
Ni2   Ni    Ni4+2 0.895630 0.895620 0.499990 0.215577
Ni3   Ni    Ni4+2 0.006290 0.904630 0.408560 0.203291
Ni4   Ni    Ni4+2 0.993710 0.095370 0.591440 0.212780
O1    O     O_3   0.130114 0.172386 0.373012 -0.646648
C81   C     C_3   0.213045 0.198512 0.422692 -0.342160
H47   H     H_    0.236923 0.155194 0.399987 0.154915
H48   H     H_    0.216843 0.205566 0.479357 0.145841
H49   H     H_    0.255084 0.261870 0.429758 0.182842
O2    O     O_3   0.251903 0.668899 0.506004 -0.756397
H50   H     H_    0.268586 0.729859 0.528926 0.310137

loop_
_geom_bond_atom_site_label_1
_geom_bond_atom_site_label_2
_ccdc_geom_bond_type
C66   C68   A    
C10   H5    S    
C8    H3    S    
C34   H32   S    
C13   N8    A    
C12   H11   S    
C3    C23   A    
C19   C20   A    
C2    C12   A    
C67   H44   S    
C49   H24   S    
C31   O2    S    
C53   C59   A    
N9    N10   D    
C34   N15   A    
C53   C54   A    
C40   C46   A    
N11   N13   D    
C52   H22   S    
C26   C27   A    
C37   C38   A    
C74   C76   A    
C18   C24   A    
O2    H50   S    
N14   N16   A    
C18   C19   A    
C11   N7    A    
C38   C39   A    
C11   C14   A    
C78   C80   A    
C4    C33   S    
C11   H6    S    
C26   H12   S    
C74   H34   S    
C54   H33   S    
C30   H15   S    
C60   C62   A    
C58   H27   S    
C73   C74   A    
C62   N10   S    
C61   C63   A    
C65   H31   S    
N18   Ni4   S    
C78   N19   A    
C6    C15   A    
C15   C19   S    
C56   N17   A    
C66   C72   A    
N12   Ni2   S    
C68   C69   A    
C72   H37   S    
N4    Ni4   S    
C17   C76   S    
O1    C81   S    
C70   C71   A    
C61   H25   S    
C16   C37   S    
N3    N6    A    
C9    N5    A    
C32   H13   S    
C6    H1    S    
C22   C28   A    
C21   C22   A    
C4    C56   A    
C73   C75   A    
C36   C41   A    
C38   H17   S    
C67   N18   A    
C41   C49   A    
C44   C46   A    
N15   Ni4   S    
C39   C42   A    
C57   C58   A    
C77   C79   A    
C4    C34   A    
C51   C52   A    
C56   H43   S    
N16   Ni2   S    
C23   N14   A    
C76   C77   A    
C77   H38   S    
C39   C40   A    
C10   C16   A    
N2    Ni2   S    
C58   C59   A    
C48   H23   S    
C3    C45   A    
C18   H8    S    
C60   C61   A    
C5    H46   S    
N17   Ni1   S    
C43   C44   A    
N3    Ni3   S    
C29   C30   A    
N2    N8    A    
C36   H16   S    
C47   C48   A    
C81   H49   S    
C30   C31   A    
C79   H40   S    
C13   H7    S    
C50   C51   A    
C25   H10   S    
N5    Ni2   S    
C46   C47   A    
C20   C21   A    
C5    C14   A    
N1    N19   A    
C9    C17   A    
C40   C41   A    
C81   H48   S    
C2    C67   A    
C59   H28   S    
C55   C57   A    
C13   C15   A    
C8    N4    A    
C45   N16   A    
C22   C24   A    
C42   C43   A    
C60   H26   S    
N20   Ni1   S    
C35   H14   S    
C44   C50   A    
C21   C25   A    
C54   C55   A    
C28   C29   A    
C5    N20   A    
C62   C65   A    
C27   C32   A    
N6    Ni1   S    
C7    C16   A    
N7    Ni4   S    
C1    N1    A    
C43   H19   S    
C42   H18   S    
C68   H41   S    
C47   C52   A    
C3    C63   S    
C45   H42   S    
C66   C80   S    
C20   H9    S    
C29   C35   A    
C50   H20   S    
C8    C17   A    
C73   H35   S    
C64   C65   A    
N15   N17   A    
N4    N5    A    
C25   C26   A    
C24   C31   A    
C6    N2    A    
C71   C72   A    
C55   H30   S    
C75   N13   S    
C32   C33   A    
N8    Ni3   S    
C64   H29   S    
C23   H21   S    
C75   C79   A    
C48   C49   A    
C33   C35   A    
C69   H39   S    
C71   H36   S    
C1    O1    S    
C12   N12   A    
C69   C70   A    
C10   N6    A    
C7    N3    A    
C2    C51   S    
C9    H4    S    
C63   C64   A    
C7    H2    S    
C81   H47   S    
C70   N11   S    
C36   C37   A    
C27   C28   A    
C1    C80   A    
C57   N9    S    
N12   N18   A    
N7    N20   A    
C78   H45   S    
C14   C53   S    
N14   Ni3   S    
N19   Ni3   S    
N1    Ni1   S    
