data_mof_unit_56800.cif
_audit_creation_date              2012-12-10T17:20:22-0500
_audit_creation_method            fapswitch 2.2
_symmetry_space_group_name_H-M    P1
_symmetry_Int_Tables_number       1
_space_group_crystal_system       triclinic
_cell_length_a                    11.713943
_cell_length_b                    10.818971
_cell_length_c                    9.628741
_cell_angle_alpha                 89.787987
_cell_angle_beta                  90.331226
_cell_angle_gamma                 93.852764
_cell_volume                      1217.49253696

loop_
_atom_site_label
_atom_site_type_symbol
_atom_type_description
_atom_site_fract_x
_atom_site_fract_y
_atom_site_fract_z
_atom_type_partial_charge
C1    C     C_R   0.490341 0.262336 0.500317 0.785364
C2    C     C_R   0.299203 0.050337 0.818948 -0.182436
C3    C     C_R   0.302442 0.922171 0.822524 0.036941
C4    C     C_R   0.355116 0.861175 0.715476 -0.217645
C5    C     C_R   0.414637 0.928323 0.608544 0.079023
C6    C     C_R   0.414087 0.059521 0.607504 0.109026
C7    C     C_R   0.472820 0.127414 0.499970 -0.108301
C8    C     C_R   0.515143 0.065316 0.386555 -0.204941
C9    C     C_R   0.511335 0.938056 0.384628 -0.165358
C10   C     C_R   0.470778 0.868879 0.499203 -0.098262
C11   C     C_R   0.691832 0.629555 0.133705 -0.049337
C12   C     C_R   0.284154 0.499569 0.499698 0.793754
C13   C     C_R   0.789933 0.653627 0.051243 -0.061319
C14   C     C_R   0.776556 0.667337 0.910155 -0.259642
C15   C     C_R   0.670882 0.638631 0.851069 -0.142131
C16   C     C_R   0.585252 0.568277 0.923935 0.198362
C17   C     C_R   0.589330 0.566870 0.073517 0.138871
C18   C     C_R   0.417009 0.437049 0.073579 -0.036037
C19   C     C_R   0.417555 0.436381 0.926127 -0.048840
C20   C     C_R   0.488731 0.736158 0.499968 0.812734
C21   C     C_R   0.715766 0.499251 0.500394 0.840043
C22   C     C_1   0.162405 0.499991 0.499242 -0.164091
C23   C     C_1   0.059922 0.500218 0.499616 0.019553
C24   C     C_1   0.940066 0.500130 0.500430 0.015219
C25   C     C_1   0.837560 0.499750 0.500874 -0.169563
C26   C     C_R   0.351197 0.117987 0.710612 -0.188396
Cu1   Cu    Cu3+1 0.499990 0.499990 0.640660 0.934383
Cu2   Cu    Cu3+1 0.500010 0.500010 0.359340 0.962146
H1    H     H_    0.554881 0.115415 0.299854 0.171122
H2    H     H_    0.846288 0.706207 0.846615 0.168740
H3    H     H_    0.661479 0.669466 0.746841 0.210157
H4    H     H_    0.349671 0.384046 0.871408 0.124857
H5    H     H_    0.254447 0.098074 0.898662 0.137489
H6    H     H_    0.345046 0.761376 0.716263 0.172204
H7    H     H_    0.545137 0.894468 0.294322 0.174088
H8    H     H_    0.349071 0.384861 0.128086 0.135630
N1    N     N_R   0.501070 0.501210 0.147910 -0.192569
N2    N     N_R   0.501110 0.501290 0.852040 -0.195739
O1    O     O_R   0.499990 0.319640 0.618810 -0.578399
O2    O     O_R   0.500000 0.319660 0.381240 -0.580593
O3    O     O_R   0.337190 0.500000 0.618790 -0.594830
O4    O     O_R   0.337200 0.500030 0.381210 -0.569361
O5    O     O_R   0.500000 0.680340 0.618760 -0.615925
O6    O     O_R   0.500010 0.680360 0.381190 -0.573022
O7    O     O_R   0.662800 0.499970 0.618790 -0.583477
O8    O     O_R   0.662810 0.500000 0.381210 -0.575326
H9    H     H_    0.337863 0.215500 0.707328 0.152571
C27   C     C_1   0.250611 0.852243 0.935752 0.217896
N3    N     N_1   0.209841 0.795746 0.027112 -0.247153
C28   C     C_1   0.699179 0.706350 0.256177 0.323146
N4    N     N_1   0.714885 0.769515 0.352218 -0.329884
C29   C     C_1   0.901651 0.685295 0.111683 0.264203
N5    N     N_1   0.990380 0.710180 0.161214 -0.244944

loop_
_geom_bond_atom_site_label_1
_geom_bond_atom_site_label_2
_ccdc_geom_bond_type
C12   O4    A    
C23   C24   S    
C15   H3    S    
C12   O3    A    
C19   N2    A    
Cu1   O5    S    
C8    H1    S    
C13   C29   S    
C9    C10   A    
Cu1   O3    S    
Cu1   O7    S    
C2    C3    A    
C5    C10   A    
C2    C26   A    
C11   C28   S    
C17   N1    A    
C13   C14   A    
C24   C25   T    
C11   C13   A    
Cu2   O8    S    
C6    C26   A    
C10   C20   S    
C26   H9    S    
C14   H2    S    
C19   H4    S    
Cu2   N1    S    
C2    H5    S    
Cu2   O4    S    
C27   N3    T    
C20   O6    A    
C18   N1    A    
C21   O8    A    
C6    C7    A    
C21   O7    A    
C22   C23   T    
C5    C6    A    
C4    H6    S    
C16   C17   A    
Cu2   O2    S    
Cu1   N2    S    
C15   C16   A    
C12   C22   S    
C3    C27   S    
C7    C8    A    
C20   O5    A    
C29   N5    T    
C18   C19   A    
Cu1   O1    S    
Cu1   Cu2   S    
C9    H7    S    
C1    O1    A    
C14   C15   A    
C4    C5    A    
C21   C25   S    
C1    O2    A    
C28   N4    T    
C1    C7    S    
C18   H8    S    
Cu2   O6    S    
C11   C17   A    
C3    C4    A    
C16   N2    A    
C8    C9    A    
