data_mof_unit_47498.cif
_audit_creation_date              2012-12-10T19:14:57-0500
_audit_creation_method            fapswitch 2.2
_symmetry_space_group_name_H-M    P1
_symmetry_Int_Tables_number       1
_space_group_crystal_system       triclinic
_cell_length_a                    16.003058
_cell_length_b                    14.726056
_cell_length_c                    10.88383
_cell_angle_alpha                 90.973439
_cell_angle_beta                  89.694804
_cell_angle_gamma                 90.164431
_cell_volume                      2564.48790275

loop_
_atom_site_label
_atom_site_type_symbol
_atom_type_description
_atom_site_fract_x
_atom_site_fract_y
_atom_site_fract_z
_atom_type_partial_charge
C1    C     C_1   0.251963 0.499408 0.498258 -0.181216
C2    C     C_R   0.567035 0.048705 0.549162 -0.170082
C3    C     C_R   0.956278 0.582721 0.496328 0.151981
C4    C     C_R   0.043603 0.415994 0.488740 0.151766
C5    C     C_R   0.044361 0.582351 0.501864 0.149491
C6    C     C_R   0.955486 0.416338 0.484131 0.152539
C7    C     C_R   0.340867 0.499849 0.499899 0.809856
C8    C     C_R   0.659118 0.500092 0.499746 0.827746
C9    C     C_R   0.500369 0.499191 0.261659 0.801548
C10   C     C_R   0.498578 0.500746 0.738718 0.821281
C11   C     C_R   0.912636 0.499678 0.489608 -0.007695
C12   C     C_1   0.747998 0.500146 0.497066 -0.179709
C13   C     C_R   0.087237 0.499029 0.497137 -0.008479
C14   C     C_1   0.500203 0.802766 0.498020 0.076930
C15   C     C_1   0.499947 0.197203 0.499875 0.086989
C16   C     C_1   0.822899 0.499918 0.493916 0.071294
C17   C     C_1   0.177033 0.499032 0.497159 0.072460
C18   C     C_R   0.420797 0.648732 0.116748 0.099544
C19   C     C_R   0.460261 0.332786 0.889570 0.116462
C20   C     C_R   0.523941 0.671633 0.907923 0.117116
C21   C     C_R   0.567186 0.345588 0.094908 0.120392
C22   C     C_R   0.433260 0.736450 0.070118 0.204523
C23   C     C_R   0.494217 0.501486 0.873050 -0.128877
C24   C     C_R   0.496380 0.253207 0.937006 0.155466
C25   C     C_R   0.490273 0.748927 0.971487 0.172068
C26   C     C_R   0.554932 0.260275 0.034292 0.187194
C27   C     C_R   0.495730 0.583922 0.944327 -0.002817
C28   C     C_R   0.517319 0.419848 0.057371 -0.011968
C29   C     C_R   0.468142 0.576332 0.065409 -0.064038
C30   C     C_R   0.488568 0.417828 0.937078 -0.019396
C31   C     C_3   0.116864 0.692471 0.629908 -0.694397
C32   C     C_3   0.881117 0.306298 0.358183 -0.700067
C33   C     C_3   0.883948 0.698783 0.384403 -0.692987
C34   C     C_R   0.495012 0.497907 0.128207 -0.134312
C35   C     C_3   0.115421 0.297813 0.597368 -0.697255
C36   C     C_3   0.581291 0.150516 0.196231 -0.685229
C37   C     C_3   0.483600 0.869919 0.823491 -0.697466
C38   C     C_3   0.422301 0.109506 0.951331 -0.717585
C39   C     C_3   0.335776 0.864415 0.065968 -0.710909
C40   C     C_3   0.349888 0.631043 0.207230 -0.277789
C41   C     C_3   0.264501 0.638537 0.146267 -0.860124
C42   C     C_3   0.380233 0.323934 0.813525 -0.309807
C43   C     C_3   0.316760 0.399930 0.838070 -0.868640
C44   C     C_3   0.605020 0.684121 0.833985 -0.338134
C45   C     C_R   0.500599 0.902854 0.496555 0.060420
C46   C     C_3   0.672078 0.613336 0.860915 -0.851552
C47   C     C_3   0.645723 0.360810 0.172401 -0.355345
C48   C     C_3   0.696810 0.442925 0.130934 -0.888251
C49   C     C_R   0.500054 0.097116 0.498950 0.068218
C50   C     C_R   0.567399 0.952798 0.547697 -0.179325
C51   C     C_R   0.433544 0.047207 0.446880 -0.169532
C52   C     C_R   0.433723 0.951257 0.445928 -0.173731
Cu1   Cu    Cu3+1 0.500000 0.589220 0.500000 0.948697
Cu2   Cu    Cu3+1 0.500000 0.410780 0.500000 0.949594
H1    H     H_    0.619198 0.085117 0.589774 0.126819
H2    H     H_    0.935439 0.291550 0.297155 0.215418
H3    H     H_    0.842783 0.360561 0.317431 0.237127
H4    H     H_    0.841909 0.244210 0.364584 0.225522
H5    H     H_    0.936708 0.715996 0.557306 0.256744
H6    H     H_    0.938974 0.716225 0.326675 0.213105
H7    H     H_    0.845232 0.760580 0.398417 0.226903
H8    H     H_    0.845538 0.646804 0.335524 0.239302
H9    H     H_    0.063105 0.283782 0.423837 0.257241
H10   H     H_    0.060291 0.278124 0.653451 0.212985
H11   H     H_    0.152408 0.349478 0.648802 0.235547
H12   H     H_    0.381378 0.914831 0.405823 0.137093
H13   H     H_    0.155293 0.237105 0.581601 0.227575
H14   H     H_    0.610426 0.131225 0.009190 0.254833
H15   H     H_    0.554912 0.080707 0.191903 0.218457
H16   H     H_    0.535725 0.195252 0.245051 0.239615
H17   H     H_    0.639964 0.148945 0.250000 0.227766
H18   H     H_    0.513306 0.886804 0.008236 0.260157
H19   H     H_    0.414511 0.875431 0.827406 0.229939
H20   H     H_    0.501264 0.822621 0.747753 0.236778
H21   H     H_    0.510334 0.937805 0.803778 0.234412
H22   H     H_    0.527187 0.134207 0.842268 0.247227
H23   H     H_    0.381230 0.082480 0.407010 0.130442
H24   H     H_    0.457685 0.075740 0.024840 0.235374
H25   H     H_    0.395627 0.056421 0.889387 0.228180
H26   H     H_    0.369878 0.148827 0.993037 0.233321
H27   H     H_    0.436901 0.850186 0.186017 0.241307
H28   H     H_    0.364442 0.928710 0.034793 0.222480
H29   H     H_    0.282609 0.881526 0.127886 0.229456
H30   H     H_    0.311190 0.825840 0.985140 0.232391
H31   H     H_    0.251540 0.709063 0.118933 0.272236
H32   H     H_    0.261406 0.593030 0.063903 0.246775
H33   H     H_    0.215026 0.617784 0.212134 0.244843
H34   H     H_    0.619689 0.917541 0.587683 0.131288
H35   H     H_    0.352269 0.561129 0.242785 0.181432
H36   H     H_    0.353895 0.678981 0.286943 0.229802
H37   H     H_    0.336135 0.463793 0.793626 0.241987
H38   H     H_    0.308621 0.412129 0.938446 0.255685
H39   H     H_    0.255377 0.379900 0.799288 0.230736
H40   H     H_    0.393838 0.316827 0.714027 0.238545
H41   H     H_    0.347280 0.260304 0.837876 0.211893
H42   H     H_    0.681959 0.608854 0.961529 0.254114
H43   H     H_    0.654977 0.545577 0.823021 0.243796
H44   H     H_    0.731962 0.633730 0.817168 0.242454
H45   H     H_    0.065452 0.717932 0.459000 0.256953
H46   H     H_    0.593813 0.687888 0.734118 0.231766
H47   H     H_    0.634212 0.750446 0.858389 0.218916
H48   H     H_    0.709398 0.438141 0.030557 0.263205
H49   H     H_    0.663741 0.507312 0.152580 0.249531
H50   H     H_    0.757438 0.444974 0.179829 0.235539
H51   H     H_    0.631445 0.367052 0.271319 0.234423
H52   H     H_    0.688320 0.301714 0.163989 0.227159
H53   H     H_    0.061603 0.707511 0.688945 0.212994
H54   H     H_    0.156243 0.754494 0.624593 0.226011
H55   H     H_    0.154433 0.638179 0.672450 0.238666
H56   H     H_    0.935166 0.280571 0.527053 0.257753
N1    N     N_1   0.500000 0.276710 0.500000 -0.168901
N2    N     N_2   0.396273 0.812008 0.132969 -0.429846
N3    N     N_1   0.500000 0.723290 0.500000 -0.166832
N4    N     N_2   0.090618 0.665275 0.507661 -0.420290
N5    N     N_2   0.909244 0.333348 0.479518 -0.418156
N6    N     N_2   0.910769 0.665864 0.502285 -0.420809
N7    N     N_2   0.089062 0.332901 0.480506 -0.417876
N8    N     N_2   0.599452 0.182042 0.073390 -0.444133
N9    N     N_2   0.515868 0.838358 0.938917 -0.445197
N10   N     N_2   0.476800 0.167691 0.880975 -0.433960
O1    O     O_R   0.380310 0.575320 0.500020 -0.578430
O2    O     O_R   0.619690 0.424680 0.499980 -0.578428
O3    O     O_R   0.619690 0.575320 0.499980 -0.567241
O4    O     O_R   0.380310 0.424680 0.500020 -0.569037
O5    O     O_R   0.499990 0.575350 0.319650 -0.582158
O6    O     O_R   0.500010 0.424650 0.680350 -0.579084
O7    O     O_R   0.500010 0.575350 0.680350 -0.583493
O8    O     O_R   0.499990 0.424650 0.319650 -0.585009

loop_
_geom_bond_atom_site_label_1
_geom_bond_atom_site_label_2
_ccdc_geom_bond_type
C37   H20   S    
C5    N4    S    
C27   C29   A    
C31   H54   S    
C32   H4    S    
C7    O4    A    
C21   C26   A    
H45   N4    S    
Cu1   Cu2   S    
C41   H32   S    
Cu2   O6    S    
H22   N10   S    
C24   C26   A    
C39   H30   S    
C2    H1    S    
H9    N7    S    
C38   H25   S    
C35   H11   S    
C48   H50   S    
C4    C13   A    
C18   C40   S    
C37   H19   S    
C2    C50   A    
H14   N8    S    
C12   C16   T    
C44   C46   S    
C33   H8    S    
C49   C51   A    
C22   C25   A    
C35   H10   S    
C23   C27   A    
C40   H35   S    
Cu1   O7    S    
C31   N4    S    
C5    C13   A    
C36   H17   S    
C50   H34   S    
C38   N10   S    
C37   H21   S    
C28   C34   A    
C1    C7    S    
C32   H3    S    
C7    O1    A    
C25   N9    S    
C20   C44   S    
Cu1   N3    S    
C14   C45   S    
C41   H33   S    
C24   N10   S    
C9    O8    A    
C42   H41   S    
C23   C30   A    
C15   N1    T    
C4    C6    A    
Cu1   O3    S    
C6    C11   A    
H5    N6    S    
C38   H24   S    
C45   C52   A    
C47   H51   S    
C48   H49   S    
Cu2   O8    S    
C29   C34   A    
C9    O5    A    
C51   C52   A    
C51   H23   S    
C2    C49   A    
C11   C16   S    
C47   C48   S    
C37   N9    S    
H27   N2    S    
C35   H13   S    
C8    C12   S    
C47   H52   S    
C48   H48   S    
C31   H55   S    
C18   C29   A    
Cu1   O5    S    
C40   C41   S    
C36   H16   S    
C46   H43   S    
C33   H6    S    
C22   N2    S    
C9    C34   S    
C4    N7    S    
C35   N7    S    
C42   C43   S    
C10   O7    A    
C52   H12   S    
C36   H15   S    
Cu2   O4    S    
C39   N2    S    
C33   N6    S    
C42   H40   S    
C31   H53   S    
C21   C28   A    
C26   N8    S    
C39   H28   S    
C3    C5    A    
C44   H47   S    
C19   C42   S    
C8    O3    A    
C20   C27   A    
C10   C23   S    
C14   N3    T    
C41   H31   S    
C1    C17   T    
C43   H38   S    
C13   C17   S    
C3    N6    S    
C18   C22   A    
C19   C24   A    
C39   H29   S    
Cu1   O1    S    
C44   H46   S    
C8    O2    A    
C38   H26   S    
C45   C50   A    
H18   N9    S    
C28   C30   A    
C43   H39   S    
Cu2   N1    S    
C15   C49   S    
C32   N5    S    
C46   H44   S    
C43   H37   S    
C6    N5    S    
C3    C11   A    
Cu2   O2    S    
C46   H42   S    
C33   H7    S    
C20   C25   A    
C36   N8    S    
C40   H36   S    
C10   O6    A    
C19   C30   A    
H56   N5    S    
C32   H2    S    
C21   C47   S    
