data_mof_unit_12911.cif
_audit_creation_date              2012-12-11T14:01:25-0500
_audit_creation_method            fapswitch 2.2
_symmetry_space_group_name_H-M    P1
_symmetry_Int_Tables_number       1
_space_group_crystal_system       triclinic
_cell_length_a                    19.033081
_cell_length_b                    11.107217
_cell_length_c                    18.782304
_cell_angle_alpha                 89.415231
_cell_angle_beta                  89.40921
_cell_angle_gamma                 90.154372
_cell_volume                      3970.23129561

loop_
_atom_site_label
_atom_site_type_symbol
_atom_type_description
_atom_site_fract_x
_atom_site_fract_y
_atom_site_fract_z
_atom_type_partial_charge
C1    C     C_R   0.271780 0.039783 0.854098 0.634649
C2    C     C_R   0.728395 0.041082 0.146540 0.636832
C3    C     C_R   0.771780 0.539782 0.854098 0.634648
C4    C     C_R   0.228395 0.541082 0.146540 0.636832
C5    C     C_R   0.481615 0.055064 0.065367 0.045394
C6    C     C_R   0.527519 0.046403 0.921123 0.060471
C7    C     C_R   0.981615 0.555065 0.065367 0.045394
C8    C     C_R   0.027519 0.546403 0.921123 0.060470
C9    C     C_R   0.988232 0.663001 0.024112 -0.004287
C10   C     C_R   0.015512 0.657910 0.953717 -0.003043
C11   C     C_R   0.488232 0.163000 0.024112 -0.004287
C12   C     C_R   0.515512 0.157910 0.953717 -0.003042
C13   C     C_2   0.243762 0.571255 0.917497 0.243943
C14   C     C_2   0.758880 0.569453 0.084333 0.227181
C15   C     C_2   0.743762 0.071255 0.917497 0.243943
C16   C     C_2   0.258880 0.069453 0.084333 0.227182
C17   C     C_2   0.256652 0.579282 0.077571 0.278909
C18   C     C_2   0.744765 0.573864 0.924564 0.295644
C19   C     C_2   0.756652 0.079282 0.077571 0.278908
C20   C     C_2   0.244765 0.073864 0.924564 0.295645
C21   C     C_2   0.282032 0.492541 0.032733 0.136130
C22   C     C_2   0.721231 0.484145 0.970078 0.165552
C23   C     C_2   0.782032 0.992541 0.032733 0.136130
C24   C     C_2   0.221231 0.984145 0.970078 0.165552
C25   C     C_2   0.294657 0.517032 0.956320 -0.064967
C26   C     C_2   0.711160 0.502955 0.048375 -0.033262
C27   C     C_2   0.794657 0.017033 0.956320 -0.064966
C28   C     C_2   0.211160 0.002955 0.048375 -0.033262
C29   C     C_2   0.515423 0.838614 0.585512 0.308342
C30   C     C_2   0.506760 0.826462 0.425263 0.286497
C31   C     C_2   0.015424 0.338615 0.585513 0.308342
C32   C     C_2   0.006761 0.326462 0.425264 0.286499
C33   C     C_2   0.542096 0.754759 0.470504 -0.029622
C34   C     C_2   0.522271 0.742428 0.544140 -0.020176
C35   C     C_2   0.042096 0.254759 0.470504 -0.029622
C36   C     C_2   0.022272 0.242428 0.544141 -0.020180
C37   C     C_2   0.253740 0.612832 0.570205 -0.028556
C38   C     C_2   0.753014 0.563086 0.415549 -0.051651
C39   C     C_2   0.753740 0.112832 0.570205 -0.028557
C40   C     C_2   0.253014 0.063086 0.415548 -0.051652
C41   C     C_2   0.257719 0.611471 0.410088 -0.016718
C42   C     C_2   0.759367 0.583712 0.576757 0.027935
C43   C     C_2   0.757719 0.111471 0.410088 -0.016718
C44   C     C_2   0.259367 0.083712 0.576757 0.027935
C45   C     C_R   0.471800 0.821234 0.852984 0.499573
C46   C     C_R   0.529035 0.822326 0.145931 0.517309
C47   C     C_R   0.971800 0.321234 0.852984 0.499573
C48   C     C_R   0.029035 0.322327 0.145931 0.517309
C49   C     C_2   0.210516 0.662076 0.453618 -0.185502
C50   C     C_2   0.805938 0.539747 0.529009 -0.155607
C51   C     C_2   0.710516 0.162075 0.453618 -0.185502
C52   C     C_2   0.305937 0.039746 0.529009 -0.155605
C53   C     C_2   0.226074 0.696007 0.525602 0.191734
C54   C     C_2   0.809489 0.580879 0.455520 0.194461
C55   C     C_2   0.726074 0.196007 0.525602 0.191735
C56   C     C_2   0.309488 0.080879 0.455520 0.194462
C57   C     C_R   0.260102 0.634827 0.850759 0.623358
C58   C     C_R   0.740455 0.634054 0.149851 0.619534
C59   C     C_R   0.760102 0.134827 0.850759 0.623357
C60   C     C_R   0.240455 0.134054 0.149851 0.619534
C61   C     C_R   0.272273 0.047324 0.649010 0.607044
C62   C     C_R   0.729401 0.049192 0.349154 0.572140
C63   C     C_R   0.772273 0.547324 0.649010 0.607044
C64   C     C_R   0.229401 0.549192 0.349154 0.572140
C65   C     C_R   0.472773 0.824780 0.649818 0.529064
C66   C     C_R   0.529926 0.822747 0.351999 0.526010
C67   C     C_R   0.972773 0.324780 0.649818 0.529064
C68   C     C_R   0.029926 0.322747 0.351999 0.526010
C69   C     C_R   0.261931 0.643595 0.643975 0.587392
C70   C     C_R   0.739949 0.634043 0.352321 0.553466
C71   C     C_R   0.761930 0.143595 0.643975 0.587391
C72   C     C_R   0.239949 0.134043 0.352321 0.553466
C73   C     C_R   0.498592 0.830974 0.072845 -0.072102
C74   C     C_R   0.507243 0.828241 0.923147 -0.085154
C75   C     C_R   0.998592 0.330974 0.072845 -0.072102
C76   C     C_R   0.007243 0.328241 0.923147 -0.085154
C77   C     C_R   0.497829 0.942311 0.033619 -0.074257
C78   C     C_R   0.510526 0.939321 0.958898 -0.056271
C79   C     C_R   0.997829 0.442311 0.033619 -0.074257
C80   C     C_R   0.010526 0.439321 0.958898 -0.056271
C81   C     C_R   0.512971 0.721182 0.962375 -0.019154
C82   C     C_R   0.496348 0.721947 0.035050 0.019722
C83   C     C_R   0.012971 0.221182 0.962375 -0.019154
C84   C     C_R   0.996348 0.221947 0.035050 0.019721
Cr1   Cr    Cr6+3 0.230530 0.836340 0.748870 1.145702
Cr2   Cr    Cr6+3 0.769470 0.836340 0.251130 1.185433
Cr3   Cr    Cr6+3 0.730530 0.336340 0.748870 1.145703
Cr4   Cr    Cr6+3 0.269470 0.336340 0.251130 1.185433
Cr5   Cr    Cr6+3 0.387420 0.989430 0.750820 1.121906
Cr6   Cr    Cr6+3 0.612580 0.989430 0.249180 1.123590
Cr7   Cr    Cr6+3 0.887420 0.489430 0.750820 1.121905
Cr8   Cr    Cr6+3 0.112580 0.489430 0.249180 1.123590
Cr9   Cr    Cr6+3 0.385640 0.677860 0.749230 1.094719
Cr10  Cr    Cr6+3 0.614360 0.677860 0.250770 1.123073
Cr11  Cr    Cr6+3 0.885640 0.177860 0.749230 1.094718
Cr12  Cr    Cr6+3 0.114360 0.177860 0.250770 1.123073
H1    H     H_    0.155338 0.669088 0.439822 0.178961
H2    H     H_    0.847107 0.478131 0.545875 0.172897
H3    H     H_    0.655338 0.169087 0.439823 0.178962
H4    H     H_    0.347105 0.978128 0.545874 0.172896
H5    H     H_    0.271097 0.525283 0.551708 0.070787
H6    H     H_    0.709547 0.509042 0.436110 0.050734
H7    H     H_    0.771097 0.025282 0.551708 0.070785
H8    H     H_    0.209547 0.009041 0.436109 0.050733
H9    H     H_    0.583240 0.694732 0.451804 0.088008
H10   H     H_    0.507582 0.652377 0.561957 0.117242
H11   H     H_    0.083241 0.194733 0.451804 0.088005
H12   H     H_    0.007584 0.152377 0.561957 0.117240
O1    O     O_R   0.215090 0.709860 0.828130 -0.428750
O2    O     O_R   0.784910 0.709860 0.171870 -0.403329
O3    O     O_R   0.715090 0.209860 0.828130 -0.428750
O4    O     O_R   0.284910 0.209860 0.171870 -0.403329
O5    O     O_R   0.445660 0.919250 0.676780 -0.506623
O6    O     O_R   0.554340 0.919250 0.323220 -0.485212
O7    O     O_R   0.945660 0.419250 0.676780 -0.506624
O8    O     O_R   0.054340 0.419250 0.323220 -0.485212
O9    O     O_R   0.456260 0.718170 0.670000 -0.527437
O10   O     O_R   0.543740 0.718170 0.330000 -0.510023
O11   O     O_R   0.956260 0.218170 0.670000 -0.527438
O12   O     O_R   0.043740 0.218170 0.330000 -0.510023
O13   O     O_R   0.320940 0.626760 0.674370 -0.506943
O14   O     O_R   0.679060 0.626760 0.325630 -0.524064
O15   O     O_R   0.820940 0.126760 0.674370 -0.506943
O16   O     O_R   0.179060 0.126760 0.325630 -0.524064
O17   O     O_3   0.334530 0.834540 0.749640 -0.304828
O18   O     O_3   0.665470 0.834540 0.250360 -0.319188
O19   O     O_3   0.834530 0.334540 0.749640 -0.304828
O20   O     O_3   0.165470 0.334540 0.250360 -0.319188
O21   O     O_R   0.236990 0.958390 0.823710 -0.481840
O22   O     O_R   0.763010 0.958390 0.176290 -0.463353
O23   O     O_R   0.736990 0.458390 0.823710 -0.481840
O24   O     O_R   0.263010 0.458390 0.176290 -0.463353
O25   O     O_R   0.332380 0.074750 0.830850 -0.457195
O26   O     O_R   0.667620 0.074750 0.169150 -0.467566
O27   O     O_R   0.832380 0.574750 0.830850 -0.457195
O28   O     O_R   0.167620 0.574750 0.169150 -0.467567
O29   O     O_R   0.445800 0.917770 0.825070 -0.482652
O30   O     O_R   0.554200 0.917770 0.174930 -0.494310
O31   O     O_R   0.945800 0.417770 0.825070 -0.482652
O32   O     O_R   0.054200 0.417770 0.174930 -0.494309
O33   O     O_R   0.456410 0.716580 0.829970 -0.518577
O34   O     O_R   0.543590 0.716580 0.170030 -0.443264
O35   O     O_R   0.956410 0.216580 0.829970 -0.518578
O36   O     O_R   0.043590 0.216580 0.170030 -0.443264
O37   O     O_R   0.321080 0.625290 0.822650 -0.492472
O38   O     O_R   0.678920 0.625290 0.177350 -0.485140
O39   O     O_R   0.821080 0.125290 0.822650 -0.492473
O40   O     O_R   0.178920 0.125290 0.177350 -0.485140
O41   O     O_R   0.214930 0.711450 0.668160 -0.432870
O42   O     O_R   0.785070 0.711450 0.331840 -0.428238
O43   O     O_R   0.714930 0.211450 0.668160 -0.432871
O44   O     O_R   0.285070 0.211450 0.331840 -0.428238
O45   O     O_R   0.236850 0.959870 0.675420 -0.462522
O46   O     O_R   0.763150 0.959870 0.324580 -0.456042
O47   O     O_R   0.736850 0.459870 0.675420 -0.462519
O48   O     O_R   0.263150 0.459870 0.324580 -0.456041
O49   O     O_R   0.332230 0.076350 0.670880 -0.512858
O50   O     O_R   0.667770 0.076350 0.329120 -0.515996
O51   O     O_R   0.832230 0.576350 0.670880 -0.512860
O52   O     O_R   0.167770 0.576350 0.329120 -0.515996
C85   C     C_2   0.543675 0.613695 0.927490 0.249795
H13   H     H_    0.561443 0.618035 0.872453 0.155618
O53   O     O_2   0.554010 0.521233 0.960642 -0.577615
C86   C     C_2   0.465423 0.613258 0.069255 0.287504
H14   H     H_    0.408926 0.602720 0.071089 0.081276
O54   O     O_2   0.502417 0.537408 0.097321 -0.441950
C87   C     C_2   0.043675 0.113695 0.927490 0.249794
H15   H     H_    0.061443 0.118036 0.872453 0.155618
O55   O     O_2   0.054010 0.021233 0.960641 -0.577613
C88   C     C_2   0.965423 0.113258 0.069255 0.287502
H16   H     H_    0.908926 0.102721 0.071091 0.081276
O56   O     O_2   0.002418 0.037407 0.097320 -0.441949
O57   O     O_3   0.205569 0.808366 0.549227 -0.661644
H17   H     H_    0.180693 0.850598 0.510248 0.319772
O58   O     O_3   0.867616 0.643501 0.430160 -0.633723
H18   H     H_    0.902068 0.649227 0.469278 0.354816
O59   O     O_3   0.705569 0.308366 0.549227 -0.661643
H19   H     H_    0.680693 0.350598 0.510248 0.319772
O60   O     O_3   0.367615 0.143502 0.430161 -0.633722
H20   H     H_    0.402067 0.149227 0.469279 0.354816
C89   C     C_2   0.334804 0.613853 0.424121 0.221935
H21   H     H_    0.355464 0.663721 0.468705 0.117619
O61   O     O_2   0.376334 0.562509 0.384945 -0.456574
C90   C     C_2   0.707206 0.679408 0.561669 0.202195
H22   H     H_    0.701966 0.718017 0.508813 0.101759
O62   O     O_2   0.670112 0.718297 0.609549 -0.506421
C91   C     C_2   0.834803 0.113853 0.424121 0.221935
H23   H     H_    0.855464 0.163720 0.468705 0.117621
O63   O     O_2   0.876334 0.062511 0.384944 -0.456576
C92   C     C_2   0.207207 0.179411 0.561670 0.202197
H24   H     H_    0.201966 0.218017 0.508812 0.101760
O64   O     O_2   0.170117 0.218306 0.609550 -0.506420
C93   C     C_2   0.449351 0.057088 0.137964 0.368810
H25   H     H_    0.409812 0.990534 0.152764 0.091208
O65   O     O_2   0.470291 0.126478 0.183161 -0.419435
C94   C     C_2   0.566086 0.038373 0.851059 0.322122
H26   H     H_    0.597730 0.959497 0.839820 0.095706
O66   O     O_2   0.561544 0.115985 0.804880 -0.450100
C95   C     C_2   0.949351 0.557088 0.137964 0.368810
H27   H     H_    0.909812 0.490534 0.152764 0.091208
O67   O     O_2   0.970292 0.626477 0.183161 -0.419434
C96   C     C_2   0.066086 0.538373 0.851059 0.322122
H28   H     H_    0.097729 0.459497 0.839820 0.095707
O68   O     O_2   0.061545 0.615986 0.804880 -0.450101
C97   C     C_2   0.964999 0.782290 0.051218 0.296584
H29   H     H_    0.983178 0.862919 0.024894 0.145862
O69   O     O_2   0.923024 0.793069 0.100171 -0.377557
C98   C     C_2   0.032322 0.769388 0.913660 0.294356
H30   H     H_    0.081628 0.814657 0.922561 0.174676
O70   O     O_2   0.991973 0.808454 0.869085 -0.410020
C99   C     C_2   0.465000 0.282290 0.051218 0.296583
H31   H     H_    0.483181 0.362918 0.024896 0.145862
O71   O     O_2   0.423023 0.293069 0.100169 -0.377559
C100  C     C_2   0.532322 0.269387 0.913660 0.294355
H32   H     H_    0.581627 0.314658 0.922561 0.174676
O72   O     O_2   0.491972 0.308453 0.869085 -0.410020
O73   O     O_3   0.287017 0.374776 0.056699 -0.649072
H33   H     H_    0.310524 0.326013 0.019847 0.398393
O74   O     O_3   0.714611 0.368914 0.943719 -0.695426
H34   H     H_    0.690269 0.317042 0.978965 0.365527
O75   O     O_3   0.787018 0.874777 0.056699 -0.649071
H35   H     H_    0.810525 0.826014 0.019847 0.398393
O76   O     O_3   0.214611 0.868913 0.943719 -0.695426
H36   H     H_    0.190270 0.817042 0.978965 0.365527
C101  C     C_2   0.360295 0.468672 0.924817 0.256096
H37   H     H_    0.409020 0.476258 0.953445 0.122767
O77   O     O_2   0.359138 0.413095 0.869079 -0.398265
C102  C     C_2   0.654755 0.432927 0.085990 0.315895
H38   H     H_    0.609140 0.403147 0.057179 0.160433
O78   O     O_2   0.661535 0.398516 0.147502 -0.445445
C103  C     C_2   0.860295 0.968674 0.924817 0.256095
H39   H     H_    0.909021 0.976264 0.953444 0.122767
O79   O     O_2   0.859138 0.913094 0.869080 -0.398265
C104  C     C_2   0.154755 0.932927 0.085990 0.315896
H40   H     H_    0.109140 0.903146 0.057178 0.160434
O80   O     O_2   0.161535 0.898516 0.147502 -0.445445
O81   O     O_3   0.257897 0.700832 0.061927 -0.719151
H41   H     H_    0.293728 0.716218 0.024232 0.311783
O82   O     O_3   0.744393 0.694516 0.941266 -0.699859
H42   H     H_    0.708609 0.707705 0.979087 0.323671
O83   O     O_3   0.757897 0.200833 0.061927 -0.719150
H43   H     H_    0.793727 0.216219 0.024232 0.311784
O84   O     O_3   0.244393 0.194516 0.941265 -0.699860
H44   H     H_    0.208609 0.207704 0.979087 0.323671
O85   O     O_3   0.177459 0.590035 0.945819 -0.729755
H45   H     H_    0.164381 0.520058 0.976437 0.320633
O86   O     O_3   0.823732 0.597047 0.054534 -0.683977
H46   H     H_    0.839408 0.528539 0.024915 0.312445
O87   O     O_3   0.677459 0.090035 0.945819 -0.729755
H47   H     H_    0.664381 0.020058 0.976437 0.320633
O88   O     O_3   0.323732 0.097046 0.054534 -0.683976
H48   H     H_    0.339408 0.028539 0.024915 0.312445
O89   O     O_3   0.451804 0.898162 0.447484 -0.697836
H49   H     H_    0.432319 0.938165 0.404627 0.346543
O90   O     O_3   0.541264 0.949434 0.562776 -0.657592
H50   H     H_    0.534144 0.008658 0.601233 0.345905
O91   O     O_3   0.951804 0.398162 0.447484 -0.697836
H51   H     H_    0.932319 0.438164 0.404628 0.346543
O92   O     O_3   0.041264 0.449434 0.562777 -0.657590
H52   H     H_    0.034144 0.508658 0.601233 0.345904

loop_
_geom_bond_atom_site_label_1
_geom_bond_atom_site_label_2
_ccdc_geom_bond_type
C16   C28   D    
C20   O84   S    
C13   O85   S    
C22   O74   S    
C38   C70   S    
Cr10  O38   S    
C92   H24   S    
C37   C69   S    
Cr2   O18   S    
Cr4   O44   S    
Cr1   O17   S    
C35   C36   S    
C70   O42   A    
C12   C100  S    
Cr9   O33   S    
C13   C25   D    
Cr7   O27   S    
C6    C94   S    
C85   H13   S    
C53   O57   S    
O88   H48   S    
C87   O55   D    
Cr5   O17   S    
C97   H29   S    
C31   C67   S    
Cr6   O30   S    
C48   O36   A    
O87   H47   S    
C50   C54   S    
C7    C79   A    
Cr7   O19   S    
C3    O23   A    
Cr4   O48   S    
C71   O15   A    
C86   H14   S    
Cr2   O2    S    
O82   H42   S    
Cr9   O13   S    
C47   C76   S    
C5    C11   A    
Cr1   O1    S    
Cr2   O42   S    
C6    C12   A    
O89   H49   S    
Cr6   O26   S    
Cr5   O29   S    
C100  O72   D    
C75   C84   A    
C6    C78   A    
C59   O39   A    
Cr3   O3    S    
C88   H16   S    
O84   H44   S    
C47   O35   A    
Cr3   O19   S    
C90   H22   S    
Cr12  O20   S    
C3    C18   S    
O83   H43   S    
C16   C60   S    
Cr3   O23   S    
C67   O7    A    
C10   C98   S    
C37   H5    S    
Cr1   O21   S    
C41   C49   D    
C39   C55   D    
C23   O75   S    
C26   C102  S    
C98   H30   S    
C40   C56   D    
C35   H11   S    
C59   O3    A    
C62   O50   A    
Cr9   O37   S    
C63   O51   A    
C18   C22   D    
C66   O6    A    
C9    C10   A    
Cr7   O51   S    
Cr10  O10   S    
C4    O28   A    
C11   C99   S    
C44   C52   D    
Cr10  O18   S    
C1    O21   A    
C95   H27   S    
Cr3   O43   S    
O85   H45   S    
C72   O16   A    
C45   O33   A    
C55   O59   S    
C48   C75   S    
C41   C89   S    
Cr8   O28   S    
C104  O80   D    
C1    O25   A    
Cr8   O20   S    
C76   C83   A    
C102  O78   D    
C102  H38   S    
C85   O53   D    
C16   O88   S    
Cr12  O12   S    
C81   C82   A    
Cr5   O5    S    
C89   O61   D    
C51   H3    S    
C14   C58   S    
C44   C92   S    
C50   H2    S    
Cr5   O25   S    
C96   H28   S    
C48   O32   A    
C46   O34   A    
C52   C56   S    
C34   H10   S    
C32   C35   D    
C20   C24   D    
Cr11  O39   S    
C69   O41   A    
O76   H36   S    
C94   O66   D    
C66   O10   A    
C87   H15   S    
Cr12  O16   S    
C100  H32   S    
Cr2   O22   S    
C15   O87   S    
C51   C55   S    
C93   O65   D    
O73   H33   S    
C77   C78   A    
C83   C87   S    
C29   C34   D    
C52   H4    S    
C17   C21   D    
C62   O46   A    
Cr12  O40   S    
C57   O1    A    
C45   C74   S    
Cr10  O34   S    
C54   O58   S    
C89   H21   S    
C19   C23   D    
C37   C53   D    
C99   H31   S    
O75   H35   S    
C60   O4    A    
C61   O49   A    
C40   H8    S    
C57   O37   A    
C70   O14   A    
C15   C27   D    
C83   C84   A    
C38   C54   D    
C7    C95   S    
C69   O13   A    
C11   C12   A    
C64   O52   A    
O91   H51   S    
C45   O29   A    
C33   C34   S    
Cr6   O18   S    
C30   O89   S    
C33   H9    S    
C103  O79   D    
Cr1   O45   S    
C14   C26   D    
Cr5   O49   S    
Cr8   O8    S    
C95   O67   D    
C30   C66   S    
O60   H20   S    
C96   O68   D    
C42   C50   D    
C29   C65   S    
C4    C17   S    
Cr10  O14   S    
C27   C103  S    
C99   O71   D    
Cr9   O17   S    
C68   O8    A    
O59   H19   S    
C23   C27   S    
C74   C78   A    
Cr7   O31   S    
C76   C80   A    
C104  H40   S    
Cr4   O24   S    
C74   C81   A    
C5    C77   A    
O92   H52   S    
Cr8   O32   S    
C73   C82   A    
O74   H34   S    
C71   O43   A    
C18   O82   S    
C72   O44   A    
C5    C93   S    
C14   O86   S    
C39   C71   S    
C24   O76   S    
Cr11  O15   S    
C7    C9    A    
C21   C25   S    
C32   O91   S    
C1    C20   S    
C73   C77   A    
C40   C72   S    
C30   C33   D    
C101  H37   S    
C2    C19   S    
C58   O2    A    
C15   C59   S    
C92   O64   D    
C65   O5    A    
C8    C10   A    
Cr11  O35   S    
C24   C28   S    
C94   H26   S    
C61   O45   A    
C43   C91   S    
C31   O92   S    
O86   H46   S    
C2    O26   A    
C39   H7    S    
Cr3   O47   S    
C44   C61   S    
C82   C86   S    
C64   O48   A    
C84   C88   S    
Cr9   O9    S    
C46   O30   A    
C58   O38   A    
Cr8   O52   S    
C42   C90   S    
C86   O54   D    
Cr2   O46   S    
C63   O47   A    
C91   H23   S    
Cr4   O20   S    
O58   H18   S    
C9    C97   S    
C75   C79   A    
C68   O12   A    
C32   C68   S    
C81   C85   S    
C4    O24   A    
C43   C51   D    
C88   O56   D    
C36   H12   S    
C49   C53   S    
C8    C96   S    
C101  O77   D    
C2    O22   A    
Cr7   O7    S    
C90   O62   D    
C3    O27   A    
Cr6   O6    S    
C38   H6    S    
Cr1   O41   S    
C91   O63   D    
C49   H1    S    
Cr11  O11   S    
C19   O83   S    
O57   H17   S    
C79   C80   A    
Cr4   O4    S    
Cr11  O19   S    
C13   C57   S    
Cr6   O50   S    
C98   O70   D    
C93   H25   S    
C22   C26   S    
C47   O31   A    
C103  H39   S    
C8    C80   A    
C65   O9    A    
C31   C36   D    
C29   O90   S    
C21   O73   S    
C60   O40   A    
C41   C64   S    
O81   H41   S    
C97   O69   D    
C67   O11   A    
C42   C63   S    
C56   O60   S    
C46   C73   S    
O90   H50   S    
C43   C62   S    
C28   C104  S    
C25   C101  S    
Cr12  O36   S    
C17   O81   S    
