data_mof_unit_7840.cif
_audit_creation_date              2012-12-10T20:41:01-0500
_audit_creation_method            fapswitch 2.2
_symmetry_space_group_name_H-M    P1
_symmetry_Int_Tables_number       1
_space_group_crystal_system       triclinic
_cell_length_a                    27.04555
_cell_length_b                    10.683097
_cell_length_c                    9.833399
_cell_angle_alpha                 89.997113
_cell_angle_beta                  90.447842
_cell_angle_gamma                 90.432561
_cell_volume                      2840.99851918

loop_
_atom_site_label
_atom_site_type_symbol
_atom_type_description
_atom_site_fract_x
_atom_site_fract_y
_atom_site_fract_z
_atom_type_partial_charge
C1    C     C_R   0.501372 0.259953 0.500084 0.919425
C2    C     C_R   0.979220 0.685914 0.383195 0.064944
C3    C     C_R   0.975910 0.738770 0.627211 0.045949
C4    C     C_R   0.405613 0.504033 0.499720 0.929530
C5    C     C_R   0.951871 0.703021 0.504264 0.076099
C6    C     C_R   0.954741 0.635140 0.268130 -0.146289
C7    C     C_R   0.904514 0.608305 0.269910 -0.163486
C8    C     C_R   0.876892 0.630301 0.386761 -0.024416
C9    C     C_R   0.900253 0.679385 0.503686 -0.054992
C10   C     C_R   0.872205 0.701295 0.621149 -0.028531
C11   C     C_R   0.821352 0.674320 0.619096 0.525734
C12   C     C_R   0.271887 0.526887 0.590349 -0.172948
C13   C     C_R   0.826525 0.599882 0.390848 0.528051
C14   C     C_R   0.716546 0.642887 0.407412 -0.075752
C15   C     C_R   0.666904 0.609120 0.403366 -0.284798
C16   C     C_R   0.501685 0.740218 0.499778 0.952721
C17   C     C_R   0.678829 0.476068 0.601064 0.609321
C18   C     C_R   0.729004 0.507415 0.602524 -0.172512
C19   C     C_R   0.748004 0.591589 0.506156 0.201818
C20   C     C_R   0.030745 0.710097 0.384205 -0.087721
C21   C     C_R   0.055432 0.724797 0.511139 0.013568
C22   C     C_R   0.028353 0.739987 0.633032 0.062856
C23   C     C_R   0.259690 0.642599 0.532328 0.149453
C24   C     C_R   0.059125 0.716108 0.263755 0.581881
C25   C     C_R   0.106071 0.739709 0.761756 -0.117156
C26   C     C_R   0.946506 0.766297 0.741475 -0.209904
C27   C     C_R   0.895514 0.748575 0.737953 -0.121929
C28   C     C_R   0.594528 0.502166 0.500413 0.931876
C29   C     C_R   0.054812 0.749380 0.757388 -0.195185
C30   C     C_R   0.507222 0.063934 0.623255 0.179843
C31   C     C_R   0.509161 0.128964 0.500964 -0.206011
C32   C     C_R   0.520779 0.066158 0.380423 -0.294401
C33   C     C_R   0.521097 0.936754 0.379518 0.603776
C34   C     C_R   0.107687 0.719357 0.516389 -0.058501
C35   C     C_R   0.509581 0.871846 0.499990 -0.251825
C36   C     C_R   0.507412 0.936352 0.622741 0.070266
C37   C     C_3   0.470424 0.928026 0.734571 -0.457263
C38   C     C_3   0.470110 0.069823 0.734780 -0.473244
C39   C     C_R   0.476682 0.406226 0.070821 0.222796
C40   C     C_R   0.185624 0.685367 0.403666 0.619720
C41   C     C_R   0.527130 0.585231 0.072639 -0.107423
C42   C     C_R   0.526958 0.585590 0.928432 -0.095538
C43   C     C_R   0.476692 0.406193 0.928094 0.236094
C44   C     C_3   0.423044 0.373352 0.921190 -0.521026
C45   C     C_R   0.134737 0.706098 0.395799 -0.141288
C46   C     C_3   0.423080 0.373293 0.075625 -0.510334
C47   C     C_R   0.184036 0.702026 0.645662 0.498257
C48   C     C_R   0.295995 0.714315 0.466432 0.439380
C49   C     C_R   0.342274 0.660397 0.439837 0.306694
C50   C     C_R   0.319654 0.480748 0.579186 -0.325416
C51   C     C_3   0.310201 0.924943 0.495093 0.065081
C52   C     C_3   0.283017 0.955207 0.627197 -0.346409
C53   C     C_3   0.308878 0.060776 0.705188 -0.961795
C54   C     C_3   0.361230 0.719736 0.223733 0.126282
C55   C     C_3   0.405065 0.750911 0.132782 -0.313249
C56   C     C_R   0.110359 0.711450 0.270215 -0.198079
C57   C     C_3   0.390749 0.742901 0.982539 -0.964473
C58   C     C_R   0.132808 0.722071 0.642291 -0.011661
C59   C     C_R   0.354489 0.545365 0.501188 -0.169476
C60   C     C_R   0.647677 0.526295 0.500473 -0.183823
F1    F     F_    0.660931 0.395788 0.696037 -0.642021
F2    F     F_    0.529023 0.876935 0.259906 -0.682721
F3    F     F_    0.038307 0.733753 0.139342 -0.709986
H1    H     H_    0.329187 0.393418 0.628527 0.169075
H2    H     H_    0.486775 0.887817 0.828814 0.219711
H3    H     H_    0.434316 0.110052 0.700545 0.184726
H4    H     H_    0.485920 0.111228 0.829443 0.217542
H5    H     H_    0.548189 0.655464 0.127677 0.203054
H6    H     H_    0.547810 0.656261 0.874259 0.160847
H7    H     H_    0.400277 0.448986 0.875840 0.225664
H8    H     H_    0.416406 0.279081 0.876799 0.199606
H9    H     H_    0.400314 0.448973 0.119844 0.218646
H10   H     H_    0.416684 0.278904 0.119992 0.205705
H11   H     H_    0.130821 0.710729 0.175914 0.212324
H12   H     H_    0.124544 0.742957 0.859889 0.201739
H13   H     H_    0.643169 0.650780 0.326745 0.195969
H14   H     H_    0.730677 0.708905 0.333437 0.177529
H15   H     H_    0.887613 0.567908 0.179628 0.199414
H16   H     H_    0.974082 0.607073 0.177891 0.213104
H17   H     H_    0.311884 0.011088 0.431968 0.175492
H18   H     H_    0.349277 0.899324 0.517893 0.156117
H19   H     H_    0.244423 0.983101 0.603030 0.244452
H20   H     H_    0.281879 0.870856 0.693141 0.247989
H21   H     H_    0.346922 0.032468 0.734534 0.259081
H22   H     H_    0.287970 0.081754 0.799092 0.282751
H23   H     H_    0.961883 0.802686 0.835042 0.166573
H24   H     H_    0.310688 0.146844 0.641978 0.258806
H25   H     H_    0.331941 0.790338 0.205377 0.200283
H26   H     H_    0.346767 0.625211 0.194419 0.137878
H27   H     H_    0.419086 0.846672 0.156132 0.243408
H28   H     H_    0.435106 0.683670 0.153961 0.261952
H29   H     H_    0.372745 0.651581 0.959378 0.268074
H30   H     H_    0.424415 0.751100 0.919613 0.270193
H31   H     H_    0.365020 0.819654 0.955285 0.276112
H32   H     H_    0.874595 0.769112 0.828672 0.196796
H33   H     H_    0.753173 0.466269 0.678307 0.186499
H34   H     H_    0.036772 0.757539 0.854240 0.198120
H35   H     H_    0.526423 0.116008 0.285772 0.201107
H36   H     H_    0.434675 0.885526 0.701027 0.201165
H37   H     H_    0.244107 0.472117 0.642822 0.183588
N1    N     N_R   0.209016 0.680701 0.527546 -0.324485
N2    N     N_R   0.799713 0.622660 0.505653 -0.341305
N3    N     N_R   0.499670 0.499140 0.142800 -0.128522
N4    N     N_R   0.499670 0.499180 0.857150 -0.110817
O1    O     O_R   0.500010 0.316790 0.614690 -0.608115
O2    O     O_R   0.571250 0.500000 0.614690 -0.568413
O3    O     O_R   0.571240 0.499960 0.385340 -0.622427
O4    O     O_2   0.211259 0.665223 0.288509 -0.549591
O5    O     O_3   0.284225 0.832616 0.418942 -0.630226
O6    O     O_3   0.376857 0.722999 0.361328 -0.655130
O7    O     O_2   0.804641 0.545955 0.281503 -0.541797
O8    O     O_2   0.208519 0.701511 0.765748 -0.570451
O9    O     O_2   0.793770 0.699591 0.729392 -0.543318
O10   O     O_R   0.500000 0.316760 0.385350 -0.627472
O11   O     O_R   0.428760 0.500040 0.614660 -0.625950
O12   O     O_R   0.428750 0.500000 0.385310 -0.602105
O13   O     O_R   0.500000 0.683240 0.614650 -0.638434
O14   O     O_R   0.499990 0.683210 0.385310 -0.561331
Zn1   Zn    Zn3+2 0.500000 0.500020 0.653130 0.974378
Zn2   Zn    Zn3+2 0.500000 0.499980 0.346870 0.974589

loop_
_geom_bond_atom_site_label_1
_geom_bond_atom_site_label_2
_ccdc_geom_bond_type
C10   C27   A    
C8    C13   A    
C47   N1    A    
C22   C29   A    
O2    Zn1   S    
C18   H33   S    
C15   C60   A    
C4    O11   A    
C27   H32   S    
C35   C36   A    
C7    C8    A    
C12   C23   A    
C54   O6    S    
C26   C27   A    
C53   H21   S    
C50   C59   A    
C36   C37   S    
C57   H29   S    
C55   H27   S    
O13   Zn1   S    
C16   C35   S    
C30   C31   A    
C19   N2    S    
C28   O3    A    
C47   O8    S    
C1    C31   S    
C50   H1    S    
C30   C38   S    
C44   H8    S    
C18   C19   A    
C41   C42   A    
C14   H14   S    
C51   H17   S    
C55   H28   S    
C17   F1    S    
C40   N1    A    
C43   N4    A    
C38   H3    S    
C45   C56   A    
C28   O2    A    
C33   F2    S    
C37   H2    S    
C44   H7    S    
C9    C10   A    
C51   H18   S    
C46   H9    S    
C40   O4    S    
N4    Zn1   S    
C48   O5    S    
C51   O5    S    
C57   H30   S    
C21   C22   A    
C2    C6    A    
C44   C46   S    
C41   H5    S    
C28   C60   S    
C25   C29   A    
C40   C45   A    
C56   H11   S    
C2    C20   A    
C51   C52   S    
C20   C24   A    
C54   H26   S    
C8    C9    A    
C39   C43   A    
C21   C34   A    
C42   H6    S    
O12   Zn2   S    
C25   H12   S    
C52   H20   S    
C43   C44   S    
C5    C9    A    
C37   C38   S    
C16   O14   A    
C31   C32   A    
C26   H23   S    
C17   C18   A    
C53   H24   S    
C34   C45   A    
C38   H4    S    
C52   H19   S    
C7    H15   S    
C48   C49   A    
C24   F3    S    
O11   Zn1   S    
C57   H31   S    
C55   C57   S    
C2    C5    A    
C1    O10   A    
O3    Zn2   S    
C37   H36   S    
C52   C53   S    
C54   C55   S    
C23   C48   A    
C14   C19   A    
C4    O12   A    
C3    C26   A    
C3    C5    A    
C42   N4    A    
C12   C50   A    
C39   N3    A    
C6    C7    A    
C29   H34   S    
C24   C56   A    
C49   C59   A    
C30   C36   A    
C32   C33   A    
C53   H22   S    
C13   O7    S    
C16   O13   A    
C47   C58   A    
C54   H25   S    
C6    H16   S    
C23   N1    S    
C4    C59   S    
C33   C35   A    
N3    Zn2   S    
C32   H35   S    
C39   C46   S    
C11   N2    A    
C11   O9    S    
O14   Zn2   S    
C12   H37   S    
C10   C11   A    
C17   C60   A    
C41   N3    A    
C20   C21   A    
C25   C58   A    
C34   C58   A    
C14   C15   A    
O1    Zn1   S    
C3    C22   A    
C15   H13   S    
C13   N2    A    
C46   H10   S    
O10   Zn2   S    
C1    O1    A    
C49   O6    S    
