data_mof_unit_21867.cif
_audit_creation_date              2012-10-26T18:28:57-0400
_audit_creation_method            fapswitch 2.2
_symmetry_space_group_name_H-M    P1
_symmetry_Int_Tables_number       1
_space_group_crystal_system       triclinic
_cell_length_a                    11.7482
_cell_length_b                    12.934248
_cell_length_c                    15.523843
_cell_angle_alpha                 92.790956
_cell_angle_beta                  74.554835
_cell_angle_gamma                 98.420783
_cell_volume                      2249.09323974

loop_
_atom_site_label
_atom_site_type_symbol
_atom_type_description
_atom_site_fract_x
_atom_site_fract_y
_atom_site_fract_z
_atom_type_partial_charge
C1    C     C_R   0.518462 0.700180 0.503590 0.552713
C2    C     C_R   0.400965 0.023271 0.430582 -0.127155
C3    C     C_R   0.583830 0.867538 0.571120 -0.112055
C4    C     C_R   0.406346 0.131151 0.438517 -0.122794
C5    C     C_R   0.459963 0.863650 0.467747 -0.118856
C6    C     C_R   0.517625 0.133516 0.550052 -0.145735
C7    C     C_R   0.458996 0.970686 0.479106 0.045751
C8    C     C_R   0.518380 0.026268 0.539088 0.045607
C9    C     C_R   0.946363 0.620774 0.563338 -0.045137
C10   C     C_R   0.070322 0.416069 0.404344 -0.046314
C11   C     C_R   0.825973 0.602878 0.560248 0.018301
C12   C     C_R   0.479537 0.299591 0.499419 0.538363
C13   C     C_R   0.184853 0.420970 0.417670 0.025271
C14   C     C_R   0.860038 0.450928 0.471075 0.402132
C15   C     C_R   0.140110 0.544657 0.535658 0.397100
C16   C     C_R   0.427922 0.492826 0.668674 0.538898
C17   C     C_R   0.572263 0.509214 0.331337 0.544831
C18   C     C_R   0.984918 0.471836 0.463899 -0.066045
C19   C     C_R   0.024715 0.547667 0.521345 -0.082898
C20   C     C_R   0.386310 0.488598 0.766676 -0.011596
C21   C     C_R   0.612012 0.538764 0.236309 -0.003398
C22   C     C_R   0.234378 0.435008 0.901145 -0.123395
C23   C     C_R   0.334059 0.538906 0.100320 0.031510
C24   C     C_R   0.748146 0.643554 0.116677 -0.135886
C25   C     C_R   0.274918 0.434795 0.808553 -0.167877
C26   C     C_R   0.722983 0.598011 0.200726 -0.163427
C27   C     C_R   0.459945 0.537368 0.818730 -0.078413
C28   C     C_R   0.528288 0.524054 0.185840 -0.069406
C29   C     C_R   0.418198 0.545094 0.912561 0.014284
C30   C     C_R   0.546878 0.578139 0.105720 0.019741
C31   C     C_R   0.303264 0.491535 0.953964 0.037587
C32   C     C_R   0.660732 0.634522 0.068552 0.040563
C33   C     C_R   0.491775 0.594830 0.966871 -0.024347
C34   C     C_R   0.600021 0.664033 0.933929 0.019744
C35   C     C_R   0.456985 0.571162 0.059111 -0.024118
C36   C     C_3   0.058384 0.507341 0.083170 -0.031639
C37   C     C_3   0.940156 0.436540 0.093404 -0.365710
C38   C     C_3   0.783527 0.848164 0.983331 -0.021522
C39   C     C_3   0.901459 0.916497 0.944565 -0.361790
C40   C     C_2   0.989379 0.721305 0.602413 0.218377
C41   C     C_2   0.046175 0.360186 0.323690 0.226986
C42   C     C_2   0.278116 0.563756 0.195501 0.222710
C43   C     C_2   0.621051 0.729933 0.853854 0.204665
C44   C     C_3   0.112660 0.564814 0.686545 -0.012329
C45   C     C_R   0.258590 0.495314 0.047582 0.235082
C46   C     C_3   0.147877 0.636079 0.758886 -0.338020
C47   C     C_3   0.789682 0.277755 0.499752 -0.002068
C48   C     C_3   0.897208 0.227891 0.506403 -0.415223
C49   C     C_R   0.683998 0.683207 0.985259 0.225346
C50   C     C_R   0.467617 0.186482 0.496335 0.004922
C51   C     C_R   0.522862 0.812386 0.513081 0.004668
C52   C     C_R   0.580264 0.974175 0.585054 -0.123607
Cu1   Cu    Cu3+1 0.386820 0.492450 0.493500 1.007678
Cu2   Cu    Cu3+1 0.613180 0.507550 0.506500 0.973731
H1    H     H_    0.250493 0.378427 0.373679 0.169283
H2    H     H_    0.413408 0.820365 0.422686 0.141205
H3    H     H_    0.365235 0.171736 0.397929 0.134550
H4    H     H_    0.631431 0.827622 0.607278 0.152014
H5    H     H_    0.626809 0.015972 0.630654 0.117086
H6    H     H_    0.354726 0.981544 0.384768 0.125064
H7    H     H_    0.079597 0.548611 0.018188 0.127252
H8    H     H_    0.048374 0.566818 0.137868 0.131167
H9    H     H_    0.952279 0.368074 0.047538 0.162203
H10   H     H_    0.904822 0.408557 0.163213 0.159063
H11   H     H_    0.874571 0.479525 0.076142 0.115260
H12   H     H_    0.766162 0.657854 0.591961 0.176146
H13   H     H_    0.764522 0.851669 0.057551 0.138982
H14   H     H_    0.712278 0.880870 0.962757 0.147796
H15   H     H_    0.922073 0.915832 0.870439 0.179696
H16   H     H_    0.895937 0.998092 0.969346 0.105277
H17   H     H_    0.974263 0.886822 0.965104 0.162878
H18   H     H_    0.082933 0.753561 0.583112 0.168094
H19   H     H_    0.972909 0.375910 0.298508 0.164892
H20   H     H_    0.192106 0.522711 0.229717 0.147609
H21   H     H_    0.711281 0.756146 0.814887 0.180265
H22   H     H_    0.131742 0.484801 0.693977 0.137802
H23   H     H_    0.446858 0.471289 0.211007 0.139325
H24   H     H_    0.014621 0.560032 0.697943 0.123656
H25   H     H_    0.103835 0.601688 0.825717 0.105049
H26   H     H_    0.245977 0.646442 0.748762 0.184559
H27   H     H_    0.119553 0.713882 0.756434 0.173073
H28   H     H_    0.730985 0.214345 0.476395 0.172983
H29   H     H_    0.741317 0.303315 0.567598 0.138686
H30   H     H_    0.956007 0.281868 0.538872 0.137691
H31   H     H_    0.865236 0.157332 0.548810 0.110014
H32   H     H_    0.947448 0.202700 0.439565 0.195740
H33   H     H_    0.550878 0.566388 0.784786 0.143492
H34   H     H_    0.789145 0.611268 0.238570 0.131300
H35   H     H_    0.220260 0.390303 0.769797 0.112664
H36   H     H_    0.148517 0.390573 0.931027 0.152804
H37   H     H_    0.835675 0.687264 0.090309 0.149808
H38   H     H_    0.559452 0.176326 0.597917 0.088848
N1    N     N_R   0.216750 0.481110 0.483710 -0.233389
N2    N     N_R   0.783250 0.518890 0.516290 -0.247026
O1    O     O_R   0.419950 0.645670 0.495380 -0.446974
O2    O     O_3   0.792233 0.744829 0.950999 -0.583804
O3    O     O_2   0.920118 0.770569 0.655559 -0.548347
O4    O     O_2   0.110072 0.297763 0.282816 -0.515451
O5    O     O_2   0.324437 0.634512 0.235220 -0.515156
O6    O     O_2   0.538013 0.759729 0.833193 -0.524992
O7    O     O_3   0.177129 0.605365 0.601591 -0.542150
O8    O     O_3   0.815762 0.358561 0.435657 -0.554822
O9    O     O_R   0.580050 0.354330 0.504620 -0.475665
O10   O     O_R   0.611110 0.658410 0.506370 -0.524116
O11   O     O_R   0.388890 0.341590 0.493630 -0.519186
O12   O     O_R   0.350820 0.490050 0.621260 -0.472015
O13   O     O_R   0.649180 0.509950 0.378740 -0.475470
O14   O     O_R   0.541970 0.502800 0.632250 -0.517923
O15   O     O_R   0.458030 0.497200 0.367750 -0.500159
O16   O     O_3   0.145736 0.445410 0.088878 -0.562433

loop_
_geom_bond_atom_site_label_1
_geom_bond_atom_site_label_2
_ccdc_geom_bond_type
C30   C32   A    
C21   C26   A    
C23   C45   A    
Cu1   O1    S    
C14   C18   A    
C5    H2    S    
C2    C7    A    
C7    C8    A    
Cu1   Cu2   S    
C15   C19   A    
C23   C42   S    
Cu2   O13   S    
Cu2   O10   S    
C16   C20   S    
C24   C26   A    
C17   O13   A    
C12   O11   A    
C3    C52   A    
C2    H6    S    
C14   O8    S    
C27   C29   A    
C20   C25   A    
C29   C33   A    
C18   C19   A    
C47   H28   S    
C44   H22   S    
Cu1   O12   S    
C9    C19   A    
C46   H25   S    
C22   C25   A    
C37   H11   S    
C4    H3    S    
C47   H29   S    
C8    C52   A    
C11   H12   S    
C16   O12   A    
C47   O8    S    
C10   C41   S    
C43   H21   S    
C36   H8    S    
C37   H9    S    
C44   C46   S    
C39   H15   S    
C42   H20   S    
C22   C31   A    
Cu1   N1    S    
Cu2   O9    S    
C43   O6    D    
C12   O9    A    
C40   O3    D    
C5    C7    A    
C3    C51   A    
C45   O16   S    
C6    C8    A    
C9    C40   S    
C6    C50   A    
C48   H30   S    
C4    C50   A    
C2    C4    A    
C24   C32   A    
C52   H5    S    
C46   H27   S    
C1    C51   S    
C47   C48   S    
C1    O1    A    
C33   C34   A    
C22   H36   S    
C15   O7    S    
C27   H33   S    
C28   H23   S    
C9    C11   A    
C1    O10   A    
C30   C35   A    
C11   N2    A    
C21   C28   A    
C38   H14   S    
C23   C35   A    
C36   O16   S    
C48   H32   S    
C38   O2    S    
C36   H7    S    
C24   H37   S    
C37   H10   S    
Cu1   O15   S    
C36   C37   S    
C34   C49   A    
C40   H18   S    
C41   O4    D    
C34   C43   S    
C10   C13   A    
C17   O15   A    
C15   N1    A    
C12   C50   S    
C44   O7    S    
C20   C27   A    
C25   H35   S    
Cu2   O14   S    
C44   H24   S    
C29   C31   A    
C42   O5    D    
C46   H26   S    
C38   C39   S    
C10   C18   A    
C6    H38   S    
C28   C30   A    
C33   C35   A    
C39   H16   S    
C49   O2    S    
C17   C21   S    
C32   C49   A    
Cu2   N2    S    
C16   O14   A    
C41   H19   S    
C3    H4    S    
Cu1   O11   S    
C38   H13   S    
C26   H34   S    
C31   C45   A    
C13   N1    A    
C39   H17   S    
C48   H31   S    
C5    C51   A    
C14   N2    A    
C13   H1    S    
