data_mof_unit_26403.cif
_audit_creation_date              2012-12-10T17:12:02-0500
_audit_creation_method            fapswitch 2.2
_symmetry_space_group_name_H-M    P1
_symmetry_Int_Tables_number       1
_space_group_crystal_system       triclinic
_cell_length_a                    11.850972
_cell_length_b                    13.023755
_cell_length_c                    15.862044
_cell_angle_alpha                 95.659272
_cell_angle_beta                  73.549769
_cell_angle_gamma                 100.072268
_cell_volume                      2308.68569628

loop_
_atom_site_label
_atom_site_type_symbol
_atom_type_description
_atom_site_fract_x
_atom_site_fract_y
_atom_site_fract_z
_atom_type_partial_charge
C1    C     C_R   0.521600 0.700474 0.499970 0.843959
C2    C     C_R   0.478800 0.299519 0.499290 0.842133
C3    C     C_R   0.354793 0.494484 0.088980 -0.184309
C4    C     C_R   0.641905 0.558881 0.917577 -0.196864
C5    C     C_R   0.272904 0.481471 0.039791 -0.190679
C6    C     C_R   0.723478 0.575150 0.967253 -0.203201
C7    C     C_R   0.466616 0.185936 0.499589 -0.085483
C8    C     C_R   0.535184 0.813941 0.496959 -0.100467
C9    C     C_R   0.658048 0.984340 0.492427 -0.023967
C10   C     C_R   0.345977 0.015301 0.498584 -0.053623
C11   C     C_R   0.645998 0.875687 0.490294 -0.177342
C12   C     C_R   0.356641 0.123876 0.504227 -0.194790
C13   C     C_R   0.436116 0.860394 0.500721 -0.172425
C14   C     C_R   0.566517 0.139593 0.493635 -0.172138
C15   C     C_R   0.445951 0.968357 0.497193 0.071066
C16   C     C_R   0.557590 0.031427 0.495218 0.068904
C17   C     C_R   0.942397 0.608291 0.577209 -0.143764
C18   C     C_R   0.058160 0.392942 0.421033 -0.145543
C19   C     C_R   0.822294 0.592494 0.574038 0.106044
C20   C     C_R   0.177673 0.407018 0.426103 0.109581
C21   C     C_R   0.863291 0.461992 0.458681 0.112245
C22   C     C_R   0.136536 0.538400 0.540728 0.160348
C23   C     C_R   0.427217 0.493899 0.667901 0.794235
C24   C     C_R   0.572865 0.506921 0.332245 0.799850
C25   C     C_R   0.980276 0.463506 0.468949 -0.098252
C26   C     C_R   0.020543 0.537964 0.529084 -0.019373
C27   C     C_R   0.384964 0.489695 0.764491 -0.062456
C28   C     C_R   0.615521 0.520239 0.236730 -0.046960
C29   C     C_R   0.226957 0.468066 0.899849 -0.175071
C30   C     C_R   0.770587 0.573404 0.105705 -0.181372
C31   C     C_R   0.263700 0.470341 0.808414 -0.167858
C32   C     C_R   0.734888 0.556671 0.195515 -0.182727
C33   C     C_R   0.468927 0.504113 0.813238 -0.231871
C34   C     C_R   0.532224 0.503185 0.187443 -0.221529
C35   C     C_R   0.434477 0.506126 0.905647 0.093866
C36   C     C_R   0.564437 0.524833 0.098035 0.094108
C37   C     C_R   0.311149 0.485508 0.948649 0.144541
C38   C     C_R   0.686549 0.557488 0.056714 0.155711
C39   C     C_R   0.519088 0.525586 0.956121 0.067801
C40   C     C_R   0.479002 0.513883 0.048644 0.057914
Cu1   Cu    Cu3+1 0.386820 0.492450 0.493500 0.984749
Cu2   Cu    Cu3+1 0.613180 0.507550 0.506500 0.993304
H1    H     H_    0.178683 0.467047 0.073469 0.165308
H2    H     H_    0.816475 0.601460 0.935155 0.155232
H3    H     H_    0.442269 0.471962 0.220259 0.137397
H4    H     H_    0.561218 0.510088 0.777552 0.141945
H5    H     H_    0.800060 0.574088 0.232778 0.193705
H6    H     H_    0.197474 0.454391 0.772235 0.207402
H7    H     H_    0.132548 0.451924 0.932463 0.147531
H8    H     H_    0.863738 0.600435 0.074756 0.146515
H9    H     H_    0.316988 0.492021 0.159126 0.158107
H10   H     H_    0.677958 0.576762 0.849377 0.133077
H11   H     H_    0.651575 0.188721 0.486857 0.209516
H12   H     H_    0.350526 0.811726 0.508370 0.231717
H13   H     H_    0.279239 0.159994 0.509483 0.222369
H14   H     H_    0.723145 0.839405 0.485797 0.225240
N1    N     N_R   0.216750 0.481110 0.483710 -0.270099
N2    N     N_R   0.783250 0.518890 0.516290 -0.242188
O1    O     O_R   0.419950 0.645670 0.495380 -0.541376
O2    O     O_R   0.580050 0.354330 0.504620 -0.549069
O3    O     O_R   0.611110 0.658410 0.506370 -0.575980
O4    O     O_R   0.388890 0.341590 0.493630 -0.595212
O5    O     O_R   0.350820 0.490050 0.621260 -0.574318
O6    O     O_R   0.649180 0.509950 0.378740 -0.567082
O7    O     O_R   0.541970 0.502800 0.632250 -0.614325
O8    O     O_R   0.458030 0.497200 0.367750 -0.621390
C41   C     C_2   0.255860 0.332178 0.375796 0.522643
H15   H     H_    0.333759 0.356849 0.323595 0.060673
O9    O     O_2   0.229517 0.239371 0.389768 -0.545680
C42   C     C_2   0.742392 0.664037 0.627854 0.396228
H16   H     H_    0.670617 0.637015 0.683637 0.061406
O10   O     O_2   0.761454 0.756619 0.613189 -0.546112
C43   C     C_2   0.984867 0.703636 0.626307 0.458678
H17   H     H_    0.933151 0.724443 0.692092 0.076711
O11   O     O_2   0.075056 0.762029 0.591786 -0.512715
C44   C     C_2   0.013231 0.298392 0.372053 0.467763
H18   H     H_    0.930830 0.249457 0.403295 0.090338
O12   O     O_2   0.065874 0.276489 0.296068 -0.503948
C45   C     C_2   0.775708 0.044905 0.494838 0.853632
O13   O     O_2   0.866846 0.018173 0.445720 -0.542435
O14   O     O_R   0.782881 0.128968 0.556161 -0.763572
H19   H     H_    0.868009 0.162442 0.552307 0.341217
C46   C     C_2   0.231343 0.954930 0.489038 0.933203
O15   O     O_2   0.137243 0.982280 0.532109 -0.521395
O16   O     O_R   0.230959 0.870764 0.427041 -0.741718
H20   H     H_    0.147600 0.838081 0.424821 0.370089
C47   C     C_2   0.157833 0.579329 0.626141 0.888697
O17   O     O_2   0.091562 0.541815 0.693634 -0.663898
O18   O     O_R   0.245568 0.664573 0.631294 -0.719675
H21   H     H_    0.248252 0.685576 0.694054 0.323535
C48   C     C_2   0.838012 0.416678 0.375594 0.863287
O19   O     O_2   0.762641 0.339870 0.375075 -0.606943
O20   O     O_R   0.909092 0.457512 0.296193 -0.768160
H22   H     H_    0.888958 0.416949 0.243067 0.335837

loop_
_geom_bond_atom_site_label_1
_geom_bond_atom_site_label_2
_ccdc_geom_bond_type
C47   O17   D    
O20   H22   S    
C5    C37   A    
C1    C8    S    
Cu1   Cu2   S    
C20   C41   S    
C2    C7    S    
Cu2   N2    S    
C22   N1    A    
O14   H19   S    
C29   H7    S    
O16   H20   S    
C27   C33   A    
C8    C13   A    
C4    H10   S    
C17   C26   A    
C35   C37   A    
C9    C16   A    
C44   O12   D    
C10   C15   A    
C1    O1    A    
C9    C45   S    
C2    O2    A    
C15   C16   A    
C10   C46   S    
C30   C38   A    
C43   H17   S    
C17   C19   A    
C7    C14   A    
Cu2   O7    S    
C6    C38   A    
C42   H16   S    
C23   C27   S    
C34   C36   A    
C24   O8    A    
C23   O5    A    
C5    H1    S    
C28   C34   A    
C24   O6    A    
C6    H2    S    
C17   C43   S    
C33   H4    S    
C43   O11   D    
C18   C25   A    
Cu1   O4    S    
C19   N2    A    
C7    C12   A    
C27   C31   A    
C41   H15   S    
C28   C32   A    
C44   H18   S    
Cu1   O1    S    
C4    C6    A    
Cu2   O2    S    
C39   C40   A    
C45   O14   S    
C3    H9    S    
C25   C26   A    
C41   O9    D    
C35   C39   A    
C48   O20   S    
C46   O15   D    
C4    C39   A    
C36   C40   A    
C34   H3    S    
C22   C47   S    
C9    C11   A    
Cu2   O3    S    
C10   C12   A    
C46   O16   S    
C3    C40   A    
C31   H6    S    
C13   C15   A    
C32   H5    S    
C14   C16   A    
Cu1   O5    S    
Cu2   O6    S    
C48   O19   D    
C13   H12   S    
C21   C48   S    
C21   C25   A    
C18   C44   S    
C24   C28   S    
C3    C5    A    
C1    O3    A    
Cu1   O8    S    
C23   O7    A    
C36   C38   A    
O18   H21   S    
Cu1   N1    S    
C21   N2    A    
C29   C31   A    
C30   C32   A    
C8    C11   A    
C33   C35   A    
C18   C20   A    
C30   H8    S    
C12   H13   S    
C45   O13   D    
C14   H11   S    
C22   C26   A    
C29   C37   A    
C47   O18   S    
C19   C42   S    
C42   O10   D    
C20   N1    A    
C11   H14   S    
C2    O4    A    
