data_mof_unit_24734.cif
_audit_creation_date              2012-12-10T17:03:42-0500
_audit_creation_method            fapswitch 2.2
_symmetry_space_group_name_H-M    P1
_symmetry_Int_Tables_number       1
_space_group_crystal_system       triclinic
_cell_length_a                    10.09074
_cell_length_b                    10.683351
_cell_length_c                    13.207645
_cell_angle_alpha                 90.997698
_cell_angle_beta                  70.712979
_cell_angle_gamma                 93.564117
_cell_volume                      1341.30507107

loop_
_atom_site_label
_atom_site_type_symbol
_atom_type_description
_atom_site_fract_x
_atom_site_fract_y
_atom_site_fract_z
_atom_type_partial_charge
C1    C     C_R   0.502999 0.737918 0.504642 0.761448
C2    C     C_R   0.442548 0.554505 0.981672 -0.015478
C3    C     C_R   0.484417 0.569293 0.869108 0.039738
C4    C     C_R   0.551036 0.545739 0.027352 0.004843
C5    C     C_R   0.691624 0.531719 0.960649 0.055918
C6    C     C_R   0.730785 0.567528 0.853725 -0.213683
C7    C     C_R   0.628343 0.598635 0.811895 -0.152795
C8    C     C_R   0.525524 0.551086 0.136606 -0.203187
C9    C     C_R   0.755271 0.477575 0.115229 -0.331865
C10   C     C_R   0.382850 0.548192 0.816742 -0.162233
C11   C     C_2   0.396634 0.063855 0.571780 0.147847
C12   C     C_R   0.424757 0.515053 0.702340 0.884954
C13   C     C_2   0.483468 0.129834 0.486591 0.454318
C14   C     C_2   0.389243 0.928352 0.563078 -0.219221
C15   C     C_2   0.509489 0.870531 0.526319 0.405114
C16   C     C_2   0.062943 0.401062 0.511100 -0.302449
C17   C     C_2   0.905471 0.410864 0.538318 0.639954
C18   C     C_R   0.496232 0.263079 0.497501 0.810166
C19   C     C_R   0.577555 0.502100 0.296764 0.886545
C20   C     C_R   0.790661 0.487855 0.003567 0.541559
C21   C     C_R   0.623012 0.511437 0.181056 -0.160780
C22   C     C_R   0.240208 0.548121 0.876506 -0.259425
C23   C     C_R   0.197255 0.547311 0.987641 -0.194892
C24   C     C_R   0.295277 0.538632 0.040660 0.506186
H1    H     H_    0.830587 0.445799 0.150063 0.165623
H2    H     H_    0.286749 0.878757 0.580732 0.125132
H3    H     H_    0.104494 0.309272 0.507311 0.173746
H4    H     H_    0.103137 0.582058 0.524564 0.180572
H5    H     H_    0.840228 0.575224 0.803362 0.172429
H6    H     H_    0.431561 0.590831 0.188442 0.234696
H7    H     H_    0.161975 0.542918 0.836839 0.234237
H8    H     H_    0.086318 0.542798 0.033505 0.202264
H9    H     H_    0.663990 0.640482 0.732854 0.179280
N1    N     N_2   0.148270 0.498670 0.498870 -0.194731
N2    N     N_2   0.852610 0.498640 0.498840 -0.094981
O1    O     O_R   0.386950 0.680940 0.500020 -0.632612
O2    O     O_R   0.613110 0.680900 0.499980 -0.612982
O3    O     O_R   0.330780 0.500000 0.653640 -0.610556
O4    O     O_R   0.556930 0.499960 0.653610 -0.584333
O5    O     O_R   0.386890 0.319100 0.500020 -0.629788
O6    O     O_R   0.613050 0.319060 0.499980 -0.553063
O7    O     O_R   0.443070 0.500040 0.346390 -0.586769
O8    O     O_R   0.669220 0.500000 0.346360 -0.627853
Zn1   Zn    Zn3+2 0.349000 0.500030 0.500020 0.938129
Zn2   Zn    Zn3+2 0.651000 0.499970 0.499980 0.973140
O9    O     O_3   0.537750 0.069535 0.387339 -0.634655
C25   C     C_3   0.622053 0.149758 0.303950 -0.366210
H10   H     H_    0.714930 0.191605 0.322628 0.178786
H11   H     H_    0.559307 0.223450 0.286710 0.164053
H12   H     H_    0.662248 0.093380 0.229969 0.189336
O10   O     O_3   0.634568 0.934406 0.527257 -0.594549
C26   C     C_3   0.748418 0.914432 0.432514 -0.185223
H13   H     H_    0.715810 0.886755 0.362030 0.151802
H14   H     H_    0.815219 0.843237 0.447528 0.163929
H15   H     H_    0.814497 0.003242 0.411164 0.176780
O11   O     O_3   0.811181 0.318893 0.600165 -0.568303
C27   C     C_3   0.855000 0.276703 0.684032 -0.330075
H16   H     H_    0.894719 0.355359 0.724704 0.173167
H17   H     H_    0.935529 0.206445 0.654004 0.160620
H18   H     H_    0.762989 0.229487 0.745268 0.202177
C28   C     C_3   0.940413 0.580807 0.412826 -0.742612
H19   H     H_    0.876887 0.612474 0.365250 0.255202
H20   H     H_    0.976019 0.667535 0.446023 0.180344
H21   H     H_    0.029064 0.532377 0.355900 0.241186
O12   O     O_3   0.921082 0.457120 0.935549 -0.653021
C29   C     C_3   0.934274 0.326945 0.941546 -0.403298
H22   H     H_    0.842516 0.271229 0.931257 0.166235
H23   H     H_    0.949399 0.301675 0.018087 0.170483
H24   H     H_    0.029244 0.300970 0.875329 0.205640
O13   O     O_3   0.243635 0.511653 0.149056 -0.638915
C30   C     C_3   0.221077 0.380444 0.162284 -0.339980
H25   H     H_    0.319339 0.331678 0.122582 0.172307
H26   H     H_    0.135765 0.343770 0.131787 0.156560
H27   H     H_    0.187441 0.358398 0.249205 0.201230
C31   C     C_3   0.312197 0.122516 0.676528 -0.979612
H28   H     H_    0.254916 0.049272 0.736352 0.251713
H29   H     H_    0.383146 0.179763 0.710375 0.252300
H30   H     H_    0.233335 0.182656 0.663589 0.248439

loop_
_geom_bond_atom_site_label_1
_geom_bond_atom_site_label_2
_ccdc_geom_bond_type
C29   H23   S    
C4    C8    A    
C9    H1    S    
C25   H11   S    
C5    C20   A    
C10   C22   A    
C13   C18   S    
C19   C21   S    
C3    C7    A    
C5    C6    A    
C11   C14   S    
C27   H17   S    
C29   H24   S    
O11   C27   S    
C28   H20   S    
C18   O5    A    
C16   N1    D    
C19   O8    A    
C16   C17   S    
C23   C24   A    
O13   C30   S    
C1    C15   S    
C15   O10   S    
C19   O7    A    
C1    O2    A    
O4    Zn2   S    
C16   H3    S    
C29   H22   S    
H4    N1    S    
C7    H9    S    
O7    Zn1   S    
C26   H14   S    
C25   H12   S    
C22   H7    S    
C24   O13   S    
O10   C26   S    
C20   O12   S    
N1    Zn1   S    
C18   O6    A    
C30   H26   S    
C27   H18   S    
C28   H21   S    
C2    C4    A    
C31   H28   S    
O3    Zn1   S    
C31   H29   S    
C9    C20   A    
C25   H10   S    
C8    C21   A    
N2    C28   S    
C14   H2    S    
O8    Zn2   S    
C17   O11   S    
C10   C12   S    
C2    C24   A    
O1    Zn1   S    
O2    Zn2   S    
N2    Zn2   S    
C26   H13   S    
O9    C25   S    
C14   C15   D    
C4    C5    A    
C30   H27   S    
C26   H15   S    
C6    C7    A    
C8    H6    S    
C23   H8    S    
C12   O4    A    
C2    C3    A    
C30   H25   S    
C3    C10   A    
C11   C31   S    
C11   C13   D    
C9    C21   A    
C27   H16   S    
C13   O9    S    
C12   O3    A    
C28   H19   S    
C31   H30   S    
O5    Zn1   S    
C6    H5    S    
O12   C29   S    
O6    Zn2   S    
C22   C23   A    
C17   N2    D    
C1    O1    A    
