data_mof_unit_38488.cif
_audit_creation_date              2012-12-10T17:09:27-0500
_audit_creation_method            fapswitch 2.2
_symmetry_space_group_name_H-M    P1
_symmetry_Int_Tables_number       1
_space_group_crystal_system       triclinic
_cell_length_a                    10.53446
_cell_length_b                    10.635775
_cell_length_c                    10.118419
_cell_angle_alpha                 88.671868
_cell_angle_beta                  90.250754
_cell_angle_gamma                 90.77548
_cell_volume                      1133.27164648

loop_
_atom_site_label
_atom_site_type_symbol
_atom_type_description
_atom_site_fract_x
_atom_site_fract_y
_atom_site_fract_z
_atom_type_partial_charge
C1    C     C_R   0.486064 0.262502 0.501093 0.857442
C2    C     C_2   0.554327 0.586771 0.072479 -0.108625
C3    C     C_R   0.258159 0.499505 0.499674 0.932389
C4    C     C_R   0.496165 0.737300 0.498141 0.981360
C5    C     C_R   0.741985 0.497480 0.500524 0.934466
C6    C     C_3   0.044116 0.383613 0.546730 -0.317930
C7    C     C_3   0.958672 0.404355 0.423444 -0.036009
C8    C     C_3   0.876735 0.495159 0.501368 -0.112982
C9    C     C_3   0.961974 0.475943 0.622750 0.156286
C10   C     C_3   0.042947 0.587485 0.576327 0.072411
C11   C     C_2   0.916181 0.298919 0.337335 0.421608
C12   C     C_3   0.959140 0.607539 0.454190 -0.080642
C13   C     C_2   0.388327 0.087476 0.638228 0.402589
C14   C     C_2   0.693638 0.626546 0.873184 0.491920
C15   C     C_2   0.377035 0.468427 0.897616 0.554756
C16   C     C_2   0.601801 0.705217 0.128364 0.515626
C17   C     C_2   0.912118 0.733181 0.407824 0.525666
C18   C     C_2   0.304053 0.868477 0.328272 0.448431
C19   C     C_3   0.041505 0.517037 0.374125 -0.160335
C20   C     C_3   0.124029 0.497771 0.498941 -0.030399
C21   C     C_2   0.405192 0.929680 0.408589 0.056642
C22   C     C_2   0.486991 0.870287 0.490973 -0.299657
C23   C     C_2   0.420826 0.065056 0.395055 0.015820
C24   C     C_2   0.434982 0.134555 0.505888 -0.226243
C25   C     C_2   0.575847 0.568338 0.927156 -0.124674
H1    H     H_    0.487605 0.414138 0.107777 0.160440
H2    H     H_    0.998973 0.446095 0.817823 0.210771
H3    H     H_    0.870712 0.368464 0.761852 0.193754
H4    H     H_    0.014662 0.732353 0.699458 0.199989
H5    H     H_    0.142509 0.750175 0.602105 0.235710
H6    H     H_    0.848570 0.785219 0.469702 0.043042
H7    H     H_    0.263737 0.919093 0.244076 0.089539
H8    H     H_    0.530568 0.144619 0.248146 0.249806
H9    H     H_    0.372582 0.186621 0.244247 0.207129
H10   H     H_    0.082147 0.292892 0.585004 0.178915
H11   H     H_    0.077148 0.533384 0.271952 0.187153
H12   H     H_    0.555932 0.922053 0.549557 0.129001
H13   H     H_    0.986266 0.247297 0.283103 0.065877
H14   H     H_    0.430621 0.122545 0.728391 0.118045
H15   H     H_    0.781363 0.617785 0.929068 0.071005
H16   H     H_    0.328337 0.524667 0.969404 0.017166
H17   H     H_    0.569137 0.794360 0.087639 0.031779
N1    N     N_2   0.501360 0.501330 0.852150 -0.145485
N2    N     N_2   0.501400 0.501360 0.147810 -0.209189
N3    N     N_3   0.918403 0.455251 0.757944 -0.436690
N4    N     N_3   0.092515 0.685242 0.661710 -0.421241
N5    N     N_3   0.436797 0.114065 0.262357 -0.474068
O1    O     O_R   0.499980 0.319060 0.613040 -0.618258
O2    O     O_2   0.299142 0.013221 0.647663 -0.564003
O3    O     O_2   0.692740 0.692911 0.773531 -0.562118
O4    O     O_2   0.322381 0.376475 0.853755 -0.582499
O5    O     O_2   0.685022 0.704339 0.212338 -0.533974
O6    O     O_2   0.945391 0.777623 0.301093 -0.517935
O7    O     O_2   0.259992 0.765229 0.358390 -0.586820
O8    O     O_R   0.500020 0.319100 0.386900 -0.607600
O9    O     O_R   0.313930 0.499950 0.613050 -0.588851
O10   O     O_R   0.313970 0.499990 0.386910 -0.617367
O11   O     O_R   0.499980 0.680900 0.613100 -0.567953
O12   O     O_R   0.500020 0.680940 0.386960 -0.577666
O13   O     O_R   0.686030 0.500010 0.613090 -0.595719
O14   O     O_R   0.686070 0.500050 0.386950 -0.538136
O15   O     O_2   0.804149 0.269790 0.328284 -0.563523
Zn1   Zn    Zn3+2 0.499970 0.499970 0.650990 1.033489
Zn2   Zn    Zn3+2 0.500030 0.500030 0.349010 1.016568

loop_
_geom_bond_atom_site_label_1
_geom_bond_atom_site_label_2
_ccdc_geom_bond_type
C12   C17   S    
C10   N4    S    
C11   H13   S    
C23   C24   D    
C1    O1    A    
C9    N3    S    
C6    C7    S    
C10   C20   S    
C15   O4    D    
C5    C8    S    
C18   C21   S    
C2    C16   S    
C3    O9    A    
C19   C20   S    
H4    N4    S    
C8    C12   S    
C11   O15   D    
O8    Zn2   S    
C25   N1    D    
C23   N5    S    
C1    O8    A    
O9    Zn1   S    
N1    Zn1   S    
C7    C8    S    
C21   C22   D    
N2    Zn2   S    
O14   Zn2   S    
C7    C11   S    
H2    N3    S    
O12   Zn2   S    
C14   O3    D    
C10   C12   S    
C6    C20   S    
H1    N2    S    
O13   Zn1   S    
C13   O2    D    
C3    O10   A    
C12   C19   S    
C15   N1    S    
C17   H6    S    
C2    C25   S    
C7    C19   S    
C19   H11   S    
C21   C23   S    
C14   C25   S    
H8    N5    S    
H3    N3    S    
C13   H14   S    
C18   H7    S    
C18   O7    D    
C5    O14   A    
C4    O12   A    
C17   O6    D    
C3    C20   S    
C6    C9    S    
C4    C22   S    
C6    H10   S    
C15   H16   S    
C1    C24   S    
C16   O5    D    
C9    C10   S    
C4    O11   A    
O11   Zn1   S    
C8    C9    S    
O1    Zn1   S    
H9    N5    S    
C5    O13   A    
C22   H12   S    
C14   H15   S    
H5    N4    S    
C16   H17   S    
C13   C24   S    
C2    N2    D    
O10   Zn2   S    
