data_mof_unit_21647.cif
_audit_creation_date              2013-03-05T15:58:07-0500
_audit_creation_method            fapswitch 2.2
_symmetry_space_group_name_H-M    P1
_symmetry_Int_Tables_number       1
_space_group_crystal_system       triclinic
_cell_length_a                    15.073736
_cell_length_b                    13.713861
_cell_length_c                    10.916569
_cell_angle_alpha                 90.220458
_cell_angle_beta                  89.132186
_cell_angle_gamma                 89.321827
_cell_volume                      2256.22833731

loop_
_atom_site_label
_atom_site_type_symbol
_atom_site_description
_atom_site_fract_x
_atom_site_fract_y
_atom_site_fract_z
_atom_type_partial_charge
O1    O     O_R   0.370250 0.582280 0.500040 -0.591737
O2    O     O_R   0.370250 0.417720 0.500040 -0.579116
C1    C     C_R   0.328733 0.500496 0.499499 0.865517
O3    O     O_R   0.499970 0.582270 0.317700 -0.564528
O4    O     O_R   0.499970 0.417730 0.317700 -0.551995
C2    C     C_R   0.495191 0.499932 0.260761 0.789991
Cu1   Cu    Cu3+1 0.499990 0.597420 0.500010 1.043370
Cu2   Cu    Cu3+1 0.499990 0.402580 0.500010 1.048885
O5    O     O_R   0.629730 0.582260 0.499980 -0.587307
O6    O     O_R   0.629730 0.417740 0.499980 -0.566329
O7    O     O_R   0.500000 0.582270 0.682320 -0.554066
O8    O     O_R   0.500000 0.417730 0.682320 -0.570238
C3    C     C_R   0.671312 0.499706 0.496943 0.867397
C4    C     C_R   0.498337 0.500300 0.740596 0.991367
C5    C     C_3   0.452850 0.604804 0.077890 0.060264
C6    C     C_3   0.432104 0.410156 0.075454 0.080849
C7    C     C_3   0.445429 0.599895 0.931023 0.029181
C8    C     C_3   0.439159 0.405653 0.928117 0.054376
H1    H     H_    0.631764 0.537399 0.121863 0.225909
H2    H     H_    0.615495 0.419499 0.111449 0.247912
C9    C     C_3   0.587151 0.486736 0.074828 -0.384618
C10   C     C_3   0.490334 0.500394 0.123844 -0.278616
C11   C     C_3   0.494492 0.500523 0.879692 -0.369366
C12   C     C_3   0.595331 0.493039 0.931073 0.436316
C13   C     C_R   0.816665 0.434285 0.417442 -0.070263
C14   C     C_R   0.768271 0.499723 0.492790 -0.114162
C15   C     C_R   0.812217 0.568653 0.563342 -0.088166
C16   C     C_R   0.904843 0.572466 0.563350 -0.071708
C17   C     C_R   0.953836 0.501696 0.495494 0.022350
C18   C     C_R   0.909826 0.431760 0.422875 0.108327
C19   C     C_R   0.949215 0.643631 0.632699 0.246791
C20   C     C_R   0.042544 0.643889 0.634551 0.239014
C21   C     C_R   0.091604 0.573415 0.566479 -0.068584
C22   C     C_R   0.046998 0.501330 0.498816 0.037397
C23   C     C_R   0.095828 0.428945 0.433363 0.143628
C24   C     C_R   0.052079 0.359283 0.363767 -0.151191
C25   C     C_R   0.960162 0.361235 0.357257 -0.154790
C26   C     C_R   0.184596 0.574474 0.561911 -0.070210
C27   C     C_R   0.232289 0.501145 0.499524 -0.061831
C28   C     C_R   0.188006 0.427664 0.437440 -0.199250
H3    H     H_    0.773128 0.619104 0.618722 0.233884
H4    H     H_    0.220587 0.631488 0.607452 0.213065
H5    H     H_    0.225560 0.371135 0.389130 0.169884
H6    H     H_    0.089111 0.303731 0.313100 0.175024
H7    H     H_    0.928869 0.306132 0.301914 0.176059
C29   C     C_R   0.439827 0.794102 0.570474 0.049693
C30   C     C_R   0.441080 0.208050 0.572851 0.056016
N1    N     N_R   0.499930 0.743810 0.499950 -0.204545
N2    N     N_R   0.499930 0.256190 0.499950 -0.202931
C31   C     C_R   0.559514 0.791734 0.428238 0.139441
C32   C     C_R   0.557130 0.205964 0.424335 0.123119
C33   C     C_R   0.560115 0.894963 0.423692 -0.031429
C34   C     C_R   0.558571 0.102568 0.420929 -0.038632
C35   C     C_R   0.499300 0.948145 0.498760 0.078865
C36   C     C_R   0.499089 0.051754 0.498366 0.080190
C37   C     C_R   0.438535 0.897304 0.574001 -0.041504
C38   C     C_R   0.438586 0.104765 0.574251 -0.041503
C39   C     C_R   0.618835 0.945719 0.345239 -0.071675
C40   C     C_R   0.617093 0.048898 0.342262 -0.079836
C41   C     C_R   0.377340 0.053554 0.648882 -0.073632
C42   C     C_R   0.377917 0.950366 0.649679 -0.077862
H8    H     H_    0.392869 0.753066 0.623791 0.171555
H9    H     H_    0.396296 0.250997 0.630184 0.158963
H10   H     H_    0.605454 0.748554 0.372973 0.153818
H11   H     H_    0.601570 0.247214 0.366722 0.158474
N3    N     N_R   0.510682 0.687751 0.118461 0.117439
O9    O     O_R   0.593562 0.694271 0.085800 -0.326919
O10   O     O_R   0.476338 0.763543 0.175168 -0.353944
N4    N     N_R   0.459371 0.314156 0.130383 0.131283
O11   O     O_R   0.540084 0.280055 0.121179 -0.347327
O12   O     O_R   0.401259 0.258490 0.184524 -0.329350
N5    N     N_R   0.086923 0.715627 0.706581 0.141690
O13   O     O_R   0.134824 0.688456 0.798806 -0.237811
O14   O     O_R   0.071364 0.808019 0.689112 -0.278606
C43   C     C_1   0.680700 0.892227 0.265953 0.313042
N6    N     N_1   0.730028 0.849668 0.202815 -0.140312
C44   C     C_1   0.674274 0.097930 0.254766 0.309131
N7    N     N_1   0.720126 0.135092 0.183457 -0.150819
C45   C     C_1   0.311861 0.106073 0.723129 0.274544
N8    N     N_1   0.259068 0.147314 0.782071 -0.139265
C46   C     C_1   0.316657 0.899524 0.730225 0.280362
N9    N     N_1   0.267943 0.859301 0.794892 -0.106119
C47   C     C_1   0.365399 0.627008 0.138837 0.384724
N10   N     N_1   0.298683 0.646293 0.187744 -0.195698
C48   C     C_1   0.338489 0.425892 0.117943 0.398751
N11   N     N_1   0.265613 0.435355 0.151491 -0.212008
N12   N     N_R   0.352236 0.605364 0.886167 0.140262
O15   O     O_R   0.336469 0.640583 0.778077 -0.369818
O16   O     O_R   0.284972 0.568611 0.945082 -0.272659
N13   N     N_R   0.349775 0.395663 0.873264 0.139435
O17   O     O_R   0.331047 0.433430 0.767587 -0.327908
O18   O     O_R   0.298382 0.326043 0.911700 -0.308605
C49   C     C_1   0.487386 0.690067 0.881554 0.489924
N14   N     N_1   0.518657 0.760848 0.843828 -0.183396
C50   C     C_1   0.484557 0.313448 0.888333 0.462662
N15   N     N_1   0.518236 0.241078 0.856687 -0.177377
N16   N     N_R   0.650835 0.577959 0.898354 0.155671
O19   O     O_R   0.650714 0.611272 0.787101 -0.353414
O20   O     O_R   0.722987 0.592543 0.959747 -0.247911
N17   N     N_R   0.644427 0.406875 0.880191 0.117052
O21   O     O_R   0.680840 0.341613 0.950405 -0.283916
O22   O     O_R   0.667900 0.405720 0.765011 -0.327675
C51   C     C_1   0.771224 0.377894 0.325999 0.229937
N18   N     N_1   0.735221 0.334147 0.251471 -0.220626
N19   N     N_R   0.899991 0.715123 0.703069 0.165418
O23   O     O_R   0.850291 0.779164 0.648185 -0.310605
O24   O     O_R   0.910431 0.721322 0.820946 -0.214504

loop_
_geom_bond_atom_site_label_1
_geom_bond_atom_site_label_2
_geom_bond_distance
_ccdc_geom_bond_type
N3    O10   1.305449 A    
N12   O15   1.300856 A    
C41   C45   1.450631 S    
C49   N14   1.158475 T    
C31   H10   1.081236 S    
C50   N15   1.158532 T    
C40   C44   1.449520 S    
N16   O19   1.299246 A    
C34   C40   1.419234 A    
Cu1   Cu2   2.672007 S    
C30   N2    1.361118 A    
C44   N7    1.156938 T    
Cu1   O7    2.001812 S    
N19   O24   1.301340 A    
C14   C15   1.396513 A    
C7    C11   1.635797 S    
C29   H8    1.075156 S    
C16   C17   1.413139 A    
H1    C9    1.103354 S    
C26   H4    1.080761 S    
C30   H9    1.081329 S    
O4    C2    1.291197 A    
Cu2   O6    1.969128 S    
O7    C4    1.294103 A    
C2    C10   1.497601 S    
C5    C7    1.610080 S    
C22   C23   1.413869 A    
C32   H11   1.078549 S    
N4    O12   1.305014 A    
O5    C3    1.287621 A    
C5    C10   1.617436 S    
C47   N10   1.158750 T    
N2    C32   1.363538 A    
C31   C33   1.416853 A    
C11   C12   1.630402 S    
N1    C31   1.359452 A    
N3    O9    1.298184 A    
C1    C27   1.453686 S    
O1    Cu1   1.969095 S    
C9    C10   1.555743 S    
C8    C50   1.490674 S    
C19   N19   1.435832 S    
O3    Cu1   2.000225 S    
N16   O20   1.303156 A    
C33   C35   1.414441 A    
C39   C43   1.453054 S    
C46   N9    1.157033 T    
C35   C37   1.412977 A    
C34   C36   1.414394 A    
C29   N1    1.359844 A    
C12   N16   1.483580 S    
C8    N13   1.490260 S    
N5    O14   1.301149 A    
C27   C28   1.394548 A    
C13   C51   1.446040 S    
C38   C41   1.416422 A    
C5    C47   1.495141 S    
C39   C40   1.415435 A    
C48   N11   1.158350 T    
C5    N3    1.510415 S    
C17   C22   1.405268 A    
C8    C11   1.638737 S    
C18   C25   1.408925 A    
C41   C42   1.415098 A    
O1    C1    1.290845 A    
C23   C24   1.396158 A    
C4    C11   1.518665 S    
C43   N6    1.157448 T    
C17   C18   1.418995 A    
C30   C38   1.417513 A    
C15   H3    1.080604 S    
N13   O18   1.303257 A    
C19   C20   1.407314 A    
Cu2   O8    2.000222 S    
C28   H5    1.084887 S    
N17   O22   1.301019 A    
C21   C22   1.414260 A    
C33   C39   1.413386 A    
O3    C2    1.290136 A    
O8    C4    1.296481 A    
N12   O16   1.300206 A    
C6    C48   1.491704 S    
C3    C14   1.461555 S    
C24   H6    1.084084 S    
C7    C49   1.494691 S    
C25   H7    1.082641 S    
C15   C16   1.397828 A    
C13   C18   1.406459 A    
Cu1   O5    1.964234 S    
C35   C36   1.420879 A    
C24   C25   1.388374 A    
C6    C10   1.617308 S    
C12   N17   1.488049 S    
C16   C19   1.413528 A    
O2    Cu2   1.964207 S    
C6    N4    1.504157 S    
N5    O13   1.300904 A    
O6    C3    1.293771 A    
O4    Cu2   2.001814 S    
N19   O23   1.301391 A    
C21   C26   1.402114 A    
C20   C21   1.412115 A    
C36   C38   1.415379 A    
O2    C1    1.289828 A    
C13   C14   1.405247 A    
C42   C46   1.451665 S    
Cu1   N1    2.007564 S    
N13   O17   1.299936 A    
C26   C27   1.398123 A    
N17   O21   1.302381 A    
C23   C28   1.390766 A    
N4    O11   1.300566 A    
C7    N12   1.495808 S    
C45   N8    1.156813 T    
H2    C9    1.091457 S    
C6    C8    1.611207 S    
C9    C12   1.575069 S    
C29   C37   1.415572 A    
C51   N18   1.154859 T    
C37   C42   1.415534 A    
C32   C34   1.418195 A    
Cu2   N2    2.007581 S    
C20   N5    1.435002 S    
