data_mof_unit_33723.cif
_audit_creation_date              2013-03-05T15:56:50-0500
_audit_creation_method            fapswitch 2.2
_symmetry_space_group_name_H-M    P1
_symmetry_Int_Tables_number       1
_space_group_crystal_system       triclinic
_cell_length_a                    21.208462
_cell_length_b                    21.441917
_cell_length_c                    13.709494
_cell_angle_alpha                 89.834287
_cell_angle_beta                  90.382223
_cell_angle_gamma                 90.184122
_cell_volume                      6234.19691454

loop_
_atom_site_label
_atom_site_type_symbol
_atom_site_description
_atom_site_fract_x
_atom_site_fract_y
_atom_site_fract_z
_atom_type_partial_charge
O1    O     O_R   0.064880 0.435140 0.582280 -0.592336
O2    O     O_R   0.935120 0.564860 0.417720 -0.593163
O3    O     O_R   0.935120 0.564860 0.582280 -0.590647
O4    O     O_R   0.064880 0.435140 0.417720 -0.596037
O5    O     O_R   0.935120 0.435140 0.417720 -0.585136
O6    O     O_R   0.064880 0.564860 0.582280 -0.586844
O7    O     O_R   0.064880 0.564860 0.417720 -0.582264
O8    O     O_R   0.935120 0.435140 0.582280 -0.585707
O9    O     O_R   0.564880 0.935140 0.582280 -0.586645
O10   O     O_R   0.435120 0.064860 0.417720 -0.588213
O11   O     O_R   0.435120 0.064860 0.582280 -0.588292
O12   O     O_R   0.564880 0.935140 0.417720 -0.587411
O13   O     O_R   0.435120 0.935140 0.417720 -0.589042
O14   O     O_R   0.564880 0.064860 0.582280 -0.592016
O15   O     O_R   0.564880 0.064860 0.417720 -0.587404
O16   O     O_R   0.435120 0.935140 0.582280 -0.593909
C1    C     C_R   0.086192 0.414784 0.500366 0.809415
C2    C     C_R   0.914636 0.586040 0.499897 0.805437
C3    C     C_R   0.914129 0.414570 0.499681 0.806974
C4    C     C_R   0.085897 0.585394 0.499934 0.808316
C5    C     C_R   0.586119 0.914649 0.500313 0.808466
C6    C     C_R   0.414107 0.085623 0.499761 0.810276
C7    C     C_R   0.414452 0.914166 0.499759 0.810302
C8    C     C_R   0.585718 0.085593 0.500029 0.808137
Cu1   Cu    Cu3+1 0.000000 0.500000 0.597420 0.937268
Cu2   Cu    Cu3+1 0.000000 0.500000 0.402580 0.941190
Cu3   Cu    Cu3+1 0.500000 0.000000 0.597420 0.942412
Cu4   Cu    Cu3+1 0.500000 0.000000 0.402580 0.939798
C9    C     C_R   0.136234 0.676725 0.424205 -0.191148
C10   C     C_R   0.868077 0.318745 0.431113 -0.197169
C11   C     C_R   0.860855 0.675011 0.420393 -0.199267
C12   C     C_R   0.150558 0.337153 0.414500 -0.203056
C13   C     C_R   0.629772 0.183674 0.564303 -0.196022
C14   C     C_R   0.366441 0.820111 0.572111 -0.193690
C15   C     C_R   0.349101 0.162822 0.586665 -0.190021
C16   C     C_R   0.645578 0.830896 0.583862 -0.191588
C17   C     C_R   0.135204 0.632612 0.498872 -0.091311
C18   C     C_R   0.864770 0.367381 0.497911 -0.084192
C19   C     C_R   0.867537 0.635601 0.500634 -0.097057
C20   C     C_R   0.134924 0.366821 0.501126 -0.095846
C21   C     C_R   0.633764 0.134115 0.499452 -0.088945
C22   C     C_R   0.367026 0.864917 0.498455 -0.093860
C23   C     C_R   0.365320 0.133742 0.499587 -0.099778
C24   C     C_R   0.635901 0.867613 0.501147 -0.098066
C25   C     C_R   0.182195 0.632080 0.570211 -0.212646
C26   C     C_R   0.813272 0.372685 0.559702 -0.215716
C27   C     C_R   0.830483 0.644274 0.583247 -0.209003
C28   C     C_R   0.165246 0.350401 0.588208 -0.209873
C29   C     C_R   0.682358 0.131496 0.431694 -0.203663
C30   C     C_R   0.323656 0.861940 0.421625 -0.210069
C31   C     C_R   0.334824 0.150244 0.412782 -0.212616
C32   C     C_R   0.674362 0.860392 0.419799 -0.203563
C33   C     C_R   0.231550 0.675843 0.568075 0.058124
C34   C     C_R   0.764310 0.328401 0.557201 0.060261
C35   C     C_R   0.784826 0.691448 0.586467 0.051199
C36   C     C_R   0.211468 0.303661 0.590283 0.052736
C37   C     C_R   0.729174 0.177947 0.428791 0.055521
C38   C     C_R   0.277352 0.815071 0.418478 0.057142
C39   C     C_R   0.288175 0.196611 0.411111 0.048833
C40   C     C_R   0.722468 0.815480 0.418716 0.051879
C41   C     C_R   0.230354 0.722953 0.494997 -0.051533
C42   C     C_R   0.769834 0.276721 0.493146 -0.051264
C43   C     C_R   0.777310 0.730615 0.503376 -0.049219
C44   C     C_R   0.226032 0.272745 0.501654 -0.046750
C45   C     C_R   0.724225 0.229140 0.493974 -0.052780
C46   C     C_R   0.276645 0.769806 0.494385 -0.049987
C47   C     C_R   0.271946 0.225818 0.500432 -0.049458
C48   C     C_R   0.731126 0.777375 0.502742 -0.052767
C49   C     C_R   0.182749 0.722952 0.422280 0.006177
C50   C     C_R   0.820896 0.273083 0.427580 0.005310
C51   C     C_R   0.816074 0.722749 0.420637 0.003365
C52   C     C_R   0.194998 0.289420 0.413772 0.003814
C53   C     C_R   0.673973 0.232171 0.561289 0.004114
C54   C     C_R   0.322366 0.771526 0.570014 0.001465
C55   C     C_R   0.302180 0.208320 0.588552 0.002470
C56   C     C_R   0.693311 0.786091 0.586250 0.002876
C57   C     C_R   0.281601 0.673930 0.637241 0.050807
C58   C     C_R   0.710309 0.334348 0.617037 0.041742
C59   C     C_R   0.747089 0.700640 0.670583 0.035202
C60   C     C_R   0.242885 0.286760 0.678401 0.035064
C61   C     C_R   0.780176 0.174763 0.362169 0.043992
C62   C     C_R   0.231649 0.812640 0.342228 0.027865
C63   C     C_R   0.257082 0.213991 0.322928 0.059662
C64   C     C_R   0.762485 0.808380 0.336690 0.061472
C65   C     C_R   0.824552 0.223936 0.359733 0.443634
C66   C     C_R   0.182336 0.768514 0.348027 0.443015
C67   C     C_R   0.208531 0.258512 0.325935 0.438857
C68   C     C_R   0.809711 0.762231 0.338899 0.439315
C69   C     C_R   0.324160 0.724443 0.641882 0.445313
C70   C     C_R   0.667633 0.283978 0.623440 0.444999
C71   C     C_R   0.703217 0.749943 0.671053 0.447124
C72   C     C_R   0.285982 0.236814 0.677453 0.443692
H1    H     H_    0.099751 0.675270 0.368518 0.193010
H2    H     H_    0.908516 0.316189 0.383365 0.183707
H3    H     H_    0.891019 0.668250 0.357865 0.191053
H4    H     H_    0.127299 0.351129 0.347380 0.190213
H5    H     H_    0.590761 0.184985 0.614937 0.189332
H6    H     H_    0.401645 0.822584 0.629668 0.193176
H7    H     H_    0.373736 0.150081 0.653217 0.201293
H8    H     H_    0.614987 0.836959 0.646075 0.198362
H9    H     H_    0.179709 0.596565 0.626130 0.152659
H10   H     H_    0.812282 0.412029 0.608709 0.144674
H11   H     H_    0.837797 0.613235 0.644349 0.164186
H12   H     H_    0.152093 0.374696 0.653774 0.166336
H13   H     H_    0.683012 0.092171 0.382649 0.151150
H14   H     H_    0.325913 0.897771 0.366234 0.154501
H15   H     H_    0.347935 0.125988 0.347145 0.163178
H16   H     H_    0.666311 0.890936 0.358327 0.154647
C73   C     C_R   0.055661 0.495151 0.793929 0.061814
C74   C     C_R   0.944113 0.501845 0.206465 0.059088
C75   C     C_R   0.944133 0.502833 0.792608 0.063917
C76   C     C_R   0.055572 0.494981 0.207474 0.070229
C77   C     C_R   0.555196 0.008838 0.793673 0.062969
C78   C     C_R   0.444997 0.990295 0.206161 0.060324
C79   C     C_R   0.444638 0.992685 0.792581 0.065159
C80   C     C_R   0.554754 0.011410 0.207326 0.064880
N1    N     N_R   0.000000 0.500000 0.743810 -0.204436
N2    N     N_R   1.000000 0.500000 0.256190 -0.207382
N3    N     N_R   0.500000 0.000000 0.743810 -0.204823
N4    N     N_R   0.500000 0.000000 0.256190 -0.203363
C81   C     C_R   0.942442 0.501595 0.895808 -0.124192
C82   C     C_R   0.056837 0.492906 0.104475 -0.121116
C83   C     C_R   0.057038 0.493691 0.897190 -0.117553
C84   C     C_R   0.942415 0.501335 0.103283 -0.126627
C85   C     C_R   0.443208 0.991933 0.895687 -0.123899
C86   C     C_R   0.556276 0.012205 0.104129 -0.122507
C87   C     C_R   0.556448 0.010966 0.896789 -0.126878
C88   C     C_R   0.443406 0.990893 0.102964 -0.123081
C89   C     C_R   0.999723 0.497839 0.948359 -0.062655
C90   C     C_R   0.999676 0.497738 0.051945 -0.058280
C91   C     C_R   0.499905 0.001103 0.948135 -0.056294
C92   C     C_R   0.499931 0.001096 0.051686 -0.059515
C93   C     C_R   0.885000 0.502725 0.947388 0.389408
C94   C     C_R   0.113668 0.484852 0.053304 0.373073
C95   C     C_R   0.114119 0.487671 0.950078 0.392608
C96   C     C_R   0.885025 0.503804 0.050622 0.383065
C97   C     C_R   0.386536 0.982453 0.947171 0.389180
C98   C     C_R   0.612511 0.024221 0.052473 0.392980
C99   C     C_R   0.612438 0.024144 0.949288 0.388303
C100  C     C_R   0.386526 0.982868 0.050256 0.390628
H17   H     H_    0.099022 0.492247 0.753033 0.159410
H18   H     H_    0.900901 0.503708 0.247795 0.165300
H19   H     H_    0.900808 0.505652 0.750697 0.157916
H20   H     H_    0.098897 0.492180 0.249362 0.169593
H21   H     H_    0.598171 0.014985 0.752640 0.165966
H22   H     H_    0.402199 0.982620 0.247048 0.158871
H23   H     H_    0.401626 0.987139 0.750621 0.163712
H24   H     H_    0.597342 0.019710 0.249184 0.155820
C101  C     C_3   0.291172 0.618326 0.704908 -0.392113
C102  C     C_3   0.312093 0.560421 0.649041 -0.805419
H25   H     H_    0.276233 0.545648 0.594542 0.248741
H26   H     H_    0.357168 0.570035 0.610946 0.266894
H27   H     H_    0.319637 0.521303 0.701027 0.235787
H28   H     H_    0.327858 0.627196 0.761155 0.246952
H29   H     H_    0.247376 0.609097 0.745622 0.169052
C103  C     C_3   0.695471 0.394788 0.670091 -0.385150
C104  C     C_3   0.675292 0.445738 0.598385 -0.801865
H30   H     H_    0.714554 0.458999 0.549353 0.245789
H31   H     H_    0.634663 0.429397 0.553612 0.265858
H32   H     H_    0.660492 0.487718 0.639326 0.239517
H33   H     H_    0.656550 0.388975 0.722957 0.246773
H34   H     H_    0.736437 0.410359 0.713897 0.171509
C105  C     C_3   0.752162 0.658376 0.760024 -0.363102
C106  C     C_3   0.718921 0.596024 0.742850 -0.783355
H35   H     H_    0.668276 0.603883 0.725860 0.258194
H36   H     H_    0.740568 0.570134 0.681784 0.241268
H37   H     H_    0.722346 0.566894 0.809725 0.266940
H38   H     H_    0.802181 0.651131 0.781357 0.189003
H39   H     H_    0.730367 0.679729 0.825127 0.238359
C107  C     C_3   0.233153 0.322350 0.773257 -0.371262
C108  C     C_3   0.268069 0.384778 0.771571 -0.764457
H40   H     H_    0.318721 0.377389 0.755181 0.255093
H41   H     H_    0.247607 0.416744 0.716109 0.245132
H42   H     H_    0.264761 0.407154 0.844204 0.271296
H43   H     H_    0.182294 0.329076 0.788289 0.186464
H44   H     H_    0.251089 0.295988 0.837312 0.240580
C109  C     C_3   0.789151 0.118986 0.294941 -0.365899
C110  C     C_3   0.815197 0.062799 0.350819 -0.832102
H45   H     H_    0.861764 0.074640 0.383523 0.267713
H46   H     H_    0.782872 0.047870 0.409765 0.245443
H47   H     H_    0.821466 0.023091 0.300044 0.228954
H48   H     H_    0.744388 0.106897 0.257058 0.210240
H49   H     H_    0.822650 0.129436 0.235301 0.243883
C111  C     C_3   0.235694 0.854580 0.252506 -0.364497
C112  C     C_3   0.288138 0.832972 0.184761 -0.757898
H50   H     H_    0.335254 0.839500 0.218921 0.250471
H51   H     H_    0.281596 0.782933 0.166335 0.246363
H52   H     H_    0.286324 0.860275 0.116062 0.263987
H53   H     H_    0.191296 0.854010 0.209354 0.241470
H54   H     H_    0.242372 0.904142 0.273282 0.185798
C113  C     C_3   0.274404 0.185636 0.225177 -0.394184
C114  C     C_3   0.336267 0.212430 0.186464 -0.807230
H55   H     H_    0.331334 0.263400 0.173966 0.264753
H56   H     H_    0.375904 0.204406 0.238086 0.252672
H57   H     H_    0.347808 0.189880 0.116005 0.232457
H58   H     H_    0.276349 0.134355 0.232163 0.162907
H59   H     H_    0.237937 0.194154 0.168433 0.241840
C115  C     C_3   0.755437 0.848687 0.245836 -0.375951
C116  C     C_3   0.700640 0.825813 0.181774 -0.870394
H60   H     H_    0.702526 0.848981 0.109358 0.229956
H61   H     H_    0.703478 0.774685 0.170305 0.256148
H62   H     H_    0.654535 0.836388 0.215478 0.256193
H63   H     H_    0.749667 0.898353 0.265926 0.170274
H64   H     H_    0.798930 0.848436 0.201368 0.240466
O17   O     O_3   0.874189 0.221851 0.294657 -0.587005
C117  C     C_3   0.857020 0.255815 0.210210 -0.375159
H65   H     H_    0.814006 0.236077 0.174830 0.160563
H66   H     H_    0.896030 0.252796 0.156959 0.195864
H67   H     H_    0.849624 0.306028 0.226676 0.178536
O18   O     O_3   0.135785 0.767110 0.276699 -0.583409
C118  C     C_3   0.085101 0.804506 0.307769 -0.358187
H68   H     H_    0.048067 0.804105 0.250256 0.212847
H69   H     H_    0.099988 0.853830 0.318779 0.153245
H70   H     H_    0.063626 0.785923 0.375795 0.167092
O19   O     O_3   0.176943 0.274922 0.240908 -0.608525
C119  C     C_3   0.121425 0.238633 0.233720 -0.396415
H71   H     H_    0.088413 0.248646 0.294363 0.182040
H72   H     H_    0.132100 0.187858 0.231966 0.163751
H73   H     H_    0.096974 0.250693 0.164449 0.196836
O20   O     O_3   0.853259 0.758569 0.264130 -0.588544
C120  C     C_3   0.830263 0.718811 0.189962 -0.377101
H74   H     H_    0.795587 0.683289 0.215779 0.146049
H75   H     H_    0.870906 0.693764 0.158276 0.187844
H76   H     H_    0.808854 0.746767 0.130296 0.189304
O21   O     O_3   0.369753 0.726699 0.714560 -0.573595
C121  C     C_3   0.343343 0.755696 0.797032 -0.382310
H77   H     H_    0.310671 0.723561 0.835593 0.164213
H78   H     H_    0.317781 0.799245 0.777563 0.146345
H79   H     H_    0.381948 0.768200 0.848414 0.203342
O22   O     O_3   0.616918 0.287023 0.686316 -0.574243
C122  C     C_3   0.636180 0.262983 0.777653 -0.379071
H80   H     H_    0.594583 0.260628 0.826148 0.207573
H81   H     H_    0.671923 0.293723 0.812958 0.156159
H82   H     H_    0.655349 0.215024 0.770964 0.149917
O23   O     O_3   0.666748 0.760129 0.752940 -0.577466
C123  C     C_3   0.696435 0.806345 0.810510 -0.364582
H83   H     H_    0.698489 0.851938 0.771716 0.175240
H84   H     H_    0.744749 0.792066 0.833405 0.151726
H85   H     H_    0.668366 0.813114 0.877624 0.201188
O24   O     O_3   0.316133 0.218913 0.763004 -0.581750
C124  C     C_3   0.281606 0.169480 0.805391 -0.356263
H86   H     H_    0.304925 0.155991 0.874968 0.202425
H87   H     H_    0.280871 0.127630 0.757604 0.176032
H88   H     H_    0.232504 0.183719 0.822601 0.152208
O25   O     O_3   0.828280 0.506222 0.897500 -0.585432
C125  C     C_3   0.802357 0.445743 0.890705 -0.319226
H89   H     H_    0.802256 0.420435 0.961774 0.191773
H90   H     H_    0.827926 0.417993 0.835235 0.142994
H91   H     H_    0.752419 0.450026 0.867512 0.180258
O26   O     O_3   0.169583 0.475990 0.103915 -0.593723
C126  C     C_3   0.179596 0.411303 0.114144 -0.239080
H92   H     H_    0.186227 0.388665 0.041993 0.184932
H93   H     H_    0.140260 0.388426 0.154196 0.166839
H94   H     H_    0.223328 0.403943 0.157442 0.202531
O27   O     O_3   0.170085 0.479440 0.900868 -0.593561
C127  C     C_3   0.203856 0.536087 0.902373 -0.328670
H95   H     H_    0.216544 0.550523 0.977826 0.213896
H96   H     H_    0.176757 0.573786 0.865279 0.141670
H97   H     H_    0.248659 0.529203 0.862762 0.186099
O28   O     O_3   0.828115 0.501907 0.099221 -0.574896
C128  C     C_3   0.808535 0.563501 0.116474 -0.315066
H98   H     H_    0.804057 0.590783 0.047526 0.183292
H99   H     H_    0.841424 0.586989 0.167965 0.135347
H100  H     H_    0.761431 0.562161 0.151093 0.192274
O29   O     O_3   0.329945 0.976653 0.897378 -0.579943
C129  C     C_3   0.319336 0.912949 0.878714 -0.327781
H101  H     H_    0.314030 0.885984 0.947586 0.181278
H102  H     H_    0.357923 0.892972 0.834129 0.143028
H103  H     H_    0.274800 0.908109 0.836500 0.187814
O30   O     O_3   0.666776 0.041552 0.101965 -0.585139
C130  C     C_3   0.703022 0.987770 0.119158 -0.340956
H104  H     H_    0.716505 0.964570 0.049858 0.199343
H105  H     H_    0.677297 0.954758 0.167227 0.156048
H106  H     H_    0.747133 0.001553 0.157286 0.187324
O31   O     O_3   0.668179 0.035102 0.900285 -0.577574
C131  C     C_3   0.673507 0.099731 0.883140 -0.311217
H107  H     H_    0.678290 0.125953 0.952732 0.193164
H108  H     H_    0.632633 0.117557 0.840186 0.139104
H109  H     H_    0.716647 0.108514 0.839841 0.184454
O32   O     O_3   0.330603 0.973378 0.099269 -0.586740
C132  C     C_3   0.300809 0.031485 0.110163 -0.334489
H110  H     H_    0.283339 0.049467 0.038805 0.202937
H111  H     H_    0.333025 0.066191 0.144626 0.147358
H112  H     H_    0.259534 0.025331 0.158562 0.175576

loop_
_geom_bond_atom_site_label_1
_geom_bond_atom_site_label_2
_geom_bond_distance
_ccdc_geom_bond_type
C130  H106  1.108329 S    
C63   C67   1.407273 A    
C108  H40   1.110912 S    
C10   C18   1.392085 A    
C104  H30   1.109474 S    
C8    C21   1.453993 S    
C71   O23   1.385753 S    
O5    Cu2   1.964797 S    
C75   C81   1.415680 A    
O7    C4    1.287574 A    
C100  O32   1.381267 S    
O31   C131  1.409188 S    
C14   C22   1.391868 A    
C119  H73   1.109284 S    
C60   C107  1.525258 S    
C101  H28   1.108185 S    
O9    C5    1.292123 A    
C74   N2    1.364022 A    
C110  H45   1.110861 S    
C112  H50   1.109372 S    
C98   C99   1.414616 A    
C65   O17   1.385364 S    
C126  H92   1.113044 S    
C12   C52   1.393678 A    
C107  H44   1.108780 S    
O17   C117  1.412259 S    
O10   C6    1.293337 A    
C132  H112  1.109270 S    
C69   O21   1.384637 S    
C26   H10   1.080321 S    
O13   C7    1.289090 A    
C7    C22   1.456097 S    
C87   C99   1.412630 A    
O12   Cu4   1.969111 S    
C54   C69   1.409041 A    
C127  H96   1.113141 S    
C106  H35   1.110840 S    
C119  H72   1.113066 S    
C53   C70   1.409252 A    
C120  H76   1.108382 S    
C38   C62   1.421783 A    
C128  H98   1.113840 S    
C117  H66   1.109200 S    
C112  H51   1.111028 S    
O6    Cu1   1.964794 S    
O2    C2    1.294206 A    
C107  C108  1.527871 S    
C122  H81   1.112258 S    
C41   C49   1.414135 A    
C109  H48   1.109422 S    
C46   C54   1.415349 A    
C127  H97   1.108074 S    
C79   H23   1.081613 S    
C35   C59   1.422632 A    
C111  C112  1.527727 S    
C42   C50   1.414487 A    
O3    C2    1.289320 A    
C28   C36   1.404264 A    
C124  H86   1.109571 S    
O14   C8    1.291102 A    
C74   H18   1.081586 S    
C2    C19   1.460896 S    
C113  H58   1.104316 S    
C82   C94   1.409972 A    
C32   C40   1.405382 A    
C74   C84   1.414863 A    
C77   N3    1.364636 A    
C97   O29   1.382231 S    
C41   C46   1.402467 A    
C38   C46   1.421070 A    
C86   C98   1.413696 A    
C105  C106  1.527549 S    
C11   C19   1.391972 A    
C102  H27   1.110382 S    
C16   C56   1.398015 A    
C96   O28   1.382978 S    
C116  H62   1.108637 S    
O23   C123  1.412518 S    
C36   C44   1.422025 A    
O13   Cu4   1.964797 S    
C115  C116  1.532227 S    
O11   Cu3   1.969111 S    
O14   Cu3   1.964794 S    
C15   C23   1.394065 A    
O29   C129  1.407523 S    
C10   C50   1.398415 A    
C59   C71   1.410611 A    
O30   C130  1.406427 S    
C42   C45   1.403702 A    
C75   H19   1.082232 S    
C39   C47   1.421841 A    
O16   C7    1.292017 A    
C24   C32   1.395356 A    
O16   Cu3   1.963707 S    
C66   O18   1.385271 S    
C130  H104  1.113155 S    
C27   C35   1.403498 A    
C25   C33   1.403934 A    
C116  H60   1.109757 S    
C104  H31   1.110970 S    
C80   C86   1.415416 A    
O25   C125  1.409968 S    
C83   C89   1.410694 A    
O1    Cu1   1.971893 S    
O8    Cu1   1.963707 S    
C99   O31   1.382742 S    
C33   C41   1.420806 A    
C31   H15   1.079135 S    
C15   H7    1.083138 S    
C47   C55   1.414213 A    
C88   C92   1.409915 A    
C21   C29   1.393438 A    
O20   C120  1.412174 S    
C97   C100  1.413298 A    
C9    C49   1.396522 A    
C107  H43   1.109446 S    
C108  H42   1.109310 S    
C125  H90   1.112031 S    
O8    C3    1.292252 A    
C27   H11   1.079079 S    
C78   C88   1.414988 A    
C84   C96   1.412068 A    
C73   N1    1.366023 A    
C113  C114  1.528345 S    
C30   C38   1.403423 A    
C44   C47   1.402695 A    
Cu2   N2    2.006933 S    
O3    Cu1   1.969111 S    
C119  H71   1.112322 S    
C78   H22   1.081881 S    
O2    Cu2   1.971893 S    
C123  H83   1.112420 S    
Cu4   N4    2.006933 S    
C45   C53   1.416222 A    
C37   C45   1.422015 A    
C80   H24   1.081408 S    
C117  H65   1.113276 S    
C73   C83   1.416021 A    
C126  H94   1.109297 S    
C29   H13   1.080165 S    
C34   C42   1.421510 A    
C64   C115  1.520803 S    
O26   C126  1.410299 S    
C109  H49   1.108671 S    
O12   C5    1.292163 A    
C13   C21   1.390627 A    
C58   C70   1.409818 A    
C80   N4    1.365548 A    
C35   C43   1.421694 A    
C124  H87   1.112590 S    
C1    C20   1.460330 S    
C114  H56   1.108800 S    
C73   H17   1.082296 S    
C60   C72   1.410338 A    
C33   C57   1.419225 A    
O19   C119  1.412285 S    
C114  H57   1.110577 S    
C118  H68   1.109227 S    
C76   C82   1.413324 A    
C120  H74   1.115591 S    
C39   C63   1.422518 A    
C3    C18   1.453693 S    
C93   C96   1.415533 A    
C5    C24   1.462404 S    
C108  H41   1.109392 S    
C85   C91   1.410439 A    
C110  H46   1.109057 S    
C6    C23   1.463540 S    
C131  H109  1.109234 S    
C86   C92   1.410452 A    
C57   C69   1.408986 A    
C127  H95   1.111702 S    
C26   C34   1.405147 A    
O21   C121  1.411882 S    
C131  H108  1.112831 S    
C84   C90   1.410117 A    
C16   H8    1.083454 S    
C78   N4    1.364952 A    
O32   C132  1.407594 S    
C59   C105  1.526031 S    
O7    Cu2   1.963704 S    
C40   C48   1.421611 A    
C129  H102  1.112324 S    
C55   C72   1.409960 A    
C22   C30   1.395218 A    
O5    C3    1.287577 A    
O4    C1    1.292341 A    
C13   C53   1.398510 A    
O15   C8    1.288896 A    
C12   H4    1.083135 S    
C126  H93   1.113560 S    
C43   C51   1.416125 A    
C103  H33   1.108599 S    
C121  H77   1.110903 S    
C104  H32   1.109454 S    
C121  H78   1.112185 S    
C12   C20   1.391397 A    
C25   H9    1.080399 S    
C115  H64   1.109088 S    
C9    C17   1.391952 A    
C102  H26   1.110827 S    
C15   C55   1.396196 A    
C48   C56   1.415372 A    
C94   O26   1.383307 S    
C17   C25   1.391721 A    
C91   C92   1.419631 A    
C95   O27   1.381259 S    
C130  H105  1.110233 S    
C116  H61   1.109834 S    
C122  H80   1.109147 S    
C52   C67   1.407880 A    
O9    Cu3   1.971893 S    
C19   C27   1.396050 A    
C89   C90   1.420104 A    
C98   O30   1.382496 S    
C132  H110  1.112144 S    
O10   Cu4   1.971893 S    
C20   C28   1.396990 A    
C125  H89   1.113888 S    
C72   O24   1.385918 S    
C67   O19   1.385692 S    
C103  C104  1.527798 S    
C118  H69   1.113164 S    
C102  H25   1.108702 S    
O1    C1    1.291052 A    
C106  H37   1.109984 S    
C63   C113  1.520932 S    
C113  H59   1.108502 S    
C77   H21   1.081749 S    
C81   C89   1.410673 A    
O28   C128  1.406867 S    
C112  H52   1.108023 S    
C129  H103  1.109186 S    
C79   C85   1.414103 A    
C128  H100  1.109125 S    
O4    Cu2   1.969111 S    
C57   C101  1.521812 S    
C94   C95   1.416388 A    
C77   C87   1.414610 A    
Cu3   N3    2.006933 S    
C132  H111  1.112791 S    
C121  H79   1.109245 S    
O6    C4    1.292120 A    
C43   C48   1.403890 A    
O11   C6    1.291613 A    
C79   N3    1.363442 A    
C36   C60   1.422316 A    
C123  H85   1.109361 S    
C75   N1    1.366152 A    
C124  H88   1.113148 S    
C85   C97   1.411759 A    
C114  H55   1.110918 S    
C76   H20   1.082027 S    
C106  H36   1.108712 S    
C105  H38   1.109810 S    
Cu1   Cu2   2.671156 S    
C128  H99   1.109835 S    
C61   C109  1.525200 S    
C120  H75   1.108814 S    
Cu1   N1    2.006933 S    
C62   C66   1.410547 A    
C101  C102  1.529255 S    
C9    H1    1.083792 S    
C4    C17   1.453306 S    
C40   C64   1.422180 A    
C117  H67   1.112542 S    
C58   C103  1.522728 S    
O15   Cu4   1.963704 S    
C29   C37   1.404768 A    
C64   C68   1.410333 A    
C23   C31   1.395892 A    
C11   H3    1.083410 S    
C62   C111  1.524319 S    
C11   C51   1.398589 A    
O24   C124  1.412250 S    
C14   H6    1.083986 S    
C34   C58   1.419470 A    
C123  H84   1.113262 S    
C88   C100  1.412357 A    
C122  H82   1.111268 S    
C111  H54   1.109406 S    
C44   C52   1.414595 A    
C101  H29   1.103884 S    
O22   C122  1.411139 S    
C105  H39   1.108659 S    
C37   C61   1.422286 A    
C87   C91   1.409627 A    
C18   C26   1.391827 A    
C110  H47   1.110196 S    
C16   C24   1.393063 A    
C129  H101  1.111889 S    
C109  C110  1.528620 S    
C56   C71   1.410367 A    
C103  H34   1.104247 S    
C51   C68   1.408490 A    
C68   O20   1.386880 S    
C118  H70   1.112792 S    
C31   C39   1.404881 A    
C131  H107  1.112726 S    
C32   H16   1.078846 S    
C10   H2    1.084001 S    
O18   C118  1.411903 S    
C83   C95   1.413049 A    
C115  H63   1.108110 S    
C30   H14   1.079851 S    
C76   N2    1.363260 A    
C111  H53   1.108730 S    
C70   O22   1.384687 S    
C14   C54   1.397646 A    
C13   H5    1.084027 S    
C81   C93   1.412995 A    
C50   C65   1.410274 A    
C82   C90   1.409888 A    
C61   C65   1.411509 A    
C49   C66   1.408871 A    
O27   C127  1.408206 S    
C93   O25   1.381942 S    
Cu3   Cu4   2.671156 S    
C125  H91   1.107801 S    
C28   H12   1.078960 S    
