data_mof_unit_59758.cif
_audit_creation_date              2013-03-05T16:33:55-0500
_audit_creation_method            fapswitch 2.2
_symmetry_space_group_name_H-M    P1
_symmetry_Int_Tables_number       1
_space_group_crystal_system       triclinic
_cell_length_a                    17.709588
_cell_length_b                    10.859894
_cell_length_c                    9.667133
_cell_angle_alpha                 90.20654
_cell_angle_beta                  88.400569
_cell_angle_gamma                 91.258473
_cell_volume                      1858.0431065

loop_
_atom_site_label
_atom_site_type_symbol
_atom_site_description
_atom_site_fract_x
_atom_site_fract_y
_atom_site_fract_z
_atom_type_partial_charge
O1    O     O_R   0.500000 0.319640 0.618810 -0.563046
O2    O     O_R   0.500010 0.319680 0.381230 -0.512299
C1    C     C_R   0.506806 0.263518 0.497967 0.897493
O3    O     O_R   0.391250 0.499990 0.618840 -0.510838
O4    O     O_R   0.391260 0.500020 0.381250 -0.577573
C2    C     C_R   0.355803 0.496885 0.501670 0.962271
Cu1   Cu    Cu3+1 0.500000 0.499980 0.640670 1.106406
Cu2   Cu    Cu3+1 0.500000 0.500020 0.359330 1.112822
O5    O     O_R   0.499990 0.680320 0.618770 -0.563385
O6    O     O_R   0.500000 0.680360 0.381190 -0.561678
O7    O     O_R   0.608740 0.499980 0.618750 -0.589291
O8    O     O_R   0.608750 0.500010 0.381160 -0.541392
C3    C     C_R   0.496291 0.737410 0.500586 0.948747
C4    C     C_R   0.643743 0.499128 0.499019 0.896022
C5    C     C_R   0.848484 0.585105 0.556528 0.245947
C6    C     C_R   0.769145 0.592634 0.558009 0.280437
C7    C     C_R   0.726087 0.496086 0.498950 -0.186385
C8    C     C_R   0.761505 0.392596 0.443626 -0.155878
H1    H     H_    0.727336 0.318024 0.401808 0.222422
C9    C     C_R   0.840244 0.385511 0.437956 0.331251
C10   C     C_R   0.883850 0.482532 0.494991 -0.185005
C11   C     C_1   0.964959 0.479216 0.490717 0.201239
C12   C     C_1   0.032796 0.480188 0.489345 0.226968
C13   C     C_R   0.151671 0.590776 0.537171 0.248447
C14   C     C_R   0.230833 0.593168 0.543787 0.202270
C15   C     C_R   0.272367 0.488642 0.504949 -0.310206
C16   C     C_R   0.233902 0.379633 0.461935 0.295276
C17   C     C_R   0.154583 0.379197 0.451467 0.233193
C18   C     C_R   0.113979 0.483857 0.491024 -0.226123
C19   C     C_R   0.542776 0.063034 0.597259 -0.040711
C20   C     C_R   0.515985 0.130316 0.488421 -0.236392
C21   C     C_R   0.495059 0.063439 0.368870 0.368697
C22   C     C_R   0.470688 0.938935 0.384005 0.216003
C23   C     C_R   0.495560 0.872064 0.500180 -0.129401
C24   C     C_R   0.534683 0.936985 0.602292 -0.045074
C25   C     C_3   0.526801 0.942665 0.757994 0.127228
C26   C     C_3   0.543710 0.081459 0.748659 0.119190
H2    H     H_    0.570024 0.889420 0.811637 0.180609
H3    H     H_    0.498539 0.141799 0.790155 0.154095
C27   C     C_R   0.566795 0.501627 0.067974 0.140718
N1    N     N_R   0.500470 0.500930 0.147930 -0.249326
C28   C     C_R   0.435226 0.483244 0.078290 -0.046129
H4    H     H_    0.382729 0.467039 0.135376 0.216529
C29   C     C_R   0.435154 0.477955 0.931114 0.412500
N2    N     N_R   0.500480 0.500890 0.852020 -0.233109
C30   C     C_R   0.565590 0.500459 0.922091 0.093763
C31   C     C_3   0.630031 0.584980 0.898788 -0.381218
C32   C     C_3   0.633673 0.593892 0.055687 0.527502
H5    H     H_    0.677062 0.535918 0.846140 0.250317
H6    H     H_    0.613249 0.669988 0.844848 0.219113
N3    N     N_R   0.893357 0.683883 0.612916 0.186228
O9    O     O_R   0.939629 0.662606 0.711819 -0.247735
O10   O     O_R   0.886702 0.795772 0.567844 -0.165243
N4    N     N_R   0.411544 0.890825 0.296816 0.150153
O11   O     O_R   0.376820 0.786957 0.325748 -0.331929
O12   O     O_R   0.378270 0.964537 0.213441 -0.185461
S1    S     S_3+6 0.431130 0.911266 0.817355 0.129708
O13   O     O_2   0.422811 0.778358 0.858191 -0.174817
O14   O     O_2   0.411739 0.990182 0.940232 -0.157096
O15   O     O_3   0.370238 0.941569 0.692189 -0.433440
H7    H     H_    0.371716 0.032359 0.683198 0.376097
S2    S     S_3+6 0.637446 0.128132 0.796048 0.099063
O16   O     O_2   0.645513 0.265596 0.783095 -0.255759
O17   O     O_2   0.652364 0.092611 0.942432 -0.129572
O18   O     O_3   0.701998 0.062726 0.689808 -0.421879
H8    H     H_    0.701104 0.974668 0.716113 0.400397
N5    N     N_R   0.367489 0.433753 0.869588 0.149443
O19   O     O_R   0.366753 0.324801 0.813250 -0.298179
O20   O     O_R   0.303505 0.484115 0.902981 -0.266199
S3    S     S_3+6 0.723094 0.538906 0.111727 0.093160
O21   O     O_2   0.748060 0.609724 0.236506 -0.234312
O22   O     O_2   0.715766 0.404036 0.144939 -0.258082
O23   O     O_3   0.789862 0.559161 0.986029 -0.461785
H9    H     H_    0.835918 0.522535 0.022853 0.406356
N6    N     N_R   0.732879 0.697960 0.618775 0.123407
O24   O     O_R   0.755063 0.742717 0.736275 -0.272401
O25   O     O_R   0.679324 0.752336 0.554731 -0.348837
S4    S     S_3+6 0.615267 0.748130 0.110163 0.108045
O26   O     O_2   0.625115 0.764691 0.262790 -0.215478
O27   O     O_2   0.669509 0.834524 0.034981 -0.148005
O28   O     O_3   0.526898 0.780996 0.066720 -0.499429
H10   H     H_    0.493202 0.737116 0.133782 0.380087
N7    N     N_R   0.874539 0.280371 0.372750 0.177541
O29   O     O_R   0.839165 0.174029 0.373935 -0.202968
O30   O     O_R   0.935987 0.293404 0.296797 -0.251340
N8    N     N_R   0.109604 0.697071 0.578549 0.187902
O31   O     O_R   0.120020 0.748180 0.698661 -0.172916
O32   O     O_R   0.062999 0.745996 0.493928 -0.228417
N9    N     N_R   0.269065 0.702867 0.588970 0.166830
O33   O     O_R   0.256374 0.807775 0.530369 -0.225247
O34   O     O_R   0.304161 0.701591 0.705037 -0.201078
S5    S     S_3+6 0.284125 0.242258 0.428119 0.099961
O35   O     O_2   0.317680 0.249256 0.284032 -0.206779
O36   O     O_2   0.345978 0.231096 0.529725 -0.336554
O37   O     O_3   0.228159 0.115531 0.442070 -0.384038
H11   H     H_    0.261184 0.046413 0.415488 0.420569
N10   N     N_R   0.114922 0.273565 0.398068 0.198794
O38   O     O_R   0.065259 0.214022 0.475449 -0.211543
O39   O     O_R   0.125602 0.240714 0.269573 -0.189554
S6    S     S_3+6 0.519456 0.120156 0.200616 0.140006
O40   O     O_2   0.590160 0.199110 0.205792 -0.228504
O41   O     O_2   0.534066 0.014480 0.104970 -0.163600
O42   O     O_3   0.449245 0.203143 0.138300 -0.439201
H12   H     H_    0.465254 0.221781 0.041509 0.360614

loop_
_geom_bond_atom_site_label_1
_geom_bond_atom_site_label_2
_geom_bond_distance
_ccdc_geom_bond_type
C17   N10   1.433998 S    
C6    N6    1.439542 S    
O23   H9    0.990796 S    
O37   H11   0.990464 S    
O28   H10   0.985696 S    
Cu1   Cu2   2.719752 S    
C31   H5    1.109286 S    
N2    C30   1.353626 A    
C27   C30   1.411032 A    
C15   C16   1.419586 A    
C19   C24   1.374113 A    
N7    O29   1.301618 A    
O4    C2    1.307350 A    
C12   C18   1.437939 S    
C25   C26   1.532767 S    
C8    H1    1.084070 S    
C19   C20   1.383715 A    
O7    C4    1.297758 A    
S4    O27   1.502544 D    
S1    O14   1.498747 D    
C5    C6    1.408903 A    
C27   C32   1.536784 S    
C23   C24   1.401157 A    
N1    C28   1.363057 A    
C32   S4    1.788095 S    
O5    C3    1.305780 A    
C13   C18   1.404166 A    
S6    O40   1.503862 D    
S2    O17   1.500153 D    
N4    O11   1.300366 A    
C31   C32   1.522576 S    
C6    C7    1.411256 A    
S3    O21   1.500051 D    
C5    N3    1.435933 S    
N9    O34   1.298029 A    
C8    C9    1.397789 A    
C10   C11   1.437080 S    
C4    C7    1.459366 S    
C28   C29   1.423752 A    
O3    Cu1   1.943296 S    
S6    O41   1.493645 D    
N10   O39   1.301051 A    
N10   O38   1.301166 A    
C31   H6    1.112055 S    
N4    O12   1.299829 A    
N5    O19   1.300712 A    
C13   C14   1.404819 A    
O3    C2    1.310227 A    
C25   S1    1.799433 S    
N8    O31   1.301203 A    
S1    O15   1.681245 S    
C14   C15   1.410222 A    
S5    O37   1.681825 S    
N3    O9    1.301025 A    
C19   C26   1.477002 S    
O15   H7    0.989816 S    
O1    C1    1.319447 A    
C24   C25   1.508928 S    
Cu1   O7    1.931474 S    
N6    O24   1.301296 A    
S2    O16   1.501878 D    
C20   C21   1.416524 A    
Cu2   O8    1.943294 S    
S3    O23   1.683265 S    
S5    O36   1.498704 D    
C7    C8    1.396596 A    
C16   S5    1.778257 S    
Cu2   N1    2.043475 S    
C1    C20   1.461501 S    
N6    O25   1.300604 A    
C27   N1    1.387852 A    
N7    O30   1.301043 A    
O8    C4    1.312262 A    
C28   H4    1.079218 S    
Cu1   N2    2.043391 S    
C16   C17   1.411057 A    
C29   N2    1.387234 A    
N5    O20   1.301089 A    
C22   N4    1.450023 S    
Cu1   O5    1.970645 S    
C30   C31   1.461781 S    
C17   C18   1.404493 A    
S2    O18   1.682585 S    
O1    Cu1   1.969084 S    
O2    Cu2   1.970645 S    
C32   S3    1.802675 S    
O6    C3    1.308737 A    
O4    Cu2   1.931476 S    
C14   N9    1.430311 S    
C21   C22   1.417077 A    
C25   H2    1.110387 S    
O2    C1    1.294523 A    
C3    C23   1.462684 S    
C26   H3    1.110616 S    
S4    O26   1.500284 D    
S4    O28   1.677865 S    
S1    O13   1.500800 D    
C2    C15   1.477832 S    
S5    O35   1.500553 D    
C22   C23   1.424870 A    
N8    O32   1.301069 A    
S6    O42   1.678129 S    
C21   S6    1.779883 S    
C5    C10   1.411410 A    
C9    C10   1.412220 A    
Cu2   O6    1.969084 S    
O18   H8    0.990102 S    
C9    N7    1.440093 S    
O42   H12   0.990406 S    
C26   S2    1.796175 S    
C11   C12   1.200883 T    
C29   N5    1.425699 S    
S3    O22   1.502636 D    
N3    O10   1.301227 A    
N9    O33   1.300933 A    
C13   N8    1.437132 S    
