data_mof_unit_32264.cif
_audit_creation_date              2012-12-10T18:53:39-0500
_audit_creation_method            fapswitch 2.2
_symmetry_space_group_name_H-M    P1
_symmetry_Int_Tables_number       1
_space_group_crystal_system       triclinic
_cell_length_a                    10.680257
_cell_length_b                    9.833485
_cell_length_c                    18.632895
_cell_angle_alpha                 90.404588
_cell_angle_beta                  90.138761
_cell_angle_gamma                 90.011215
_cell_volume                      1956.84933193

loop_
_atom_site_label
_atom_site_type_symbol
_atom_type_description
_atom_site_fract_x
_atom_site_fract_y
_atom_site_fract_z
_atom_type_partial_charge
C1    C     C_R   0.259898 0.499988 0.499968 0.853808
C2    C     C_R   0.740104 0.500013 0.500052 0.859901
C3    C     C_R   0.341124 0.492577 0.927475 0.286840
C4    C     C_R   0.340894 0.506262 0.072083 0.286827
C5    C     C_R   0.496542 0.499514 0.364577 0.913981
C6    C     C_R   0.496707 0.500472 0.635418 0.911066
C7    C     C_R   0.064202 0.384710 0.523879 -0.194169
C8    C     C_R   0.935821 0.615321 0.476202 -0.196779
C9    C     C_R   0.935982 0.384745 0.523940 -0.194501
C10   C     C_R   0.064038 0.615282 0.476140 -0.192629
C11   C     C_R   0.872490 0.500039 0.500081 -0.018999
C12   C     C_R   0.127527 0.499978 0.499981 -0.016513
C13   C     C_R   0.580383 0.072569 0.543185 -0.065567
C14   C     C_R   0.419602 0.927436 0.456819 -0.067336
C15   C     C_R   0.419619 0.071392 0.456808 -0.066974
C16   C     C_R   0.580384 0.928620 0.543182 -0.070307
C17   C     C_R   0.508783 0.598634 0.243280 -0.289744
C18   C     C_R   0.509571 0.401475 0.756739 -0.286997
C19   C     C_R   0.372210 0.592954 0.734806 -0.277627
C20   C     C_R   0.372416 0.406263 0.264863 -0.279960
C21   C     C_R   0.469215 0.602232 0.171971 0.478251
C22   C     C_R   0.469978 0.397529 0.827930 0.479968
C23   C     C_R   0.322998 0.582285 0.803597 0.472661
C24   C     C_R   0.323159 0.416564 0.195929 0.474810
C25   C     C_R   0.374108 0.512170 0.148173 -0.169195
C26   C     C_R   0.374419 0.486964 0.851480 -0.169099
C27   C     C_R   0.463184 0.498538 0.289021 -0.177149
C28   C     C_R   0.463471 0.501318 0.710894 -0.176588
H1    H     H_    0.577324 0.671678 0.262422 0.169224
H2    H     H_    0.578443 0.328858 0.737757 0.163984
H3    H     H_    0.333692 0.668188 0.698701 0.178434
H4    H     H_    0.334313 0.330758 0.300865 0.169574
H5    H     H_    0.644617 0.127651 0.577701 0.121711
H6    H     H_    0.355357 0.872354 0.422311 0.128085
H7    H     H_    0.355418 0.125540 0.422275 0.125496
H8    H     H_    0.644618 0.874488 0.577692 0.130791
N1    N     N_R   0.500000 0.857200 0.500000 -0.080175
N2    N     N_R   0.500000 0.142800 0.500000 -0.078213
N3    N     N_R   0.337523 0.384068 0.038029 -0.127320
N4    N     N_R   0.336801 0.614737 0.961516 -0.127318
N5    N     N_R   0.337622 0.377300 0.966837 -0.124907
N6    N     N_R   0.336679 0.621505 0.032708 -0.125378
O1    O     O_R   0.316770 0.614620 0.500000 -0.626320
O2    O     O_R   0.683230 0.385380 0.500000 -0.623348
O3    O     O_R   0.683230 0.614620 0.500000 -0.625121
O4    O     O_R   0.316770 0.385380 0.500000 -0.627097
O5    O     O_R   0.499990 0.614700 0.398140 -0.610754
O6    O     O_R   0.500010 0.385300 0.601860 -0.609347
O7    O     O_R   0.500010 0.614700 0.601860 -0.611650
O8    O     O_R   0.499990 0.385300 0.398140 -0.609981
Zn1   Zn    Zn3+2 0.500000 0.653120 0.500000 0.941629
Zn2   Zn    Zn3+2 0.500000 0.346880 0.500000 0.943957
H9    H     H_    0.113504 0.295701 0.543047 0.157647
H10   H     H_    0.886525 0.704328 0.457028 0.156382
H11   H     H_    0.886811 0.295769 0.543162 0.150094
H12   H     H_    0.113206 0.704267 0.456927 0.150991
O9    O     O_3   0.523634 0.694962 0.126024 -0.618634
C29   C     C_3   0.625313 0.633230 0.089415 0.104263
H13   H     H_    0.622042 0.667445 0.032730 0.170308
H14   H     H_    0.621258 0.519607 0.087567 0.107414
C30   C     C_3   0.749373 0.679831 0.122716 -0.350356
H15   H     H_    0.754566 0.792696 0.121762 0.241013
H16   H     H_    0.754270 0.646429 0.179409 0.213324
C31   C     C_3   0.861119 0.621079 0.082148 -0.967312
H17   H     H_    0.859661 0.508257 0.084264 0.258726
H18   H     H_    0.949328 0.657833 0.107255 0.270001
H19   H     H_    0.859236 0.654130 0.025286 0.268940
O10   O     O_3   0.524784 0.305052 0.874004 -0.618747
C32   C     C_3   0.626456 0.367166 0.910741 0.103706
H20   H     H_    0.623322 0.333263 0.967474 0.170548
H21   H     H_    0.622288 0.480792 0.912403 0.106999
C33   C     C_3   0.750502 0.320578 0.877782 -0.352072
H22   H     H_    0.755793 0.207727 0.878907 0.240387
H23   H     H_    0.755281 0.353692 0.821052 0.212255
C34   C     C_3   0.862272 0.379693 0.918510 -0.965633
H24   H     H_    0.860686 0.492503 0.916258 0.258499
H25   H     H_    0.950462 0.342981 0.893629 0.269901
H26   H     H_    0.860552 0.346871 0.975406 0.268706
O11   O     O_3   0.227224 0.668912 0.824143 -0.621547
C35   C     C_3   0.110923 0.600235 0.818040 0.095570
H27   H     H_    0.046086 0.646572 0.857815 0.173699
H28   H     H_    0.116896 0.490002 0.831619 0.123031
C36   C     C_3   0.054780 0.618278 0.742779 -0.355360
H29   H     H_    0.046494 0.728494 0.730845 0.234983
H30   H     H_    0.116957 0.570830 0.702013 0.215876
C37   C     C_3   0.925826 0.552260 0.736727 -0.958445
H31   H     H_    0.933149 0.441112 0.746028 0.265285
H32   H     H_    0.887372 0.568558 0.682015 0.268772
H33   H     H_    0.860476 0.597748 0.776491 0.266587
O12   O     O_3   0.227796 0.329350 0.175131 -0.622542
C38   C     C_3   0.111181 0.397333 0.180936 0.095423
H34   H     H_    0.046473 0.350514 0.141056 0.173941
H35   H     H_    0.116614 0.507560 0.167280 0.122727
C39   C     C_3   0.055274 0.379149 0.256092 -0.361571
H36   H     H_    0.047281 0.268914 0.268027 0.234637
H37   H     H_    0.117426 0.426820 0.296978 0.214046
C40   C     C_3   0.926197 0.444778 0.261884 -0.948444
H38   H     H_    0.933284 0.555950 0.252620 0.264356
H39   H     H_    0.887903 0.428351 0.316515 0.270888
H40   H     H_    0.860853 0.399130 0.221976 0.266800

loop_
_geom_bond_atom_site_label_1
_geom_bond_atom_site_label_2
_ccdc_geom_bond_type
C32   C33   S    
C17   H1    S    
C19   H3    S    
C40   H38   S    
O12   C38   S    
N3    N5    A    
C13   H5    S    
C5    O5    A    
C6    O6    A    
C35   C36   S    
N1    Zn1   S    
C37   H32   S    
C1    O4    A    
N2    Zn2   S    
O3    Zn1   S    
C29   H14   S    
O4    Zn2   S    
C32   H21   S    
C23   C26   A    
C30   H16   S    
C5    C27   S    
C1    O1    A    
C6    C28   S    
C20   C24   A    
C2    O2    A    
O10   C32   S    
O7    Zn1   S    
O8    Zn2   S    
C18   H2    S    
C10   H12   S    
C16   N1    A    
O2    Zn2   S    
C29   C30   S    
N4    N6    A    
C32   H20   S    
C1    C12   S    
C33   C34   S    
C2    C11   S    
C15   H7    S    
C40   H39   S    
C4    C25   S    
C2    O3    A    
C7    C12   A    
C17   C27   A    
C31   H19   S    
C18   C28   A    
C24   C25   A    
C33   H23   S    
C8    H10   S    
C38   H34   S    
C37   H31   S    
C35   H27   S    
O5    Zn1   S    
C39   C40   S    
C29   H13   S    
C17   C21   A    
C31   H18   S    
C30   C31   S    
C19   C23   A    
C34   H24   S    
C15   N2    A    
C21   O9    S    
C38   H35   S    
C34   H25   S    
C36   H29   S    
C4    N3    A    
C39   H36   S    
C39   H37   S    
C19   C28   A    
C9    C11   A    
C22   O10   S    
C13   N2    A    
C10   C12   A    
C9    H11   S    
C35   H28   S    
C36   H30   S    
C3    N4    A    
C5    O8    A    
C7    H9    S    
C40   H40   S    
C20   H4    S    
C7    C9    A    
C21   C25   A    
C3    N5    A    
C18   C22   A    
C3    C26   S    
C33   H22   S    
C37   H33   S    
C24   O12   S    
C14   H6    S    
C20   C27   A    
C31   H17   S    
C16   H8    S    
C38   C39   S    
O1    Zn1   S    
O9    C29   S    
C4    N6    A    
C8    C11   A    
C6    O7    A    
C30   H15   S    
C34   H26   S    
O11   C35   S    
O6    Zn2   S    
C36   C37   S    
C8    C10   A    
C22   C26   A    
C13   C16   A    
C14   C15   A    
C23   O11   S    
C14   N1    A    
