data_mof_unit_14304.cif
_audit_creation_date              2012-12-10T17:00:44-0500
_audit_creation_method            fapswitch 2.2
_symmetry_space_group_name_H-M    P1
_symmetry_Int_Tables_number       1
_space_group_crystal_system       triclinic
_cell_length_a                    10.801278
_cell_length_b                    10.785686
_cell_length_c                    10.044414
_cell_angle_alpha                 88.545671
_cell_angle_beta                  103.695898
_cell_angle_gamma                 90.9899
_cell_volume                      1136.45100921

loop_
_atom_site_label
_atom_site_type_symbol
_atom_type_description
_atom_site_fract_x
_atom_site_fract_y
_atom_site_fract_z
_atom_type_partial_charge
Br1   Br    Br    0.703806 0.669505 0.885426 -0.540273
C1    C     C_R   0.492709 0.261735 0.499839 0.826971
C2    C     C_2   0.123186 0.481523 0.411701 -0.380858
C3    C     C_2   0.067851 0.458136 0.514849 -0.146097
C4    C     C_2   0.876843 0.483080 0.590527 -0.355219
C5    C     C_2   0.932323 0.459461 0.489413 -0.200645
C6    C     C_2   0.465122 0.933056 0.380846 0.459105
C7    C     C_3   0.731808 0.692435 0.215341 0.152626
C8    C     C_3   0.874257 0.721416 0.236249 -0.328045
C9    C     C_3   0.902615 0.859474 0.250948 -0.982514
C10   C     C_3   0.348851 0.939690 0.149894 0.106776
C11   C     C_3   0.244327 0.037304 0.134402 -0.299934
C12   C     C_2   0.519544 0.867403 0.493614 -0.409466
C13   C     C_3   0.224773 0.107081 0.997107 -0.972401
C14   C     C_3   0.675137 0.088770 0.308452 -0.002634
C15   C     C_3   0.754433 0.205342 0.295873 -0.248048
C16   C     C_3   0.891195 0.175411 0.292630 -0.976053
C17   C     C_3   0.432129 0.097443 0.719492 0.128276
C18   C     C_3   0.574317 0.079860 0.789522 -0.382387
C19   C     C_3   0.608441 0.140061 0.929319 -0.925392
C20   C     C_2   0.492459 0.066152 0.388277 0.269570
C21   C     C_2   0.467583 0.128214 0.494339 0.169830
C22   C     C_2   0.583283 0.561195 0.944649 0.208999
C23   C     C_2   0.593966 0.544926 0.097664 0.406377
C24   C     C_R   0.259373 0.495980 0.443116 0.957752
C25   C     C_R   0.502217 0.736931 0.498433 1.001306
C26   C     C_R   0.740687 0.496759 0.557280 0.928135
H1    H     H_    0.878243 0.451011 0.384088 0.230383
H2    H     H_    0.927593 0.672852 0.330369 0.229180
H3    H     H_    0.908937 0.687845 0.148054 0.262250
H4    H     H_    0.853365 0.909886 0.155940 0.272853
H5    H     H_    0.006792 0.876343 0.267783 0.283852
H6    H     H_    0.870862 0.894194 0.340330 0.259939
H7    H     H_    0.314572 0.868771 0.070858 0.151645
H8    H     H_    0.437657 0.977639 0.126818 0.153311
H9    H     H_    0.153464 0.990613 0.141225 0.219071
H10   H     H_    0.268857 0.105416 0.217721 0.235477
H11   H     H_    0.313439 0.157766 0.989886 0.266029
H12   H     H_    0.444213 0.436595 0.886448 0.106798
H13   H     H_    0.147263 0.175366 0.987880 0.269693
H14   H     H_    0.197711 0.041526 0.911234 0.259918
H15   H     H_    0.680648 0.023660 0.226290 0.163697
H16   H     H_    0.716763 0.042609 0.409708 0.107947
H17   H     H_    0.709586 0.258812 0.201175 0.248381
H18   H     H_    0.755614 0.264010 0.385238 0.224770
H19   H     H_    0.938053 0.120938 0.385674 0.277620
H20   H     H_    0.946207 0.262687 0.289015 0.273895
H21   H     H_    0.892656 0.123066 0.199485 0.267697
H22   H     H_    0.377687 0.033326 0.773304 0.154248
H23   H     H_    0.414124 0.490517 0.080800 0.108297
H24   H     H_    0.395474 0.190030 0.734911 0.169397
H25   H     H_    0.594710 0.979124 0.803584 0.235823
H26   H     H_    0.637127 0.120963 0.726823 0.214758
H27   H     H_    0.596221 0.242082 0.917678 0.271672
H28   H     H_    0.709392 0.120644 0.980112 0.264691
H29   H     H_    0.546905 0.102323 0.994989 0.263088
H30   H     H_    0.122192 0.447584 0.620492 0.191487
H31   H     H_    0.931410 0.492856 0.695684 0.173782
H32   H     H_    0.068330 0.491780 0.306317 0.156719
H33   H     H_    0.584655 0.909525 0.580315 0.111641
H34   H     H_    0.703970 0.711671 0.312031 0.160671
H35   H     H_    0.675989 0.755990 0.134729 0.134345
N1    N     N_2   0.501330 0.501330 0.852460 -0.225283
N2    N     N_2   0.501370 0.501360 0.148130 -0.227271
O1    O     O_R   0.499980 0.319060 0.613030 -0.635572
O2    O     O_3   0.370049 0.878083 0.279021 -0.634001
O3    O     O_3   0.546712 0.124049 0.290492 -0.651813
O4    O     O_3   0.399801 0.065115 0.579419 -0.666165
O5    O     O_R   0.500020 0.319100 0.386910 -0.564174
O6    O     O_R   0.317800 0.500000 0.570840 -0.620412
O7    O     O_R   0.317840 0.500040 0.344720 -0.611408
O8    O     O_R   0.499980 0.680900 0.613090 -0.569736
O9    O     O_R   0.500020 0.680940 0.386970 -0.608096
O10   O     O_R   0.682160 0.499960 0.655280 -0.561057
O11   O     O_R   0.682200 0.500000 0.429160 -0.596169
O12   O     O_3   0.711818 0.565066 0.185478 -0.618284
Zn1   Zn    Zn3+2 0.499970 0.499970 0.650990 0.971477
Zn2   Zn    Zn3+2 0.500030 0.500030 0.349010 0.977182

loop_
_geom_bond_atom_site_label_1
_geom_bond_atom_site_label_2
_ccdc_geom_bond_type
C15   H18   S    
C3    H30   S    
C6    C12   D    
C10   C11   S    
C16   H21   S    
C1    C21   S    
O8    Zn1   S    
C24   O7    A    
O7    Zn2   S    
C13   H11   S    
C1    O5    A    
H23   N2    S    
C8    C9    S    
C15   H17   S    
C18   C19   S    
C10   O2    S    
C8    H2    S    
C7    H34   S    
C22   C23   S    
C1    O1    A    
C14   O3    S    
C18   H26   S    
C22   N1    D    
C7    C8    S    
C14   H16   S    
C23   N2    D    
C12   H33   S    
C11   H10   S    
C20   C21   D    
C20   O3    S    
C6    O2    S    
C6    C20   S    
C19   H27   S    
C21   O4    S    
O5    Zn2   S    
N2    Zn2   S    
C4    H31   S    
C13   H14   S    
C26   O11   A    
C8    H3    S    
C2    C24   S    
C10   H8    S    
C11   C13   S    
C17   H24   S    
Br1   C22   S    
C9    H6    S    
C19   H29   S    
C19   H28   S    
C4    C5    D    
O11   Zn2   S    
C12   C25   S    
C11   H9    S    
C17   O4    S    
C14   C15   S    
C26   O10   A    
C9    H5    S    
C7    O12   S    
C25   O9    A    
H12   N1    S    
C16   H19   S    
C17   H22   S    
C3    C5    S    
C17   C18   S    
N1    Zn1   S    
C25   O8    A    
C2    H32   S    
C23   O12   S    
C24   O6    A    
O1    Zn1   S    
C4    C26   S    
O9    Zn2   S    
C13   H13   S    
C18   H25   S    
C10   H7    S    
C5    H1    S    
C2    C3    D    
C16   H20   S    
C14   H15   S    
C7    H35   S    
C15   C16   S    
O6    Zn1   S    
O10   Zn1   S    
C9    H4    S    
