data_mof_unit_9272.cif
_audit_creation_date              2013-03-05T15:45:30-0500
_audit_creation_method            fapswitch 2.2
_symmetry_space_group_name_H-M    P1
_symmetry_Int_Tables_number       1
_space_group_crystal_system       triclinic
_cell_length_a                    20.687168
_cell_length_b                    7.073301
_cell_length_c                    20.402201
_cell_angle_alpha                 90.774747
_cell_angle_beta                  101.531166
_cell_angle_gamma                 91.049044
_cell_volume                      2924.18725496

loop_
_atom_site_label
_atom_site_type_symbol
_atom_site_description
_atom_site_fract_x
_atom_site_fract_y
_atom_site_fract_z
_atom_type_partial_charge
O1    O     O_R   0.423690 0.494470 0.435930 -0.583672
O2    O     O_R   0.576310 0.994470 0.564070 -0.586026
O3    O     O_R   0.556070 0.822310 0.435760 -0.592594
O4    O     O_R   0.443930 0.322310 0.564240 -0.570234
C1    C     C_R   0.575783 0.655559 0.420770 1.004519
C2    C     C_R   0.424205 0.155078 0.579255 1.009243
O5    O     O_R   0.422940 0.824080 0.428040 -0.584947
O6    O     O_R   0.577060 0.324080 0.571960 -0.579172
O7    O     O_R   0.442240 0.995960 0.556300 -0.586086
O8    O     O_R   0.557760 0.495960 0.443700 -0.565885
C3    C     C_R   0.397683 0.652527 0.411912 1.010256
C4    C     C_R   0.602235 0.158549 0.588666 1.005870
O9    O     O_3   0.506490 0.661310 0.542090 -0.273087
O10   O     O_3   0.493510 0.161310 0.457910 -0.276499
V1    V     V_3+5 0.498800 0.935560 0.492190 1.272635
V2    V     V_3+5 0.501200 0.435560 0.507810 1.298427
C5    C     C_R   0.839465 0.074221 0.854348 -0.345003
C6    C     C_R   0.161284 0.605656 0.143682 -0.331116
C7    C     C_R   0.664294 0.162434 0.640849 -0.300956
C8    C     C_R   0.335213 0.628202 0.361211 -0.292722
C9    C     C_R   0.765672 0.325294 0.697250 -0.106451
C10   C     C_R   0.236213 0.439680 0.314975 -0.132277
C11   C     C_R   0.712146 0.309528 0.642936 0.344802
C12   C     C_R   0.288697 0.484055 0.368253 0.347947
C13   C     C_R   0.673533 0.028998 0.692189 -0.108811
C14   C     C_R   0.325195 0.732602 0.302127 -0.143868
C15   C     C_R   0.727397 0.045165 0.747428 -0.001511
C16   C     C_R   0.272014 0.688590 0.248230 0.007734
C17   C     C_R   0.774102 0.196297 0.750037 -0.021445
C18   C     C_R   0.227242 0.538170 0.254531 -0.031650
C19   C     C_R   0.829805 0.211710 0.803814 0.335967
C20   C     C_R   0.172563 0.494452 0.201688 0.339625
C21   C     C_R   0.792725 0.926180 0.851038 -0.174214
C22   C     C_R   0.206081 0.753539 0.138301 -0.191485
C23   C     C_R   0.736643 0.911629 0.799418 0.359129
C24   C     C_R   0.261573 0.793771 0.188688 0.372108
H1    H     H_    0.799182 0.821913 0.890132 0.195038
H2    H     H_    0.198356 0.837860 0.093539 0.182991
H3    H     H_    0.801813 0.437404 0.696669 0.204278
H4    H     H_    0.201193 0.330338 0.322228 0.211562
C25   C     C_3   0.248998 0.298398 0.801822 0.200659
C26   C     C_3   0.752650 0.795098 0.198976 0.202215
C27   C     C_3   0.253996 0.939136 0.801722 -0.473787
C28   C     C_3   0.744527 0.435594 0.197525 -0.471858
C29   C     C_3   0.299641 0.938638 0.749227 0.196848
C30   C     C_3   0.698813 0.436249 0.249969 0.199544
H5    H     H_    0.224614 0.804308 0.796405 0.177938
H6    H     H_    0.772731 0.302186 0.202281 0.178638
C31   C     C_1   0.378603 0.145412 0.624699 -0.151322
C32   C     C_1   0.621363 0.646684 0.375265 -0.160682
C33   C     C_3   0.206600 0.109873 0.790750 -0.068230
C34   C     C_3   0.793433 0.608846 0.209309 -0.070610
C35   C     C_3   0.302917 0.298052 0.757979 -0.466044
C36   C     C_3   0.698619 0.795134 0.242700 -0.470709
C37   C     C_3   0.292123 0.125926 0.708134 -0.076617
C38   C     C_3   0.707852 0.626311 0.291848 -0.071945
C39   C     C_3   0.219008 0.137895 0.668118 0.031544
C40   C     C_3   0.781059 0.643507 0.332026 0.025884
C41   C     C_3   0.169523 0.095332 0.715588 0.026485
C42   C     C_3   0.830266 0.599997 0.284477 0.031068
C43   C     C_1   0.339946 0.136831 0.662295 0.159148
C44   C     C_1   0.660010 0.637925 0.337661 0.155533
C45   C     C_1   0.159248 0.098881 0.837087 0.150321
C46   C     C_1   0.840799 0.597272 0.162983 0.151968
C47   C     C_1   0.120981 0.090148 0.875090 -0.173632
C48   C     C_1   0.879052 0.588651 0.124957 -0.174123
H7    H     H_    0.212165 0.286263 0.650767 0.178501
H8    H     H_    0.789191 0.793225 0.349965 0.174799
H9    H     H_    0.300109 0.432068 0.729615 0.181609
H10   H     H_    0.702512 0.930986 0.271598 0.177435
O11   O     O_R   0.942280 0.741210 0.056360 -0.588098
O12   O     O_R   0.057720 0.241210 0.943640 -0.575985
O13   O     O_R   0.077070 0.409690 0.071960 -0.562929
O14   O     O_R   0.922930 0.909690 0.928040 -0.581281
C49   C     C_R   0.101234 0.581648 0.089628 1.022541
C50   C     C_R   0.898934 0.076024 0.909815 1.025074
O15   O     O_R   0.943940 0.411580 0.064250 -0.578138
O16   O     O_R   0.056060 0.911580 0.935750 -0.590811
O17   O     O_R   0.923670 0.239840 0.935920 -0.570006
O18   O     O_R   0.076330 0.739840 0.064080 -0.596805
C51   C     C_R   0.924246 0.579881 0.079040 0.983606
C52   C     C_R   0.075772 0.080416 0.920945 0.984406
O19   O     O_3   0.993540 0.572620 0.957940 -0.252531
O20   O     O_3   0.006460 0.072620 0.042060 -0.264500
V3    V     V_3+5 0.001200 0.298330 0.007800 1.303660
V4    V     V_3+5 0.998800 0.798330 0.992200 1.280231
N1    N     N_R   0.878212 0.360378 0.805103 0.236819
O21   O     O_R   0.938211 0.320298 0.800189 -0.351290
O22   O     O_R   0.863049 0.535356 0.813769 -0.373760
N2    N     N_R   0.126936 0.344158 0.208420 0.237795
O23   O     O_R   0.066033 0.381246 0.210641 -0.352159
O24   O     O_R   0.145935 0.169609 0.211004 -0.363474
H11   H     H_    0.283110 0.939940 0.853594 0.275119
H12   H     H_    0.715445 0.432369 0.145630 0.275169
N3    N     N_R   0.368475 0.901456 0.780600 0.259358
O25   O     O_R   0.399637 0.002391 0.831295 -0.276261
O26   O     O_R   0.398035 0.758420 0.759758 -0.354598
N4    N     N_R   0.629680 0.394199 0.218368 0.259392
O27   O     O_R   0.599325 0.491177 0.168162 -0.277197
O28   O     O_R   0.599025 0.250494 0.238386 -0.354467
H13   H     H_    0.282594 0.819077 0.713899 0.133399
H14   H     H_    0.714855 0.319459 0.284830 0.131305
N5    N     N_R   0.111576 0.216622 0.700943 0.265601
O29   O     O_R   0.052796 0.139461 0.685763 -0.266575
O30   O     O_R   0.117717 0.399913 0.699886 -0.354430
N6    N     N_R   0.889325 0.724253 0.299763 0.263050
O31   O     O_R   0.947401 0.650073 0.314831 -0.265031
O32   O     O_R   0.884850 0.907441 0.301497 -0.354912
H15   H     H_    0.151050 0.946389 0.706464 0.176033
H16   H     H_    0.847378 0.452211 0.293001 0.176011
H17   H     H_    0.215750 0.416688 0.784502 0.130143
H18   H     H_    0.786919 0.915750 0.216861 0.131117
N7    N     N_R   0.205429 0.015048 0.607985 0.263949
O33   O     O_R   0.193061 0.090675 0.549131 -0.245306
O34   O     O_R   0.202541 0.831791 0.612159 -0.348815
N8    N     N_R   0.793477 0.524761 0.391692 0.268234
O35   O     O_R   0.806311 0.604409 0.450859 -0.250157
O36   O     O_R   0.794801 0.341319 0.386808 -0.350725
N9    N     N_R   0.689629 0.760674 0.801206 0.238514
O37   O     O_R   0.710110 0.592224 0.818463 -0.357599
O38   O     O_R   0.627815 0.798427 0.798367 -0.326462
N10   N     N_R   0.306279 0.943087 0.178364 0.239700
O39   O     O_R   0.283219 0.101044 0.152254 -0.342556
O40   O     O_R   0.368637 0.909199 0.183089 -0.325516
N11   N     N_R   0.708800 0.439883 0.588916 0.245347
O41   O     O_R   0.728283 0.615092 0.601195 -0.359342
O42   O     O_R   0.695168 0.378407 0.527178 -0.353683
N12   N     N_R   0.292755 0.385134 0.430073 0.241594
O43   O     O_R   0.274099 0.208282 0.429481 -0.345968
O44   O     O_R   0.307031 0.477069 0.486992 -0.364030
H19   H     H_    0.637696 0.914332 0.688846 0.182405
H20   H     H_    0.360081 0.845642 0.298390 0.182726
H21   H     H_    0.353303 0.299116 0.789269 0.276030
H22   H     H_    0.648267 0.792305 0.211320 0.276950
N13   N     N_R   0.277848 0.338186 0.872626 0.260016
O45   O     O_R   0.325836 0.238836 0.905003 -0.278292
O46   O     O_R   0.257613 0.482069 0.902863 -0.366968
N14   N     N_R   0.724237 0.829661 0.128300 0.258159
O47   O     O_R   0.675328 0.726712 0.095458 -0.281987
O48   O     O_R   0.745885 0.972375 0.098664 -0.373806

loop_
_geom_bond_atom_site_label_1
_geom_bond_atom_site_label_2
_geom_bond_distance
_ccdc_geom_bond_type
N1    O21   1.301115 A    
C45   C47   1.215140 T    
C6    C49   1.492553 S    
C26   N14   1.469838 S    
C35   C37   1.559521 S    
C23   N9    1.436863 S    
N3    O25   1.300642 A    
O1    C3    1.308016 A    
C50   O17   1.319392 A    
O17   V3    1.978169 S    
O2    C4    1.319195 A    
N12   O43   1.301522 A    
C2    O7    1.302398 A    
O12   V3    1.964372 S    
N2    O23   1.301102 A    
C42   N6    1.470836 S    
N13   O45   1.300634 A    
O5    C3    1.323245 A    
C30   H14   1.109039 S    
O14   C50   1.314657 A    
O20   V4    2.166787 S    
C39   C41   1.571475 S    
C15   C17   1.420985 A    
N6    O31   1.301171 A    
C40   C42   1.571715 S    
C36   H22   1.107970 S    
N8    O35   1.301181 A    
C26   H18   1.109065 S    
O18   V4    1.998638 S    
C34   C42   1.572754 S    
C41   H15   1.114503 S    
C20   N2    1.434902 S    
C8    C12   1.417571 A    
C38   C40   1.573060 S    
C9    H3    1.081691 S    
C5    C50   1.495570 S    
C49   O18   1.310977 A    
C22   C24   1.401402 A    
C11   N11   1.438393 S    
O16   V4    1.976586 S    
O5    V1    1.975638 S    
C30   N4    1.469738 S    
C35   H9    1.113665 S    
O6    V2    2.012359 S    
C40   N8    1.471013 S    
O13   C49   1.324041 A    
C5    C21   1.403888 A    
C39   H7    1.114525 S    
C28   C30   1.563245 S    
N9    O38   1.301225 A    
C36   C38   1.559512 S    
C3    C8    1.490739 S    
C31   C43   1.215034 T    
C16   C24   1.414668 A    
C35   H21   1.107986 S    
O20   V3    1.747970 S    
O4    C2    1.304476 A    
C34   C46   1.493755 S    
C7    C11   1.417224 A    
C39   N7    1.470904 S    
C15   C23   1.416487 A    
C9    C17   1.407166 A    
C21   H1    1.083918 S    
C46   C48   1.215626 T    
O4    V2    1.976442 S    
C24   N10   1.436417 S    
O11   V4    1.962847 S    
C27   C29   1.563036 S    
O16   C52   1.313345 A    
N2    O24   1.301092 A    
C36   H10   1.113698 S    
O15   C51   1.315825 A    
O6    C4    1.311663 A    
C10   H4    1.081825 S    
C33   C45   1.492922 S    
N5    O30   1.301254 A    
O1    V2    1.999055 S    
O14   V4    2.012245 S    
O2    V1    1.978445 S    
C6    C22   1.404749 A    
C25   C35   1.563078 S    
C29   H13   1.109075 S    
C40   H8    1.114501 S    
O19   V3    2.196412 S    
N4    O28   1.301292 A    
C9    C11   1.402872 A    
N11   O41   1.301548 A    
C32   C44   1.215481 T    
C10   C12   1.401925 A    
C1    C32   1.451054 S    
C19   N1    1.435084 S    
C6    C20   1.412518 A    
N10   O40   1.301199 A    
C13   H19   1.080918 S    
C25   N13   1.469799 S    
C14   H20   1.080960 S    
N6    O32   1.301241 A    
N11   O42   1.301468 A    
N7    O33   1.301149 A    
O13   V3    1.975554 S    
N13   O46   1.301311 A    
C10   C18   1.406044 A    
C22   H2    1.084047 S    
O3    C1    1.307186 A    
N12   O44   1.301567 A    
N9    O37   1.301287 A    
N3    O26   1.301281 A    
N14   O48   1.301303 A    
C13   C15   1.419369 A    
C14   C16   1.418076 A    
C27   H11   1.107996 S    
C41   N5    1.470959 S    
C37   C39   1.572988 S    
O7    V1    1.969129 S    
C1    O8    1.304175 A    
C17   C19   1.424860 A    
O8    V2    1.967504 S    
C26   C36   1.563251 S    
C48   C51   1.451302 S    
C18   C20   1.424106 A    
C28   C34   1.559660 S    
C47   C52   1.450465 S    
C8    C14   1.403980 A    
C27   C33   1.559765 S    
C42   H16   1.114511 S    
C5    C19   1.414395 A    
C37   C43   1.492787 S    
C4    C7    1.494615 S    
C16   C18   1.421853 A    
C21   C23   1.403550 A    
N8    O36   1.301224 A    
C38   C44   1.493534 S    
C2    C31   1.450273 S    
C7    C13   1.406342 A    
C28   H12   1.107988 S    
N14   O47   1.300647 A    
O15   V3    1.981535 S    
O19   V4    1.726940 S    
C33   C41   1.572594 S    
C29   C37   1.570825 S    
N4    O27   1.300645 A    
C25   H17   1.109020 S    
O9    V2    1.727334 S    
C30   C38   1.571042 S    
N5    O29   1.301160 A    
C12   N12   1.439129 S    
N1    O22   1.300751 A    
O10   V1    1.748394 S    
O3    V1    1.981398 S    
O11   C51   1.312700 A    
N10   O39   1.301404 A    
C27   H5    1.113703 S    
C25   C33   1.571098 S    
O12   C52   1.310670 A    
C28   H6    1.113691 S    
C26   C34   1.571280 S    
N7    O34   1.301233 A    
C29   N3    1.469844 S    
