data_mof_unit_35278.cif
_audit_creation_date              2012-12-11T16:21:52-0500
_audit_creation_method            fapswitch 2.2
_symmetry_space_group_name_H-M    P1
_symmetry_Int_Tables_number       1
_space_group_crystal_system       triclinic
_cell_length_a                    13.496931
_cell_length_b                    14.030329
_cell_length_c                    30.069188
_cell_angle_alpha                 97.956595
_cell_angle_beta                  90.153433
_cell_angle_gamma                 118.754024
_cell_volume                      4928.15760051

loop_
_atom_site_label
_atom_site_type_symbol
_atom_type_description
_atom_site_fract_x
_atom_site_fract_y
_atom_site_fract_z
_atom_type_partial_charge
C1    C     C_R   0.723137 0.100154 0.568590 0.541100
C2    C     C_R   0.340924 0.669715 0.675777 0.003888
C3    C     C_R   0.244175 0.635176 0.647154 -0.076451
C4    C     C_R   0.254185 0.662826 0.603559 0.021722
C5    C     C_R   0.271659 0.681741 0.836469 -0.128383
C6    C     C_R   0.262074 0.665281 0.881619 0.010496
C7    C     C_R   0.360143 0.557641 0.867715 -0.146299
C8    C     C_R   0.370774 0.576619 0.823476 -0.114095
C9    C     C_R   0.323221 0.635157 0.807478 0.038374
C10   C     C_1   0.326663 0.645676 0.760918 -0.034050
C11   C     C_1   0.331363 0.654396 0.721806 -0.056658
C12   C     C_R   0.383019 0.787085 0.550505 0.517212
C13   C     C_R   0.301601 0.597064 0.896809 0.039812
C14   C     C_3   0.238426 0.174986 0.725328 0.279381
C15   C     C_3   0.211766 0.081871 0.752676 0.330964
C16   C     C_1   0.295301 0.197669 0.876571 0.008254
C17   C     C_1   0.363236 0.134779 0.613665 -0.001437
C18   C     C_3   0.333681 0.258440 0.761372 -0.164396
C19   C     C_3   0.307648 0.163916 0.788310 -0.010719
C20   C     C_3   0.419580 0.231224 0.735865 -0.172281
C21   C     C_3   0.322786 0.147808 0.700133 0.023798
C22   C     C_3   0.394280 0.137798 0.763853 -0.132064
C23   C     C_R   0.397285 0.118547 0.569599 0.543502
C24   C     C_3   0.297353 0.055604 0.728124 0.253703
C25   C     C_1   0.301232 0.177754 0.836893 -0.015601
C26   C     C_1   0.340740 0.141906 0.652197 -0.013742
C27   C     C_3   0.917075 0.268794 0.733492 -0.173575
C28   C     C_3   0.825577 0.262585 0.766235 -0.100975
C29   C     C_1   0.895426 0.204203 0.878391 0.030849
C30   C     C_1   0.777223 0.136000 0.613149 -0.023319
C31   C     C_3   0.937338 0.189238 0.758677 -0.069542
C32   C     C_3   0.845661 0.182890 0.790657 -0.019089
C33   C     C_3   0.844265 0.089794 0.726684 0.282852
C34   C     C_R   0.719894 0.095094 0.442564 0.562350
C35   C     C_3   0.825497 0.168806 0.701397 0.022232
C36   C     C_3   0.753856 0.082709 0.759249 0.044611
C37   C     C_3   0.734625 0.161645 0.733989 0.253131
C38   C     C_1   0.867014 0.193390 0.839265 0.015009
C39   C     C_1   0.807381 0.156598 0.652562 -0.041501
C40   C     C_3   0.273366 0.578688 0.258734 -0.115890
C41   C     C_3   0.241548 0.642929 0.228764 -0.137039
C42   C     C_1   0.309845 0.608039 0.111204 0.024277
C43   C     C_1   0.366950 0.736762 0.378087 -0.031959
C44   C     C_3   0.373141 0.593594 0.229621 -0.131029
C45   C     C_R   0.382303 0.784505 0.424372 0.535299
C46   C     C_3   0.341480 0.658334 0.200380 0.073218
C47   C     C_3   0.453821 0.703234 0.260774 -0.105321
C48   C     C_3   0.353252 0.688012 0.288967 0.004941
C49   C     C_3   0.419873 0.765831 0.231167 0.320946
C50   C     C_3   0.321003 0.752812 0.259758 -0.094734
C51   C     C_1   0.329047 0.636539 0.151251 0.002968
C52   C     C_1   0.359199 0.709303 0.338029 -0.073369
C53   C     C_R   0.359124 0.130583 0.399430 0.026725
C54   C     C_R   0.442133 0.197490 0.372473 0.218012
C55   C     C_R   0.411443 0.194841 0.328073 -0.155082
C56   C     C_R   0.396668 0.113896 0.442541 0.593823
C57   C     C_R   0.298893 0.134740 0.310779 -0.041876
C58   C     C_R   0.212018 0.077632 0.338406 0.019008
C59   C     C_R   0.243590 0.070221 0.382283 0.178774
C60   C     C_R   0.245600 0.078801 0.143228 -0.108145
C61   C     C_R   0.251756 0.103727 0.099245 0.229592
C62   C     C_R   0.362047 0.300033 0.130238 0.219187
C63   C     C_R   0.349724 0.273126 0.173547 -0.121324
C64   C     C_R   0.290290 0.163730 0.179919 -0.054975
C65   C     C_1   0.279037 0.141644 0.224920 0.014186
C66   C     C_1   0.280362 0.133626 0.263947 0.061571
C67   C     C_R   0.364036 0.729635 0.589853 -0.011538
C68   C     C_R   0.308786 0.215130 0.092825 0.050708
C69   C     C_R   0.780628 0.133886 0.402376 0.032968
C70   C     C_R   0.805039 0.064491 0.370972 0.264190
C71   C     C_R   0.839622 0.095104 0.328826 -0.106223
C72   C     C_R   0.845572 0.190710 0.317364 -0.013488
C73   C     C_R   0.828268 0.262433 0.349089 -0.122922
C74   C     C_R   0.797641 0.235024 0.391562 -0.143534
C75   C     C_R   0.862566 0.294957 0.164549 -0.140589
C76   C     C_R   0.875257 0.296399 0.118251 0.009211
C77   C     C_R   0.889256 0.128364 0.113206 -0.137926
C78   C     C_R   0.460025 0.756263 0.618162 -0.146609
C79   C     C_R   0.873610 0.126692 0.158685 -0.108575
C80   C     C_R   0.865410 0.212278 0.184683 0.028493
C81   C     C_1   0.861104 0.213694 0.232165 -0.023063
C82   C     C_1   0.856638 0.207549 0.271525 -0.027745
C83   C     C_R   0.897848 0.216417 0.092836 0.042203
C84   C     C_R   0.283877 0.232460 0.922118 0.548542
C85   C     C_R   0.267055 0.548344 0.938357 0.577022
C86   C     C_R   0.945203 0.222093 0.922880 0.552630
C87   C     C_R   0.292106 0.244271 0.049404 0.604956
C88   C     C_R   0.275366 0.558722 0.065130 0.561786
C89   C     C_R   0.448328 0.726326 0.660717 -0.129567
C90   C     C_R   0.952610 0.232514 0.049767 0.569460
Cr1   Cr    Cr6+3 0.583430 0.162610 0.509470 1.049914
Cr2   Cr    Cr6+3 0.584210 0.916680 0.495400 1.033764
Cr3   Cr    Cr6+3 0.332380 0.920740 0.495100 1.038534
Cr4   Cr    Cr6+3 0.086810 0.177030 0.983130 1.053894
Cr5   Cr    Cr6+3 0.337180 0.419300 0.994610 1.056657
Cr6   Cr    Cr6+3 0.084840 0.422330 0.995830 1.101055
H1    H     H_    0.458210 0.123478 0.780626 0.164866
H2    H     H_    0.505257 0.292987 0.728264 0.159675
H3    H     H_    0.349658 0.342009 0.776136 0.105119
H4    H     H_    0.815644 0.333045 0.782675 0.135211
H5    H     H_    0.985026 0.345218 0.723259 0.121913
H6    H     H_    0.238729 0.730589 0.823796 0.088549
H7    H     H_    0.021063 0.199413 0.769451 0.182348
H8    H     H_    0.154552 0.617755 0.214994 0.111019
H9    H     H_    0.212906 0.501398 0.270793 0.127387
H10   H     H_    0.299867 0.818397 0.272677 0.105453
H11   H     H_    0.540619 0.727470 0.274345 0.083894
H12   H     H_    0.394103 0.528073 0.216483 0.131219
H13   H     H_    0.204533 0.994073 0.148912 0.134017
H14   H     H_    0.161284 0.588263 0.659191 0.151074
H15   H     H_    0.383805 0.338292 0.202437 0.114806
H16   H     H_    0.477370 0.238752 0.306505 0.127297
H17   H     H_    0.850606 0.358183 0.184934 0.090456
H18   H     H_    0.833359 0.336990 0.340376 0.123008
H19   H     H_    0.780492 0.290225 0.414990 0.158797
H20   H     H_    0.873047 0.060902 0.174015 0.131920
H21   H     H_    0.902569 0.063980 0.094837 0.130038
H22   H     H_    0.856448 0.041580 0.304225 0.147633
H23   H     H_    0.544962 0.806510 0.608628 0.130394
H24   H     H_    0.412497 0.542051 0.801243 0.110509
H25   H     H_    0.391695 0.505651 0.878168 0.141041
H26   H     H_    0.523253 0.751582 0.682718 0.106437
O1    O     O_R   0.493980 0.188910 0.559650 -0.512683
O2    O     O_R   0.480180 0.824400 0.444640 -0.497236
O3    O     O_R   0.308310 0.808540 0.439800 -0.530051
O4    O     O_R   0.340740 0.020600 0.455570 -0.478774
O5    O     O_3   0.500010 0.000010 0.499990 -0.259877
O6    O     O_R   0.969650 0.150960 0.933380 -0.492266
O7    O     O_R   0.187740 0.180870 0.937580 -0.486275
O8    O     O_R   0.358510 0.327410 0.940870 -0.515944
O9    O     O_R   0.324180 0.507870 0.953930 -0.516587
O10   O     O_R   0.170560 0.527890 0.952050 -0.467914
O11   O     O_R   0.987620 0.318470 0.945550 -0.494387
O12   O     O_R   0.678640 0.153520 0.554450 -0.489264
O13   O     O_R   0.976400 0.159270 0.031530 -0.535301
O14   O     O_R   0.194000 0.188570 0.028560 -0.483087
O15   O     O_R   0.365260 0.335720 0.039020 -0.470758
O16   O     O_R   0.330440 0.515580 0.044910 -0.475672
O17   O     O_R   0.177310 0.536200 0.050190 -0.497528
O18   O     O_R   0.993870 0.326170 0.036530 -0.451320
O19   O     O_3   0.169610 0.339550 0.991190 -0.279767
O20   O     O_R   0.698130 0.004030 0.549500 -0.517320
O21   O     O_R   0.481060 0.827210 0.535360 -0.502781
O22   O     O_R   0.309260 0.811560 0.537660 -0.514464
O23   O     O_R   0.341620 0.023400 0.546290 -0.480336
O24   O     O_R   0.493030 0.185890 0.461780 -0.474288
O25   O     O_R   0.677760 0.150720 0.463730 -0.502895
O26   O     O_R   0.697180 0.001010 0.451640 -0.456931
C91   C     C_2   0.212398 0.722081 0.911244 0.248325
H27   H     H_    0.160938 0.751628 0.896444 0.098480
O27   O     O_2   0.232528 0.741423 0.952081 -0.463155
O28   O     O_3   0.152006 0.186640 0.704393 -0.552990
C92   C     C_3   0.197752 0.292669 0.692632 -0.120171
H28   H     H_    0.131967 0.295820 0.671656 0.151568
H29   H     H_    0.272226 0.312343 0.672414 0.121478
H30   H     H_    0.220681 0.355867 0.723202 0.109479
O29   O     O_3   0.275200 0.949431 0.708190 -0.586077
C93   C     C_3   0.284783 0.892662 0.741684 -0.133205
H31   H     H_    0.239971 0.900154 0.771916 0.131925
H32   H     H_    0.375428 0.921713 0.751505 0.134385
H33   H     H_    0.244681 0.803975 0.727537 0.152580
O30   O     O_3   0.627985 0.153503 0.724500 -0.584383
C94   C     C_3   0.569080 0.073392 0.686406 -0.119639
H34   H     H_    0.585352 0.002404 0.682774 0.079412
H35   H     H_    0.588127 0.112350 0.655616 0.145456
H36   H     H_    0.477403 0.039723 0.689334 0.192564
C95   C     C_2   0.661119 0.979537 0.772763 0.259236
H37   H     H_    0.598381 0.915789 0.747499 0.082056
O31   O     O_2   0.655088 0.966817 0.812174 -0.485122
O32   O     O_3   0.864169 0.002331 0.709360 -0.553829
C96   C     C_3   0.782903 0.931294 0.673909 -0.126283
H38   H     H_    0.810112 0.961935 0.641586 0.153002
H39   H     H_    0.696731 0.919145 0.679489 0.070135
H40   H     H_    0.777786 0.849348 0.670975 0.131619
O33   O     O_3   0.494415 0.861527 0.213673 -0.555701
C97   C     C_3   0.559081 0.946728 0.249481 -0.109496
H41   H     H_    0.615437 0.926510 0.268467 0.101532
H42   H     H_    0.504343 0.965647 0.272544 0.115192
H43   H     H_    0.614051 0.022402 0.235268 0.158262
O34   O     O_3   0.207574 0.021205 0.061935 -0.538714
C98   C     C_3   0.090735 0.950929 0.064732 -0.076543
H44   H     H_    0.052703 0.903744 0.030721 0.155399
H45   H     H_    0.045140 0.997498 0.075641 0.108248
H46   H     H_    0.077214 0.890318 0.087402 0.114973
C99   C     C_2   0.089559 0.027443 0.323174 0.228921
H47   H     H_    0.025792 0.997879 0.347190 0.168713
O35   O     O_2   0.057820 0.019336 0.284107 -0.534880
O36   O     O_3   0.162033 0.006551 0.409154 -0.563991
C100  C     C_3   0.128761 0.894253 0.394624 -0.082772
H48   H     H_    0.201770 0.880245 0.386589 0.136250
H49   H     H_    0.066013 0.859446 0.364925 0.095026
H50   H     H_    0.087202 0.847538 0.422189 0.150965
O37   O     O_3   0.556127 0.252327 0.387062 -0.549750
C101  C     C_3   0.594533 0.366597 0.394730 -0.109322
H51   H     H_    0.543074 0.387842 0.418895 0.126991
H52   H     H_    0.594764 0.397823 0.362676 0.099630
H53   H     H_    0.683174 0.409590 0.409911 0.129235
O38   O     O_3   0.409620 0.409558 0.124983 -0.554119
C102  C     C_3   0.527860 0.461110 0.135072 -0.103426
H54   H     H_    0.566267 0.417127 0.114337 0.138488
H55   H     H_    0.549383 0.468309 0.171536 0.091642
H56   H     H_    0.566248 0.545832 0.126907 0.149540
C103  C     C_2   0.862667 0.381381 0.098484 0.237459
H57   H     H_    0.880002 0.457837 0.119631 0.083557
O39   O     O_2   0.826362 0.364565 0.059334 -0.482205
O40   O     O_3   0.796434 0.968125 0.381814 -0.542305
C104  C     C_3   0.705910 0.876762 0.354861 -0.106882
H58   H     H_    0.729664 0.865406 0.319964 0.096375
H59   H     H_    0.626975 0.883614 0.354585 0.115526
H60   H     H_    0.686922 0.801583 0.369189 0.145845
C105  C     C_2   0.150166 0.619880 0.572977 0.238922
H61   H     H_    0.155731 0.622484 0.537169 0.125250
O41   O     O_2   0.056309 0.578875 0.587307 -0.514764
O42   O     O_3   0.103968 0.008431 0.765345 -0.558761
C106  C     C_3   0.039324 0.928227 0.728085 -0.041459
H62   H     H_    0.066693 0.865033 0.721595 0.138945
H63   H     H_    0.042232 0.964558 0.697147 0.189461
H64   H     H_    0.949746 0.884920 0.736335 0.172469

loop_
_geom_bond_atom_site_label_1
_geom_bond_atom_site_label_2
_ccdc_geom_bond_type
C7    C13   A    
C101  H52   S    
C103  H57   S    
O29   C93   S    
C55   H16   S    
Cr2   O26   S    
C73   C74   A    
C14   C18   S    
C94   H34   S    
C57   C66   S    
C21   C26   S    
Cr6   O17   S    
Cr1   O25   S    
C81   C82   T    
C53   C59   A    
C76   C103  S    
C7    C8    A    
C95   O31   D    
C53   C54   A    
C15   C19   S    
C96   H39   S    
C46   C49   S    
C17   C23   S    
C4    C105  S    
Cr1   O5    S    
C17   C26   T    
C32   C36   S    
C14   C21   S    
C36   C37   S    
C94   H35   S    
C7    H25   S    
C77   H21   S    
Cr2   O2    S    
C85   O10   A    
C5    C6    A    
C43   C52   T    
C99   O35   D    
C101  H53   S    
C89   H26   S    
C33   O32   S    
C3    H14   S    
C84   O7    A    
C16   C84   S    
C33   C36   S    
C18   C19   S    
C100  H49   S    
Cr2   O21   S    
Cr3   O4    S    
C2    C89   A    
C60   H13   S    
C93   H33   S    
Cr6   O19   S    
C5    H6    S    
C6    C91   S    
C34   O26   A    
C97   H43   S    
C99   H47   S    
C105  H61   S    
C45   O3    A    
C8    C9    A    
C29   C38   T    
C102  H56   S    
Cr4   O14   S    
C41   C46   S    
C31   C33   S    
Cr3   O23   S    
O38   C102  S    
C1    O20   A    
C32   C38   S    
C96   H38   S    
C92   H29   S    
Cr2   O20   S    
C9    C10   S    
C44   C47   S    
C42   C51   T    
Cr6   O10   S    
C28   H4    S    
C48   C50   S    
C101  H51   S    
C102  H54   S    
C78   C89   A    
C54   O37   S    
Cr1   O1    S    
C79   H20   S    
C58   C99   S    
C93   H32   S    
C100  H48   S    
C67   C78   A    
C87   O15   A    
C15   O42   S    
C2    C11   S    
C76   C83   A    
C12   C67   S    
C102  H55   S    
C44   C46   S    
C44   H12   S    
C45   O2    A    
C97   H42   S    
C96   H40   S    
Cr5   O15   S    
Cr4   O7    S    
C27   C31   S    
C104  H58   S    
C28   C32   S    
C94   H36   S    
C79   C80   A    
C62   O38   S    
C47   C49   S    
C98   H45   S    
C95   H37   S    
O40   C104  S    
C80   C81   S    
C23   O1    A    
C27   C35   S    
C58   C59   A    
C98   H44   S    
C86   O6    A    
C46   C51   S    
Cr5   O9    S    
C36   C95   S    
C56   O24   A    
C73   H18   S    
C12   O22   A    
O36   C100  S    
C31   H7    S    
C100  H50   S    
C35   C39   S    
C75   C76   A    
Cr3   O5    S    
C88   O17   A    
C5    C9    A    
C62   C63   A    
Cr5   O8    S    
C104  H60   S    
C23   O23   A    
C34   O25   A    
C86   O11   A    
C47   C48   S    
C40   C44   S    
C19   C22   S    
Cr4   O13   S    
C77   C79   A    
C59   O36   S    
C15   C24   S    
C20   C21   S    
C92   H30   S    
C43   C45   S    
C34   C69   S    
C88   O16   A    
C29   C86   S    
C70   C71   A    
Cr3   O22   S    
C75   H17   S    
C40   C41   S    
C105  O41   D    
C20   C22   S    
O37   C101  S    
C56   O4    A    
C55   C57   A    
C93   H31   S    
C22   C24   S    
C106  H64   S    
C42   C88   S    
C18   H3    S    
C13   C85   S    
C3    C4    A    
Cr2   O5    S    
C41   C50   S    
C49   O33   S    
O34   C98   S    
C8    H24   S    
C50   H10   S    
O30   C94   S    
C75   C80   A    
C53   C56   S    
C16   C25   T    
C40   C48   S    
C83   C90   S    
C54   C55   A    
C97   H41   S    
Cr5   O16   S    
C98   H46   S    
C71   H22   S    
C35   C37   S    
C24   O29   S    
Cr4   O19   S    
C87   O14   A    
C31   C32   S    
C104  H59   S    
C72   C73   A    
Cr6   O18   S    
C4    C67   A    
C90   O18   A    
C12   O21   A    
Cr5   O19   S    
Cr6   O11   S    
Cr4   O6    S    
C70   O40   S    
C47   H11   S    
C41   H8    S    
C62   C68   A    
C60   C64   A    
C64   C65   S    
C91   O27   D    
C2    C3    A    
C92   H28   S    
C71   C72   A    
O33   C97   S    
C91   H27   S    
C85   O9    A    
C6    C13   A    
C90   O13   A    
C61   C68   A    
C57   C58   A    
Cr1   O12   S    
C28   C37   S    
C74   H19   S    
O42   C106  S    
C84   O8    A    
C1    C30   S    
C33   C35   S    
C27   H5    S    
C30   C39   T    
C78   H23   S    
C18   C20   S    
C65   C66   T    
C106  H62   S    
C63   H15   S    
C69   C70   A    
C19   C25   S    
Cr3   O3    S    
C106  H63   S    
C10   C11   T    
C63   C64   A    
C48   C52   S    
C20   H2    S    
O28   C92   S    
C37   O30   S    
C61   O34   S    
C49   C50   S    
O32   C96   S    
C21   C24   S    
C14   O28   S    
C27   C28   S    
C22   H1    S    
C68   C87   S    
C77   C83   A    
C14   C15   S    
C60   C61   A    
C69   C74   A    
Cr1   O24   S    
C72   C82   S    
C103  O39   D    
C1    O12   A    
C40   H9    S    
