data_mof_unit_13180.cif
_audit_creation_date              2012-12-11T15:31:32-0500
_audit_creation_method            fapswitch 2.2
_symmetry_space_group_name_H-M    P1
_symmetry_Int_Tables_number       1
_space_group_crystal_system       triclinic
_cell_length_a                    6.94373
_cell_length_b                    14.788393
_cell_length_c                    21.330503
_cell_angle_alpha                 74.719161
_cell_angle_beta                  90.069443
_cell_angle_gamma                 90.828895
_cell_volume                      2112.68948169

loop_
_atom_site_label
_atom_site_type_symbol
_atom_type_description
_atom_site_fract_x
_atom_site_fract_y
_atom_site_fract_z
_atom_type_partial_charge
O1    O     O_R   0.648150 0.130050 0.214300 -0.527053
O2    O     O_R   0.351850 0.869950 0.785700 -0.530566
O3    O     O_R   0.320490 0.006660 0.340150 -0.547149
O4    O     O_R   0.679510 0.993340 0.659850 -0.547429
O5    O     O_R   0.146100 0.869940 0.285700 -0.540540
O6    O     O_R   0.853900 0.130060 0.714300 -0.538875
C1    C     C_R   0.488725 0.001589 0.367163 0.667659
C2    C     C_R   0.511275 0.998412 0.632837 0.665629
O7    O     O_R   0.318690 0.137980 0.218120 -0.539098
O8    O     O_R   0.681310 0.862020 0.781880 -0.543454
O9    O     O_R   0.144280 0.002190 0.162800 -0.542248
O10   O     O_R   0.855720 0.997810 0.837200 -0.541183
C3    C     C_R   0.488915 0.175499 0.205526 0.712587
C4    C     C_R   0.511122 0.824272 0.793608 0.719592
O11   O     O_R   0.649960 0.997790 0.337200 -0.542266
O12   O     O_R   0.350040 0.002210 0.662800 -0.543032
O13   O     O_3   0.479300 0.955290 0.231990 -0.373489
O14   O     O_3   0.520700 0.044710 0.768010 -0.368156
V1    V     V_3+5 0.206040 0.008290 0.253340 1.436026
V2    V     V_3+5 0.793960 0.991710 0.746660 1.432894
O15   O     O_R   0.814320 0.993320 0.159850 -0.537862
O16   O     O_R   0.185680 0.006680 0.840150 -0.531387
C5    C     C_R   0.982960 0.999051 0.132855 0.756225
C6    C     C_R   0.016786 0.002104 0.866997 0.719517
O17   O     O_R   0.816120 0.862000 0.281880 -0.544592
O18   O     O_R   0.183880 0.138000 0.718120 -0.544321
C7    C     C_R   0.983744 0.824422 0.293941 0.687936
C8    C     C_R   0.016226 0.175568 0.706028 0.693526
V3    V     V_3+5 0.705540 0.991700 0.246660 1.443518
V4    V     V_3+5 0.294460 0.008300 0.753340 1.451090
O19   O     O_3   0.982150 0.044700 0.268010 -0.369772
O20   O     O_3   0.017850 0.955300 0.731990 -0.375022
C9    C     C_R   0.988206 0.723132 0.321701 -0.031099
C10   C     C_R   0.011390 0.276831 0.678227 -0.034124
C11   C     C_R   0.967106 0.566179 0.308826 -0.160981
C12   C     C_R   0.027318 0.433822 0.691175 -0.159661
C13   C     C_R   0.970501 0.662662 0.281645 -0.175087
C14   C     C_R   0.025532 0.337342 0.718351 -0.169638
C15   C     C_R   0.001448 0.687378 0.389070 -0.215499
C16   C     C_R   0.999463 0.312538 0.610820 -0.216055
C17   C     C_R   0.994835 0.589560 0.418243 0.084251
C18   C     C_R   0.003339 0.410381 0.581692 0.084785
C19   C     C_R   0.978135 0.529249 0.376488 0.142200
C20   C     C_R   0.017698 0.470724 0.623486 0.141369
C21   C     C_R   0.002591 0.549838 0.487098 0.060138
C22   C     C_R   0.994979 0.450111 0.512848 0.060379
C23   C     C_R   0.979156 0.393522 0.468928 -0.192847
C24   C     C_R   0.016648 0.606449 0.531049 -0.192738
C25   C     C_R   0.970985 0.432506 0.402335 -0.205558
C26   C     C_R   0.023609 0.567481 0.597661 -0.204695
H1    H     H_    0.958071 0.386165 0.370660 0.119946
H2    H     H_    0.034622 0.613848 0.629371 0.119546
H3    H     H_    0.990400 0.261654 0.582908 0.090719
H4    H     H_    0.013896 0.738226 0.416922 0.091025
H5    H     H_    0.035525 0.309835 0.770604 0.119935
H6    H     H_    0.958982 0.690212 0.229435 0.111723
H7    H     H_    0.954195 0.520239 0.276918 0.114105
H8    H     H_    0.037481 0.479795 0.723116 0.114490
H9    H     H_    0.971666 0.318189 0.484183 0.118485
H10   H     H_    0.022409 0.681807 0.515830 0.118260
C27   C     C_3   0.825796 0.025471 0.972132 -0.171688
C28   C     C_3   0.172607 0.978219 0.027296 -0.183048
C29   C     C_3   0.864580 0.939085 0.030357 -0.190564
C30   C     C_3   0.133661 0.064708 0.969113 -0.177648
H11   H     H_    0.754396 0.887105 0.055681 0.138657
H12   H     H_    0.243552 0.116872 0.943820 0.121797
H13   H     H_    0.683234 0.045480 0.949456 0.134544
H14   H     H_    0.315194 0.958071 0.049909 0.129058
C31   C     C_3   0.991880 0.001024 0.062197 -0.093590
C32   C     C_3   0.006769 0.002494 0.937321 -0.072030
C33   C     C_3   0.953416 0.086473 0.004718 0.041855
C34   C     C_3   0.044734 0.917328 0.994858 0.045847
C35   C     C_3   0.599314 0.075023 0.465058 -0.145115
C36   C     C_3   0.400687 0.924976 0.534943 -0.145260
C37   C     C_3   0.420694 0.078575 0.507861 -0.139827
C38   C     C_3   0.579306 0.921423 0.492140 -0.139842
H15   H     H_    0.354848 0.143243 0.514785 0.102248
H16   H     H_    0.645153 0.856755 0.485217 0.102293
H17   H     H_    0.681416 0.136789 0.435900 0.098570
H18   H     H_    0.318586 0.863211 0.564104 0.098284
C39   C     C_3   0.504494 0.998949 0.562225 -0.001259
C40   C     C_3   0.495506 0.001050 0.437776 -0.001845
C41   C     C_3   0.683448 0.995400 0.520217 -0.117103
C42   C     C_3   0.316552 0.004598 0.479784 -0.117200
H19   H     H_    0.835163 0.991542 0.537113 0.106438
H20   H     H_    0.164837 0.008456 0.462888 0.106532
C43   C     C_R   0.504899 0.276668 0.177315 -0.031647
C44   C     C_R   0.495886 0.722613 0.820369 -0.037790
C45   C     C_R   0.610535 0.428876 0.186144 -0.154394
C46   C     C_R   0.378443 0.571998 0.811725 -0.149475
C47   C     C_R   0.575251 0.334178 0.214760 -0.175063
C48   C     C_R   0.411138 0.667182 0.783836 -0.175396
C49   C     C_R   0.470073 0.313805 0.110941 -0.200012
C50   C     C_R   0.547958 0.682707 0.884982 -0.213689
C51   C     C_R   0.508906 0.409580 0.080123 0.071363
C52   C     C_R   0.502520 0.587704 0.916086 0.074001
C53   C     C_R   0.580256 0.466705 0.119336 0.127835
C54   C     C_R   0.420476 0.532196 0.877543 0.136928
C55   C     C_R   0.482189 0.450101 0.011928 0.056462
C56   C     C_R   0.530228 0.546937 0.984171 0.042530
C57   C     C_R   0.598761 0.600496 0.025728 -0.152996
C58   C     C_R   0.407288 0.397397 0.970704 -0.140739
C59   C     C_R   0.622923 0.561035 0.091746 -0.168990
C60   C     C_R   0.376622 0.437922 0.905091 -0.168260
H21   H     H_    0.676348 0.605042 0.121568 0.133894
H22   H     H_    0.315167 0.395092 0.875722 0.129684
H23   H     H_    0.615485 0.729090 0.910060 0.126607
H24   H     H_    0.420181 0.265000 0.084687 0.110086
H25   H     H_    0.369607 0.697783 0.733833 0.100564
H26   H     H_    0.605174 0.305395 0.265965 0.100455
H27   H     H_    0.665134 0.472370 0.216093 0.112012
H28   H     H_    0.314569 0.529950 0.782322 0.111135
H29   H     H_    0.632844 0.674115 0.009113 0.162150
H30   H     H_    0.366714 0.324519 0.987663 0.129617
C61   C     C_2   0.903045 0.183180 0.008394 0.699319
O21   O     O_2   0.873358 0.244205 0.958351 -0.564174
O22   O     O_R   0.891422 0.203388 0.068655 -0.670742
H31   H     H_    0.858537 0.271265 0.064562 0.299095
C62   C     C_2   0.095970 0.821571 0.990014 0.710533
O23   O     O_2   0.992130 0.754402 0.015131 -0.575759
O24   O     O_R   0.262974 0.809479 0.957084 -0.671027
H32   H     H_    0.281205 0.741491 0.957625 0.293698

loop_
_geom_bond_atom_site_label_1
_geom_bond_atom_site_label_2
_ccdc_geom_bond_type
C27   C32   S    
C29   H11   S    
C43   C47   A    
C57   H29   S    
C5    C31   S    
C46   H28   S    
O4    C2    A    
V1    O19   S    
C60   H22   S    
C6    C32   S    
C15   C17   A    
C21   C22   A    
C7    C9    S    
O9    V1    S    
C48   H25   S    
C9    C15   A    
C36   C38   S    
C10   C16   A    
C47   H26   S    
C11   C13   A    
C42   H20   S    
C12   H8    S    
C49   H24   S    
C51   C55   A    
C37   C42   S    
C15   H4    S    
O12   V4    S    
C61   O21   D    
C52   C56   A    
O13   V3    S    
C31   C33   S    
C18   C22   A    
C30   C33   S    
C27   C29   S    
O7    C3    A    
C28   C30   S    
O5    C7    A    
C13   H6    S    
O7    V1    S    
O6    C8    A    
C14   H5    S    
C29   C31   S    
O8    V2    S    
C61   O22   S    
C52   C54   A    
C26   H2    S    
O3    V1    S    
O14   V4    S    
C30   C32   S    
C45   C47   A    
C11   C19   A    
C24   H10   S    
C27   C33   S    
C2    O12   A    
C24   C26   A    
C8    C10   S    
C49   C51   A    
C36   H18   S    
C17   C19   A    
C3    C43   S    
C18   C20   A    
C38   C41   S    
C39   C41   S    
O11   V3    S    
C62   O24   S    
O17   V3    S    
C44   C50   A    
C50   H23   S    
C33   C61   S    
C2    C39   S    
C44   C48   A    
C23   C25   A    
O8    C4    A    
C38   C40   S    
C37   C39   S    
C1    O11   A    
C1    C40   S    
C25   H1    S    
O15   V3    S    
C9    C13   A    
C28   C31   S    
C45   C53   A    
C30   H12   S    
C58   C60   A    
C58   H30   S    
C27   H13   S    
C46   C48   A    
C55   C56   A    
O10   V2    S    
O1    V3    S    
C35   H17   S    
C28   C34   S    
C59   H21   S    
C50   C52   A    
C37   H15   S    
O24   H32   S    
C53   C59   A    
C41   H19   S    
O18   V4    S    
C40   C42   S    
O15   C5    A    
O16   C6    A    
C12   C20   A    
O1    C3    A    
O2    V4    S    
C35   C37   S    
C36   C39   S    
C35   C40   S    
V2    O20   S    
C21   C24   A    
C20   C26   A    
C36   C42   S    
O10   C6    A    
C22   C23   A    
O16   V4    S    
C10   C14   A    
O18   C8    A    
C19   C25   A    
C38   H16   S    
C16   C18   A    
C62   O23   D    
C51   C53   A    
O5    V1    S    
O17   C7    A    
O6    V2    S    
C45   H27   S    
O3    C1    A    
C28   H14   S    
C11   H7    S    
C12   C14   A    
C4    C44   S    
V3    O19   S    
O22   H31   S    
V4    O20   S    
C54   C60   A    
C43   C49   A    
C34   C62   S    
O9    C5    A    
C56   C57   A    
O13   V1    S    
C46   C54   A    
O14   V2    S    
O2    C4    A    
C23   H9    S    
O4    V2    S    
C55   C58   A    
C29   C34   S    
C57   C59   A    
C16   H3    S    
C17   C21   A    
C32   C34   S    
C35   C41   S    
