data_mof_unit_50122.cif
_audit_creation_date              2012-12-10T17:05:11-0500
_audit_creation_method            fapswitch 2.2
_symmetry_space_group_name_H-M    P1
_symmetry_Int_Tables_number       1
_space_group_crystal_system       triclinic
_cell_length_a                    10.82231
_cell_length_b                    11.130911
_cell_length_c                    9.95008
_cell_angle_alpha                 111.505167
_cell_angle_beta                  98.555129
_cell_angle_gamma                 92.736382
_cell_volume                      1095.92348995

loop_
_atom_site_label
_atom_site_type_symbol
_atom_type_description
_atom_site_fract_x
_atom_site_fract_y
_atom_site_fract_z
_atom_type_partial_charge
C1    C     C_R   0.489984 0.255094 0.440024 0.884031
C2    C     C_3   0.877192 0.498710 0.499409 -0.179366
C3    C     C_3   0.948443 0.640667 0.597104 0.194459
C4    C     C_3   0.901900 0.455872 0.336845 0.132224
C5    C     C_2   0.472942 0.116985 0.404272 -0.270077
C6    C     C_2   0.506785 0.068797 0.507366 -0.115001
C7    C     C_2   0.507372 0.886276 0.591510 -0.242587
C8    C     C_2   0.476505 0.930771 0.480932 -0.073491
C9    C     C_2   0.520282 0.501025 0.079340 0.450598
C10   C     C_2   0.489895 0.490247 0.921368 0.189751
C11   C     C_R   0.259811 0.498870 0.498852 0.808882
C12   C     C_R   0.506182 0.745865 0.559353 0.789787
C13   C     C_R   0.739337 0.497885 0.499183 0.805433
C14   C     C_3   0.078253 0.416902 0.579550 -0.520423
C15   C     C_3   0.933492 0.394259 0.556502 -0.171174
C16   C     C_3   0.088325 0.645000 0.568873 0.684876
C17   C     C_3   0.041384 0.433686 0.333128 -0.280065
C18   C     C_3   0.121070 0.500751 0.494684 -0.184671
Cu1   Cu    Cu3+1 0.522160 0.521810 0.644910 1.047671
Cu2   Cu    Cu3+1 0.477840 0.478190 0.355090 1.028155
H1    H     H_    0.114161 0.466842 0.696886 0.282492
H2    H     H_    0.877777 0.532911 0.294943 0.231430
H3    H     H_    0.558106 0.133760 0.613656 0.221869
H4    H     H_    0.425971 0.056690 0.293915 0.180628
H5    H     H_    0.116782 0.321410 0.543455 0.181188
H6    H     H_    0.362552 0.390945 0.074067 0.215625
H7    H     H_    0.904599 0.297030 0.466991 0.208538
H8    H     H_    0.047531 0.327389 0.302074 0.204950
N1    N     N_2   0.444530 0.445420 0.137360 -0.339845
N2    N     N_2   0.555520 0.554510 0.862630 -0.059323
O1    O     O_R   0.511820 0.332340 0.577400 -0.552700
O2    O     O_R   0.474400 0.295500 0.332650 -0.564291
O3    O     O_R   0.336400 0.518400 0.622370 -0.573804
O4    O     O_R   0.298980 0.481560 0.377620 -0.572052
O5    O     O_R   0.525600 0.704500 0.667350 -0.548056
O6    O     O_R   0.488180 0.667660 0.422600 -0.609671
O7    O     O_R   0.701020 0.518440 0.622380 -0.612459
O8    O     O_R   0.663600 0.481600 0.377630 -0.523831
O9    O     O_3   0.099905 0.710567 0.473832 -0.651625
H9    H     H_    0.190985 0.728944 0.476194 0.372317
C19   C     C_2   0.881906 0.750539 0.567416 0.850886
O10   O     O_2   0.856213 0.841870 0.669612 -0.521124
O11   O     O_R   0.852427 0.749333 0.425281 -0.723989
H10   H     H_    0.808566 0.826891 0.421737 0.361848
C20   C     C_2   0.416303 0.843811 0.328607 0.899355
O12   O     O_2   0.309264 0.791249 0.304966 -0.528073
O13   O     O_R   0.482199 0.824514 0.213014 -0.731060
H11   H     H_    0.431037 0.765351 0.114785 0.350258
C21   C     C_2   0.547028 0.976323 0.747772 0.891968
O14   O     O_2   0.636958 0.956843 0.824366 -0.517106
O15   O     O_R   0.478832 0.080543 0.808323 -0.719842
H12   H     H_    0.514649 0.134270 0.915234 0.345108
C22   C     C_2   0.369145 0.416261 0.838871 0.737647
O16   O     O_2   0.273528 0.463885 0.871572 -0.642044
O17   O     O_R   0.362849 0.288155 0.740332 -0.715665
H13   H     H_    0.273235 0.246297 0.697735 0.344539
O18   O     O_3   0.634315 0.567185 0.159558 -0.616887
H14   H     H_    0.619353 0.627250 0.254914 0.378257
O19   O     O_3   0.657997 0.633078 0.947794 -0.524354
H15   H     H_    0.691609 0.672788 0.884776 0.380864
C23   C     C_2   0.888242 0.379028 0.687748 0.934622
O20   O     O_2   0.926539 0.457184 0.812772 -0.503083
O21   O     O_R   0.803239 0.271669 0.664280 -0.763227
H16   H     H_    0.779319 0.270857 0.758710 0.342768
O22   O     O_3   0.172367 0.716805 0.701906 -0.668150
H17   H     H_    0.179810 0.667439 0.766952 0.377057
O23   O     O_3   0.955216 0.662847 0.747474 -0.652276
H18   H     H_    0.870978 0.675742 0.774200 0.368568
C24   C     C_2   0.081319 0.460827 0.205737 0.937759
O24   O     O_2   0.080494 0.568502 0.199794 -0.453802
O25   O     O_R   0.111996 0.357417 0.089095 -0.743104
H19   H     H_    0.126995 0.382933 0.004667 0.374617
O26   O     O_3   0.826125 0.339861 0.244181 -0.682347
H20   H     H_    0.824883 0.332995 0.141598 0.359619

loop_
_geom_bond_atom_site_label_1
_geom_bond_atom_site_label_2
_ccdc_geom_bond_type
C2    C4    S    
O11   H10   S    
C11   C18   S    
C17   C24   S    
C11   O3    A    
C12   O6    A    
Cu2   O8    S    
C19   O10   D    
C14   C18   S    
C13   O7    A    
Cu1   Cu2   S    
C9    N1    D    
O17   H13   S    
Cu1   O1    S    
N2    O19   S    
C17   H8    S    
C21   O15   S    
C22   O17   S    
C17   C18   S    
C15   C23   S    
Cu2   O4    S    
O19   H15   S    
Cu1   O5    S    
C22   O16   D    
C12   O5    A    
C2    C15   S    
C19   O11   S    
C7    C21   S    
C13   O8    A    
C7    C12   S    
C5    H4    S    
C3    O23   S    
O23   H18   S    
C1    C5    S    
C4    C17   S    
C9    C10   S    
C16   C18   S    
C4    O26   S    
C2    C3    S    
C9    O18   S    
Cu2   N1    S    
C20   O13   S    
C14   H5    S    
Cu1   O3    S    
C23   O20   D    
C21   O14   D    
C24   O24   D    
C7    C8    D    
C8    C20   S    
C6    H3    S    
C16   O9    S    
O15   H12   S    
Cu2   O6    S    
O26   H20   S    
C1    O1    A    
C4    H2    S    
C14   H1    S    
H6    N1    S    
C24   O25   S    
O22   H17   S    
Cu2   O2    S    
O9    H9    S    
C5    C6    D    
C2    C13   S    
C10   N2    D    
C14   C15   S    
C10   C22   S    
C6    C8    S    
C16   O22   S    
Cu1   O7    S    
O25   H19   S    
O18   H14   S    
C20   O12   D    
Cu1   N2    S    
C15   H7    S    
C3    C16   S    
C11   O4    A    
C3    C19   S    
C1    O2    A    
O13   H11   S    
O21   H16   S    
C23   O21   S    
