data_mof_unit_35933.cif
_audit_creation_date              2012-12-10T17:51:25-0500
_audit_creation_method            fapswitch 2.2
_symmetry_space_group_name_H-M    P1
_symmetry_Int_Tables_number       1
_space_group_crystal_system       triclinic
_cell_length_a                    14.765196
_cell_length_b                    14.846885
_cell_length_c                    17.270853
_cell_angle_alpha                 107.058449
_cell_angle_beta                  74.070615
_cell_angle_gamma                 115.275784
_cell_volume                      3223.86826113

loop_
_atom_site_label
_atom_site_type_symbol
_atom_type_description
_atom_site_fract_x
_atom_site_fract_y
_atom_site_fract_z
_atom_type_partial_charge
C1    C     C_R   0.118518 0.688199 0.511968 0.807243
C2    C     C_R   0.881445 0.312005 0.486843 0.816269
C3    C     C_R   0.184844 0.797189 0.516434 -0.052645
C4    C     C_R   0.814224 0.203870 0.482303 -0.054121
C5    C     C_R   0.214689 0.977010 0.543539 -0.259448
C6    C     C_R   0.780538 0.027634 0.477426 -0.255956
C7    C     C_R   0.146732 0.875755 0.539817 0.162752
C8    C     C_R   0.849553 0.127933 0.478794 0.156253
C9    C     C_R   0.289991 0.822681 0.495811 -0.311966
C10   C     C_R   0.710423 0.177672 0.485427 -0.308785
C11   C     C_R   0.358931 0.924001 0.506879 0.092653
C12   C     C_R   0.639312 0.078739 0.489655 0.091703
C13   C     C_R   0.319850 0.001531 0.527890 0.135954
C14   C     C_R   0.676527 0.002725 0.482829 0.136776
C15   C     C_R   0.465405 0.949950 0.497584 0.072884
C16   C     C_R   0.532531 0.053468 0.501009 0.072634
C17   C     C_R   0.490291 0.128544 0.519492 -0.224766
C18   C     C_R   0.506190 0.876352 0.489603 -0.217579
C19   C     C_R   0.385944 0.102803 0.533449 -0.215451
C20   C     C_R   0.609585 0.902640 0.482947 -0.216117
C21   C     C_R   0.281908 0.315276 0.368646 -0.378194
C22   C     C_R   0.688419 0.641206 0.657091 -0.378026
C23   C     C_R   0.991756 0.505988 0.652645 0.795303
C24   C     C_R   0.009087 0.495327 0.347348 0.798755
C25   C     C_R   0.206332 0.354679 0.384926 0.366061
C26   C     C_R   0.780461 0.628107 0.626241 0.350042
C27   C     C_R   0.286446 0.485818 0.490991 0.236644
C28   C     C_R   0.714424 0.508809 0.508898 0.271608
C29   C     C_R   0.360986 0.444014 0.480610 -0.008514
C30   C     C_R   0.615557 0.514314 0.540549 -0.067210
C31   C     C_R   0.358903 0.359390 0.416060 0.096750
C32   C     C_R   0.606379 0.584859 0.615269 0.113399
C33   C     C_R   0.440713 0.486344 0.528876 0.097887
C34   C     C_R   0.526813 0.457138 0.501355 0.070655
C35   C     C_R   0.516211 0.367333 0.440756 -0.252492
C36   C     C_R   0.433682 0.550504 0.606767 -0.188081
C37   C     C_R   0.433924 0.319426 0.399242 -0.180789
C38   C     C_R   0.514853 0.598727 0.648849 -0.189532
C39   C     C_R   0.995337 0.518433 0.739020 -0.076460
C40   C     C_R   0.008932 0.488273 0.261032 -0.053038
C41   C     C_R   0.084318 0.527325 0.760498 -0.176196
C42   C     C_R   0.932590 0.505221 0.240688 -0.254995
C43   C     C_R   0.090427 0.540740 0.842238 0.180650
C44   C     C_R   0.929583 0.497068 0.158966 0.183078
C45   C     C_R   0.005395 0.543826 0.903495 0.116066
C46   C     C_R   0.005550 0.474015 0.096727 0.184665
C47   C     C_R   0.917925 0.538466 0.882517 -0.180961
C48   C     C_R   0.080111 0.454259 0.116610 -0.229109
C49   C     C_R   0.912714 0.525666 0.800578 -0.207212
C50   C     C_R   0.082166 0.461708 0.198391 -0.193220
C51   C     C_2   0.004226 0.548630 0.989207 -0.206040
C52   C     C_2   0.009953 0.472013 0.010704 -0.195767
Cu1   Cu    Cu3+1 0.916740 0.524770 0.521640 0.983386
Cu2   Cu    Cu3+1 0.083260 0.475230 0.478360 0.960066
H1    H     H_    0.150033 0.524966 0.713936 0.157041
H2    H     H_    0.874447 0.524341 0.287909 0.171652
H3    H     H_    0.535294 0.208828 0.527500 0.144736
H4    H     H_    0.459743 0.798029 0.492224 0.145715
H5    H     H_    0.429950 0.251242 0.352515 0.145331
H6    H     H_    0.506188 0.648642 0.708066 0.146136
H7    H     H_    0.279745 0.249777 0.319262 0.144441
H8    H     H_    0.680927 0.694680 0.714420 0.144998
H9    H     H_    0.566970 0.328373 0.427427 0.139019
H10   H     H_    0.363719 0.560299 0.638937 0.173461
H11   H     H_    0.141204 0.447223 0.212482 0.160031
H12   H     H_    0.843810 0.520100 0.785377 0.155878
H13   H     H_    0.022228 0.408855 0.964159 0.141450
H14   H     H_    0.992002 0.612139 0.035205 0.169634
H15   H     H_    0.852754 0.541659 0.929504 0.150289
H16   H     H_    0.138117 0.435352 0.068855 0.137011
H17   H     H_    0.356809 0.162892 0.549156 0.153251
H18   H     H_    0.637236 0.844050 0.478504 0.147601
H19   H     H_    0.686808 0.236088 0.483652 0.149725
H20   H     H_    0.317087 0.762164 0.468295 0.153547
H21   H     H_    0.184872 0.036700 0.560103 0.134585
H22   H     H_    0.808331 0.969424 0.473828 0.133031
N1    N     N_R   0.208390 0.438070 0.445820 -0.183744
N2    N     N_R   0.791610 0.561930 0.554180 -0.163327
O1    O     O_R   0.020090 0.662480 0.528530 -0.518068
O2    O     O_R   0.979910 0.337520 0.471470 -0.522682
O3    O     O_R   0.160710 0.620650 0.491980 -0.615079
O4    O     O_R   0.839290 0.379350 0.508020 -0.597749
O5    O     O_R   0.921540 0.523360 0.633990 -0.563061
O6    O     O_R   0.078460 0.476640 0.366010 -0.565583
O7    O     O_R   0.062170 0.481520 0.597440 -0.603376
O8    O     O_R   0.937830 0.518480 0.402560 -0.559293
N3    N     N_3   0.740244 0.458729 0.426598 -0.558492
H23   H     H_    0.723560 0.382339 0.423970 0.208408
H24   H     H_    0.706929 0.469654 0.385745 0.194971
N4    N     N_3   0.302526 0.585480 0.539649 -0.625065
H25   H     H_    0.237670 0.587308 0.582112 0.256482
H26   H     H_    0.325050 0.635013 0.500144 0.227371
N5    N     N_3   0.863052 0.684126 0.670718 -0.512815
H27   H     H_    0.839119 0.665969 0.729000 0.189877
H28   H     H_    0.878137 0.761481 0.679015 0.193977
N6    N     N_3   0.127346 0.307822 0.336574 -0.517984
H29   H     H_    0.091605 0.231026 0.340084 0.202868
H30   H     H_    0.161144 0.311551 0.275295 0.178913
N7    N     N_3   0.847969 0.509531 0.139269 -0.607823
H31   H     H_    0.779505 0.455803 0.162311 0.218613
H32   H     H_    0.848383 0.581781 0.169853 0.206288
N8    N     N_3   0.184615 0.554588 0.861465 -0.612394
H33   H     H_    0.173788 0.493439 0.885773 0.215624
H34   H     H_    0.206951 0.621408 0.905814 0.224169
N9    N     N_3   0.954514 0.151944 0.478307 -0.570433
H35   H     H_    0.959254 0.132514 0.530159 0.211650
H36   H     H_    0.980727 0.106146 0.426369 0.201835
N10   N     N_3   0.039718 0.853862 0.558338 -0.562961
H37   H     H_    0.023403 0.894579 0.617453 0.204718
H38   H     H_    0.022246 0.881016 0.517136 0.208136

loop_
_geom_bond_atom_site_label_1
_geom_bond_atom_site_label_2
_ccdc_geom_bond_type
C15   C18   A    
N3    H23   S    
N5    H27   S    
C29   C33   A    
C27   C29   A    
C19   H17   S    
C4    C8    A    
C8    N9    S    
Cu2   O6    S    
C39   C41   A    
Cu1   Cu2   S    
C21   C31   A    
C26   N2    A    
C22   C32   A    
C25   N1    A    
Cu1   O1    S    
C3    C7    A    
C10   H19   S    
C23   C39   S    
C6    C14   A    
C45   C51   S    
C1    O3    A    
C15   C16   A    
C46   C52   S    
C33   C36   A    
N10   H37   S    
C27   N4    S    
C34   C35   A    
C23   O5    A    
C47   H15   S    
C42   H2    S    
C11   C15   A    
C18   H4    S    
C41   H1    S    
C12   C16   A    
C16   C17   A    
N6    H30   S    
Cu1   O8    S    
C32   C38   A    
C28   N2    A    
C21   H7    S    
Cu2   N1    S    
C26   N5    S    
C40   C42   A    
N5    H28   S    
C41   C43   A    
C42   C44   A    
C44   C46   A    
Cu2   O2    S    
C45   C47   A    
C46   C48   A    
C49   H12   S    
C30   C34   A    
C51   C52   D    
C14   C20   A    
C47   C49   A    
C5    C7    A    
C13   C19   A    
C6    C8    A    
C31   C37   A    
Cu1   O4    S    
C1    C3    S    
C5    H21   S    
C2    C4    S    
C3    C9    A    
C22   H8    S    
N9    H36   S    
N4    H26   S    
N7    H31   S    
N6    H29   S    
C28   N3    S    
C33   C34   A    
N8    H34   S    
C48   C50   A    
C43   C45   A    
C37   H5    S    
C52   H13   S    
C10   C12   A    
C38   H6    S    
N7    H32   S    
C12   C14   A    
C9    C11   A    
C23   O7    A    
C1    O1    A    
C2    O4    A    
C9    H20   S    
C4    C10   A    
C21   C25   A    
C24   C40   S    
C35   C37   A    
C5    C13   A    
C44   N7    S    
C48   H16   S    
C27   N1    A    
Cu2   O7    S    
C39   C49   A    
C6    H22   S    
N9    H35   S    
Cu1   O5    S    
C36   C38   A    
Cu1   N2    S    
C24   O6    A    
C43   N8    S    
C29   C31   A    
C30   C32   A    
C11   C13   A    
N4    H25   S    
C40   C50   A    
C28   C30   A    
C17   C19   A    
N10   H38   S    
C18   C20   A    
C51   H14   S    
N8    H33   S    
C50   H11   S    
C2    O2    A    
C25   N6    S    
C22   C26   A    
N3    H24   S    
C7    N10   S    
C20   H18   S    
C35   H9    S    
C36   H10   S    
C24   O8    A    
Cu2   O3    S    
C17   H3    S    
