data_mof_unit_26055.cif
_audit_creation_date              2012-12-10T16:59:18-0500
_audit_creation_method            fapswitch 2.2
_symmetry_space_group_name_H-M    P1
_symmetry_Int_Tables_number       1
_space_group_crystal_system       triclinic
_cell_length_a                    7.913439
_cell_length_b                    8.595973
_cell_length_c                    27.701639
_cell_angle_alpha                 93.146967
_cell_angle_beta                  84.925517
_cell_angle_gamma                 93.499587
_cell_volume                      1871.15913202

loop_
_atom_site_label
_atom_site_type_symbol
_atom_type_description
_atom_site_fract_x
_atom_site_fract_y
_atom_site_fract_z
_atom_type_partial_charge
C1    C     C_R   0.544610 0.793663 0.498912 0.886181
C2    C     C_R   0.455391 0.206339 0.501096 0.886079
C3    C     C_R   0.502152 0.511695 0.898186 -0.227067
C4    C     C_R   0.497935 0.528731 0.102147 -0.209395
C5    C     C_R   0.625934 0.599803 0.870166 -0.155274
C6    C     C_R   0.399595 0.414265 0.128442 -0.153830
C7    C     C_R   0.732514 0.710495 0.893300 0.660984
C8    C     C_R   0.325042 0.285061 0.103449 0.671959
C9    C     C_R   0.387071 0.406568 0.875025 -0.110996
C10   C     C_R   0.598396 0.642473 0.126978 -0.111660
C11   C     C_R   0.503676 0.493429 0.646182 -0.034613
C12   C     C_R   0.497037 0.511021 0.353819 -0.033841
C13   C     C_R   0.605427 0.638332 0.024337 0.011741
C14   C     C_R   0.390436 0.417004 0.976606 0.024293
C15   C     C_R   0.405468 0.406276 0.026637 -0.036124
C16   C     C_R   0.602433 0.640269 0.972784 -0.028821
C17   C     C_R   0.500194 0.526417 0.050937 0.057226
C18   C     C_R   0.498313 0.523623 0.949435 0.046658
C19   C     C_R   0.722154 0.732914 0.050115 -0.356248
C20   C     C_R   0.264603 0.327326 0.953223 -0.336657
C21   C     C_R   0.713751 0.741458 0.100325 0.697809
C22   C     C_R   0.263800 0.319391 0.903204 0.678374
C23   C     C_R   0.500820 0.499107 0.593669 0.848785
C24   C     C_R   0.499284 0.501458 0.406302 0.850401
C25   C     C_R   0.697976 0.751438 0.942696 -0.040078
C26   C     C_R   0.342272 0.272672 0.052703 -0.058123
C27   C     C_2   0.567712 0.956700 0.500797 0.263206
C28   C     C_2   0.432287 0.043304 0.499225 0.264147
C29   C     C_R   0.631517 0.582569 0.819394 0.582896
C30   C     C_R   0.394331 0.423198 0.179273 0.585226
C31   C     C_R   0.396720 0.394494 0.824247 0.565170
C32   C     C_R   0.588703 0.646631 0.177787 0.570471
C33   C     C_R   0.648571 0.432235 0.715611 -0.086049
C34   C     C_R   0.344751 0.558505 0.284448 -0.082442
C35   C     C_R   0.645571 0.438448 0.665683 -0.210989
C36   C     C_R   0.346722 0.545944 0.334158 -0.208493
C37   C     C_R   0.365304 0.542176 0.677231 -0.213316
C38   C     C_R   0.645033 0.489093 0.323020 -0.207124
C39   C     C_R   0.369328 0.537416 0.727115 -0.079444
C40   C     C_R   0.642275 0.500263 0.273281 -0.079176
C41   C     C_R   0.510763 0.482394 0.746395 0.265711
C42   C     C_R   0.492267 0.534975 0.253928 0.272517
H1    H     H_    0.255377 0.586065 0.663156 0.158623
H2    H     H_    0.762424 0.462587 0.337157 0.156304
H3    H     H_    0.263285 0.577947 0.750927 0.173854
H4    H     H_    0.756157 0.480299 0.249624 0.160643
H5    H     H_    0.230772 0.564118 0.357085 0.167444
H6    H     H_    0.753713 0.399474 0.642427 0.171521
H7    H     H_    0.228401 0.584829 0.269519 0.157026
H8    H     H_    0.758169 0.389705 0.730443 0.164706
H9    H     H_    0.826327 0.798612 0.032414 0.170452
H10   H     H_    0.165690 0.262100 0.973758 0.174576
N1    N     N_R   0.515950 0.483459 0.797800 -0.373435
N2    N     N_R   0.488166 0.537800 0.202569 -0.376061
N3    N     N_2   0.950320 0.457960 0.486880 -0.081027
N4    N     N_2   0.049680 0.542040 0.513120 -0.080827
O1    O     O_R   0.389250 0.738570 0.503220 -0.589638
O2    O     O_R   0.610750 0.261430 0.496780 -0.590032
O3    O     O_R   0.678390 0.711630 0.494810 -0.624499
O4    O     O_R   0.321610 0.288370 0.505190 -0.623967
O5    O     O_R   0.355440 0.513440 0.575450 -0.639923
O6    O     O_R   0.644560 0.486560 0.424550 -0.641226
O7    O     O_R   0.644590 0.486500 0.567040 -0.643560
O8    O     O_R   0.355410 0.513500 0.432960 -0.643678
O9    O     O_2   0.746507 0.668497 0.791624 -0.474959
O10   O     O_2   0.299205 0.316658 0.205426 -0.460467
O11   O     O_2   0.678659 0.757980 0.202474 -0.456762
O12   O     O_2   0.288656 0.294725 0.801186 -0.463017
Zn1   Zn    Zn3+2 0.306940 0.517990 0.505620 0.953182
Zn2   Zn    Zn3+2 0.693060 0.482010 0.494380 0.952353
C43   C     C_3   0.013263 0.316327 0.462589 -0.105643
C44   C     C_3   0.927460 0.271874 0.415969 -0.390833
C45   C     C_3   0.008885 0.132935 0.388314 -0.830294
H11   H     H_    0.145132 0.162279 0.377410 0.263147
H12   H     H_    0.998077 0.030128 0.411253 0.300644
H13   H     H_    0.942849 0.102265 0.355054 0.267807
H14   H     H_    0.791321 0.238943 0.423920 0.279415
H15   H     H_    0.941240 0.372705 0.392256 0.214500
H16   H     H_    0.146107 0.333463 0.449945 0.225528
H17   H     H_    0.994908 0.219450 0.487807 0.246572
C46   C     C_3   0.986720 0.683620 0.537423 -0.102864
C47   C     C_3   0.071995 0.727406 0.584140 -0.392532
C48   C     C_3   0.990735 0.866314 0.611860 -0.836077
H18   H     H_    0.002214 0.969402 0.589033 0.300653
H19   H     H_    0.854308 0.837266 0.622605 0.263478
H20   H     H_    0.056418 0.896366 0.645219 0.265485
H21   H     H_    0.057400 0.626179 0.607710 0.219009
H22   H     H_    0.208283 0.760059 0.576307 0.277291
H23   H     H_    0.005554 0.780686 0.512282 0.246312
H24   H     H_    0.853796 0.666596 0.549963 0.226335
F1    F     F_    0.863437 0.786559 0.867543 -0.616420
F2    F     F_    0.256751 0.160817 0.128168 -0.608844
F3    F     F_    0.826023 0.841705 0.122259 -0.609148
F4    F     F_    0.143693 0.223983 0.882819 -0.619096
C49   C     C_3   0.748721 0.918795 0.959416 -0.418180
C50   C     C_3   0.701940 0.043771 0.925777 -0.285256
C51   C     C_3   0.754149 0.206862 0.945765 -0.823239
H25   H     H_    0.684698 0.233228 0.981501 0.244917
H26   H     H_    0.891921 0.216040 0.950307 0.288841
H27   H     H_    0.727809 0.294206 0.919871 0.267997
H28   H     H_    0.768336 0.030120 0.889063 0.314574
H29   H     H_    0.563242 0.034559 0.921781 0.205481
H30   H     H_    0.680882 0.949251 0.995018 0.203020
H31   H     H_    0.888121 0.929100 0.962065 0.239165
C52   C     C_3   0.351756 0.108015 0.029369 -0.396672
C53   C     C_3   0.184741 0.006236 0.032134 -0.267319
C54   C     C_3   0.208285 0.856482 0.000392 -0.875898
H32   H     H_    0.236245 0.883980 0.961676 0.279875
H33   H     H_    0.314270 0.793583 0.012179 0.275354
H34   H     H_    0.092979 0.777282 0.003649 0.252650
H35   H     H_    0.148580 0.972959 0.069927 0.313937
H36   H     H_    0.078684 0.068751 0.020143 0.207428
H37   H     H_    0.404537 0.111359 0.991205 0.211901
H38   H     H_    0.446448 0.047218 0.047725 0.217374
F5    F     F_    0.728476 0.017495 0.506474 -0.684346
F6    F     F_    0.271519 0.982511 0.493555 -0.683704

loop_
_geom_bond_atom_site_label_1
_geom_bond_atom_site_label_2
_ccdc_geom_bond_type
N3    N4    D    
C50   H29   S    
C22   F4    S    
C45   H11   S    
C14   C18   A    
C49   C50   S    
C34   C42   A    
C43   H16   S    
C46   C47   S    
N4    C46   S    
C39   C41   A    
C53   H36   S    
C40   H4    S    
C30   N2    A    
N4    Zn1   S    
C21   F3    S    
C36   H5    S    
C52   H37   S    
C19   C21   A    
C1    O3    A    
C2    O4    A    
C9    C22   A    
C53   C54   S    
C47   H21   S    
C8    C26   A    
O6    Zn2   S    
C3    C18   A    
C11   C23   S    
C11   C37   A    
C44   H15   S    
C28   F6    S    
C54   H32   S    
C8    F2    S    
C12   C36   A    
C39   H3    S    
C46   H23   S    
C23   O7    A    
C24   O8    A    
C50   H28   S    
C45   H12   S    
C35   H6    S    
C26   C52   S    
C32   N2    A    
C43   H17   S    
C51   H26   S    
C49   H30   S    
C51   H25   S    
C5    C29   A    
C53   H35   S    
C10   C21   A    
C31   O12   S    
C13   C19   A    
C14   C20   A    
C52   H38   S    
C4    C6    A    
C5    C7    A    
O2    Zn2   S    
C15   C26   A    
C6    C8    A    
C33   H8    S    
C37   H1    S    
C38   H2    S    
C44   H14   S    
C3    C9    A    
C1    O1    A    
C48   H18   S    
O7    Zn2   S    
C7    F1    S    
C50   C51   S    
O8    Zn1   S    
C31   N1    A    
C41   N1    S    
C30   O10   S    
C32   O11   S    
C29   O9    S    
C4    C17   A    
C16   C18   A    
C6    C30   A    
C20   C22   A    
C25   C49   S    
C54   H34   S    
C46   H24   S    
C4    C10   A    
C51   H27   S    
C49   H31   S    
O5    Zn1   S    
C16   C25   A    
C15   C17   A    
C34   H7    S    
C24   O6    A    
C48   H19   S    
C44   C45   S    
C3    C5    A    
C2    O2    A    
C52   C53   S    
C12   C24   S    
C7    C25   A    
C13   C17   A    
C33   C41   A    
C11   C35   A    
C43   C44   S    
C20   H10   S    
C42   N2    S    
C38   C40   A    
C54   H33   S    
C29   N1    A    
O4    Zn1   S    
C19   H9    S    
C47   H22   S    
C40   C42   A    
C33   C35   A    
C34   C36   A    
C12   C38   A    
N3    Zn2   S    
C9    C31   A    
O3    Zn2   S    
C10   C32   A    
C23   O5    A    
C48   H20   S    
C45   H13   S    
C37   C39   A    
C47   C48   S    
C13   C16   A    
C27   C28   D    
C1    C27   S    
C14   C15   A    
C2    C28   S    
O1    Zn1   S    
N3    C43   S    
C27   F5    S    
