data_mof_unit_5544.cif
_audit_creation_date              2013-03-05T16:48:42-0500
_audit_creation_method            fapswitch 2.2
_symmetry_space_group_name_H-M    P1
_symmetry_Int_Tables_number       1
_space_group_crystal_system       triclinic
_cell_length_a                    27.714245
_cell_length_b                    8.936919
_cell_length_c                    8.092154
_cell_angle_alpha                 90.191994
_cell_angle_beta                  89.891252
_cell_angle_gamma                 90.314523
_cell_volume                      2004.21940957

loop_
_atom_site_label
_atom_site_type_symbol
_atom_site_description
_atom_site_fract_x
_atom_site_fract_y
_atom_site_fract_z
_atom_type_partial_charge
O1    O     O_R   0.500000 0.285350 0.636850 -0.615274
O2    O     O_R   0.500000 0.714650 0.363150 -0.615008
O3    O     O_R   0.500000 0.714650 0.636850 -0.617211
O4    O     O_R   0.500000 0.285350 0.363150 -0.618457
C1    C     C_R   0.499970 0.217931 0.499823 0.939223
C2    C     C_R   0.500020 0.782069 0.500177 0.941078
O5    O     O_R   0.428760 0.500000 0.636860 -0.624107
O6    O     O_R   0.571240 0.500000 0.363140 -0.627035
O7    O     O_R   0.571240 0.500000 0.636860 -0.626758
O8    O     O_R   0.428760 0.500000 0.363140 -0.621134
C3    C     C_R   0.405803 0.499301 0.500180 0.928944
C4    C     C_R   0.594312 0.500619 0.499811 0.927137
Zn1   Zn    Zn3+2 0.500000 0.500000 0.682780 0.986492
Zn2   Zn    Zn3+2 0.500000 0.500000 0.317220 0.986417
C5    C     C_R   0.176825 0.361724 0.538002 0.585842
C6    C     C_R   0.823784 0.637730 0.521911 0.610755
C7    C     C_R   0.178749 0.619873 0.461613 0.622414
C8    C     C_R   0.822283 0.374379 0.470025 0.607742
O9    O     O_2   0.201591 0.237101 0.576735 -0.498066
O10   O     O_2   0.799041 0.766294 0.540764 -0.493877
O11   O     O_2   0.205379 0.742165 0.424514 -0.477543
O12   O     O_2   0.796125 0.247449 0.453134 -0.498802
N1    N     N_R   0.201488 0.489822 0.500923 -0.332536
N2    N     N_R   0.799203 0.506905 0.496365 -0.328569
C9    C     C_R   0.277687 0.551603 0.636706 0.507550
C10   C     C_R   0.722688 0.483243 0.348458 0.500058
C11   C     C_R   0.277853 0.421340 0.370693 0.512901
C12   C     C_R   0.722903 0.531660 0.646221 0.498003
C13   C     C_R   0.327958 0.554860 0.635216 -0.311345
C14   C     C_R   0.672188 0.485851 0.349865 -0.346820
C15   C     C_R   0.328398 0.429580 0.368330 -0.344706
C16   C     C_R   0.672419 0.523958 0.647030 -0.347045
C17   C     C_R   0.252922 0.487790 0.502645 0.110642
C18   C     C_R   0.747661 0.508293 0.496885 0.125876
C19   C     C_R   0.101853 0.494159 0.496884 -0.203436
C20   C     C_R   0.898961 0.503237 0.494270 -0.201616
C21   C     C_R   0.126200 0.359954 0.534873 -0.135020
C22   C     C_R   0.874408 0.638490 0.525839 -0.144325
C23   C     C_R   0.128173 0.626091 0.460770 -0.152256
C24   C     C_R   0.872803 0.369996 0.463494 -0.148955
C25   C     C_R   0.099260 0.229374 0.570490 0.589503
C26   C     C_R   0.901153 0.769358 0.561824 0.594491
C27   C     C_R   0.103211 0.758986 0.423150 0.594404
C28   C     C_R   0.897890 0.237229 0.425875 0.599574
C29   C     C_R   0.353303 0.494726 0.501059 -0.156131
C30   C     C_R   0.647045 0.503195 0.499037 -0.146351
H1    H     H_    0.348286 0.385555 0.263882 0.175235
H2    H     H_    0.653051 0.534266 0.762729 0.176960
H3    H     H_    0.347050 0.607778 0.736711 0.184913
H4    H     H_    0.652616 0.473733 0.234961 0.177281
C31   C     C_R   0.974328 0.363138 0.482949 0.013377
C32   C     C_R   0.026568 0.634274 0.482198 0.015652
C33   C     C_R   0.976066 0.636799 0.504526 0.018478
C34   C     C_R   0.024720 0.361004 0.506790 0.020337
C35   C     C_R   0.949843 0.501091 0.493795 0.074283
C36   C     C_R   0.050992 0.496475 0.495191 0.073584
C37   C     C_R   0.947877 0.232798 0.444819 -0.332990
C38   C     C_R   0.053185 0.764069 0.443881 -0.334441
C39   C     C_R   0.951193 0.769486 0.541871 -0.339861
C40   C     C_R   0.049372 0.228839 0.546387 -0.344623
H5    H     H_    0.965610 0.127688 0.419877 0.156387
H6    H     H_    0.035528 0.869451 0.421058 0.154420
H7    H     H_    0.970201 0.873199 0.565723 0.152188
H8    H     H_    0.030197 0.125164 0.568170 0.151702
C41   C     C_1   0.499983 0.065170 0.499747 -0.190222
C42   C     C_1   0.500000 0.934831 0.500251 -0.189294
N3    N     N_1   0.500000 0.500000 0.073640 -0.038048
N4    N     N_1   0.500000 0.500000 0.926360 -0.037902
O13   O     O_3   0.251407 0.361509 0.240493 -0.638971
C43   C     C_3   0.267734 0.216723 0.199342 -0.250418
H9    H     H_    0.275450 0.147786 0.310686 0.205193
H10   H     H_    0.299865 0.223130 0.117385 0.148245
H11   H     H_    0.238817 0.158432 0.129171 0.201706
O14   O     O_3   0.749302 0.549030 0.790663 -0.611994
C44   C     C_3   0.734745 0.679040 0.876604 -0.193143
H12   H     H_    0.701766 0.656561 0.950845 0.156363
H13   H     H_    0.729033 0.776008 0.792751 0.172834
H14   H     H_    0.763804 0.711203 0.964099 0.208768
O15   O     O_3   0.252339 0.621520 0.761985 -0.598230
C45   C     C_3   0.251829 0.527286 0.901153 -0.225383
H15   H     H_    0.288760 0.512339 0.952030 0.172429
H16   H     H_    0.235160 0.416644 0.871923 0.176506
H17   H     H_    0.229558 0.580465 0.998870 0.220054
O16   O     O_3   0.748903 0.467718 0.203071 -0.612512
C46   C     C_3   0.734228 0.338102 0.115863 -0.195598
H18   H     H_    0.701489 0.360842 0.041328 0.157530
H19   H     H_    0.728060 0.240470 0.198744 0.173495
H20   H     H_    0.763415 0.306814 0.028545 0.208417
O17   O     O_3   0.121851 0.098746 0.617640 -0.501149
C47   C     C_3   0.112545 0.072686 0.786543 -0.247323
H21   H     H_    0.073967 0.043763 0.808093 0.123210
H22   H     H_    0.123451 0.170274 0.864348 0.139872
H23   H     H_    0.134301 0.975517 0.826463 0.201530
O18   O     O_3   0.878520 0.899659 0.610532 -0.503587
C48   C     C_3   0.883361 0.915850 0.783092 -0.259578
H24   H     H_    0.921732 0.933151 0.819005 0.124855
H25   H     H_    0.867668 0.818131 0.849870 0.152561
H26   H     H_    0.863124 0.016630 0.822507 0.191989
O19   O     O_3   0.127892 0.887460 0.377872 -0.498329
C49   C     C_3   0.119831 0.915319 0.208758 -0.248403
H27   H     H_    0.081944 0.949969 0.186035 0.124762
H28   H     H_    0.129198 0.816499 0.130861 0.142280
H29   H     H_    0.143571 0.009258 0.169991 0.195280
O20   O     O_3   0.873699 0.109253 0.376130 -0.498577
C50   C     C_3   0.876885 0.097455 0.202689 -0.257047
H30   H     H_    0.914841 0.081018 0.161633 0.123087
H31   H     H_    0.861013 0.196931 0.141021 0.152407
H32   H     H_    0.855859 0.997818 0.162586 0.192787

loop_
_geom_bond_atom_site_label_1
_geom_bond_atom_site_label_2
_geom_bond_distance
_ccdc_geom_bond_type
C38   H6    1.080329 S    
O5    Zn1   2.009720 S    
C25   O17   1.382880 S    
C48   H24   1.112785 S    
O3    C2    1.261224 A    
C12   O14   1.387936 S    
C28   O20   1.381707 S    
C48   H26   1.109245 S    
C34   C40   1.405980 A    
C46   H18   1.110526 S    
C11   C17   1.402733 A    
O5    C3    1.277000 A    
C50   H31   1.113980 S    
C7    N1    1.363978 A    
O1    C1    1.260191 A    
C19   C21   1.414364 A    
C27   O19   1.383345 S    
C22   C26   1.411057 A    
O13   C43   1.411699 S    
C7    C23   1.403131 A    
C8    C24   1.401783 A    
C5    C21   1.403309 A    
C20   C24   1.412344 A    
O7    Zn1   2.008331 S    
C27   C38   1.397206 A    
C5    O9    1.349564 S    
C10   C18   1.404070 A    
N1    C17   1.425779 S    
C10   O16   1.388534 S    
Zn2   N3    1.971087 S    
C43   H9    1.114902 S    
C31   C37   1.406605 A    
C11   O13   1.388537 S    
O6    C4    1.278536 A    
C5    N1    1.364088 A    
C14   H4    1.082180 S    
C12   C18   1.404099 A    
C6    N2    1.365265 A    
C15   H1    1.082306 S    
C21   C25   1.412181 A    
C16   H2    1.082230 S    
O2    C2    1.260190 A    
C45   H17   1.109478 S    
O20   C50   1.409744 S    
C44   H14   1.109421 S    
C33   C35   1.412969 A    
C9    C13   1.393403 A    
C50   H32   1.109439 S    
C34   C36   1.412649 A    
O14   C44   1.412469 S    
C46   H19   1.114545 S    
C11   C15   1.402439 A    
N3    N4    1.191812 T    
C12   C16   1.400461 A    
O16   C46   1.412686 S    
C1    C41   1.365213 S    
O8    Zn2   2.008334 S    
C45   H15   1.112840 S    
C13   H3    1.083732 S    
C49   H29   1.109508 S    
C7    O11   1.349730 S    
C13   C29   1.399325 A    
C19   C23   1.414111 A    
C44   H12   1.110548 S    
C47   H22   1.114686 S    
O19   C49   1.410224 S    
C2    C42   1.365219 S    
C28   C37   1.394884 A    
C6    O10   1.349337 S    
C43   H11   1.109620 S    
C49   H28   1.114835 S    
C44   H13   1.114599 S    
C32   C38   1.406402 A    
C4    C30   1.461501 S    
C10   C14   1.399913 A    
C8    N2    1.365076 A    
C3    C29   1.455353 S    
O1    Zn1   1.952761 S    
C32   C33   1.411201 A    
C47   H23   1.109213 S    
C46   H20   1.109391 S    
O6    Zn2   2.009717 S    
C33   C39   1.406568 A    
C19   C36   1.409938 A    
C26   O18   1.381618 S    
C16   C30   1.401220 A    
C14   C30   1.401233 A    
C25   C40   1.396642 A    
O4    C1    1.261219 A    
O3    Zn1   1.955205 S    
C26   C39   1.395871 A    
C23   C27   1.412102 A    
C48   H25   1.114413 S    
C37   H5    1.080788 S    
C50   H30   1.112906 S    
C39   H7    1.080598 S    
C40   H8    1.080406 S    
C31   C34   1.410432 A    
C8    O12   1.349560 S    
C20   C35   1.410379 A    
C47   H21   1.112148 S    
C20   C22   1.412681 A    
C49   H27   1.112175 S    
C45   H16   1.113956 S    
C31   C35   1.412936 A    
O4    Zn2   1.955206 S    
O18   C48   1.409954 S    
O2    Zn2   1.952760 S    
O7    C4    1.279120 A    
N2    C18   1.428570 S    
C9    O15   1.381861 S    
O8    C3    1.277464 A    
O15   C45   1.408501 S    
C24   C28   1.410585 A    
C41   C42   1.164856 T    
C15   C29   1.401137 A    
C9    C17   1.402703 A    
C43   H10   1.110641 S    
O17   C47   1.410327 S    
C32   C36   1.412848 A    
C6    C22   1.403408 A    
Zn1   N4    1.971087 S    
