data_mof_unit_53865.cif
_audit_creation_date              2012-12-10T18:51:36-0500
_audit_creation_method            fapswitch 2.2
_symmetry_space_group_name_H-M    P1
_symmetry_Int_Tables_number       1
_space_group_crystal_system       triclinic
_cell_length_a                    10.854213
_cell_length_b                    9.858529
_cell_length_c                    10.524331
_cell_angle_alpha                 89.732025
_cell_angle_beta                  90.007462
_cell_angle_gamma                 89.851515
_cell_volume                      1126.1564896

loop_
_atom_site_label
_atom_site_type_symbol
_atom_type_description
_atom_site_fract_x
_atom_site_fract_y
_atom_site_fract_z
_atom_type_partial_charge
C1    C     C_R   0.872277 0.501617 0.509856 -0.411210
C2    C     C_3   0.493701 0.368794 0.041157 -0.248886
C3    C     C_3   0.398448 0.447101 0.961606 0.519994
C4    C     C_3   0.610258 0.548803 0.038079 0.545776
C5    C     C_3   0.501317 0.499741 0.876932 -0.104740
C6    C     C_3   0.506349 0.498084 0.122674 -0.159522
C7    C     C_R   0.543951 0.071134 0.601890 0.470062
C8    C     C_R   0.454990 0.928797 0.398579 0.454935
C9    C     C_R   0.456862 0.072287 0.397761 0.439124
C10   C     C_R   0.545875 0.927689 0.601043 0.434023
C11   C     C_R   0.062568 0.377146 0.501116 0.330225
C12   C     C_R   0.127146 0.500536 0.507023 -0.403276
C13   C     C_R   0.936504 0.626125 0.507603 0.325292
C14   C     C_R   0.936532 0.377994 0.518354 0.313446
C15   C     C_R   0.063280 0.624343 0.520723 0.322071
C16   C     C_3   0.215928 0.342101 0.011663 0.115844
C17   C     C_3   0.098830 0.281197 0.957616 -0.853772
C18   C     C_3   0.796755 0.508192 0.139715 0.096269
C19   C     C_3   0.931828 0.545632 0.123987 -0.866302
C20   C     C_3   0.108979 0.201118 0.369765 0.114292
C21   C     C_3   0.129019 0.048714 0.373970 -0.655669
C22   C     C_3   0.873705 0.794778 0.374977 0.140251
C23   C     C_R   0.259793 0.500136 0.501858 0.961981
C24   C     C_3   0.808552 0.931069 0.364175 -0.776574
C25   C     C_3   0.882963 0.225729 0.671640 0.143840
C26   C     C_3   0.880329 0.072993 0.691995 -0.678338
C27   C     C_3   0.125912 0.767095 0.675889 0.133240
C28   C     C_3   0.210971 0.885052 0.705823 -0.798571
C29   C     C_R   0.739965 0.500250 0.503992 0.923078
C30   C     C_R   0.503774 0.499796 0.257450 0.872587
C31   C     C_R   0.498903 0.499861 0.742481 0.917941
C32   C     C_3   0.409505 0.575047 0.043569 -0.324107
C33   C     C_3   0.598305 0.422306 0.954006 -0.311128
C34   C     C_3   0.515554 0.627886 0.958051 -0.160222
F1    F     F_    0.587051 0.137449 0.705017 -0.619211
F2    F     F_    0.406807 0.862448 0.297797 -0.600747
F3    F     F_    0.411418 0.139641 0.295584 -0.642966
F4    F     F_    0.594814 0.860207 0.701448 -0.607648
H1    H     H_    0.332265 0.635789 0.082969 0.194185
H2    H     H_    0.785907 0.403630 0.102044 0.135341
H3    H     H_    0.773384 0.505523 0.242136 0.122860
H4    H     H_    0.948843 0.651318 0.154253 0.248792
H5    H     H_    0.989907 0.476060 0.181927 0.192929
H6    H     H_    0.958333 0.537423 0.022557 0.260923
H7    H     H_    0.179028 0.247842 0.306240 0.170262
H8    H     H_    0.015799 0.219431 0.328071 0.124988
H9    H     H_    0.059527 0.001052 0.436369 0.254546
H10   H     H_    0.122438 0.005618 0.276931 0.208749
H11   H     H_    0.219946 0.024779 0.414980 0.269961
H12   H     H_    0.674155 0.361649 0.911762 0.173222
H13   H     H_    0.820681 0.722507 0.316122 0.172098
H14   H     H_    0.968467 0.805560 0.335830 0.141477
H15   H     H_    0.851380 0.007047 0.427027 0.273074
H16   H     H_    0.813389 0.968440 0.264609 0.214414
H17   H     H_    0.710768 0.919796 0.390772 0.232151
H18   H     H_    0.802364 0.272340 0.719914 0.180572
H19   H     H_    0.968534 0.263190 0.718041 0.125514
H20   H     H_    0.962450 0.026254 0.647417 0.242967
H21   H     H_    0.880998 0.049461 0.795278 0.209401
H22   H     H_    0.796759 0.028670 0.648849 0.297549
H23   H     H_    0.526274 0.733024 0.921619 0.233708
H24   H     H_    0.161105 0.676346 0.728518 0.138347
H25   H     H_    0.031834 0.792155 0.710867 0.168229
H26   H     H_    0.182166 0.977362 0.652825 0.259770
H27   H     H_    0.208271 0.906804 0.809218 0.217166
H28   H     H_    0.306701 0.858439 0.678974 0.263619
H29   H     H_    0.485777 0.263432 0.077725 0.229886
H30   H     H_    0.190108 0.424487 0.078582 0.124921
H31   H     H_    0.265153 0.260366 0.064579 0.179482
H32   H     H_    0.121981 0.195413 0.893758 0.270302
H33   H     H_    0.039556 0.243310 0.036077 0.203288
H34   H     H_    0.047598 0.359590 0.903069 0.241513
N1    N     N_R   0.500000 0.857200 0.500000 -0.241550
N2    N     N_R   0.500000 0.142800 0.500000 -0.222735
O1    O     O_R   0.316770 0.614620 0.499990 -0.562726
O2    O     O_3   0.722720 0.606587 0.077679 -0.597195
O3    O     O_3   0.122184 0.253187 0.494014 -0.561225
O4    O     O_3   0.876596 0.750624 0.502960 -0.553484
O5    O     O_3   0.877818 0.255441 0.539960 -0.578643
O6    O     O_3   0.123975 0.745219 0.543176 -0.565904
O7    O     O_R   0.683230 0.385380 0.500010 -0.577643
O8    O     O_R   0.683230 0.614620 0.500010 -0.560818
O9    O     O_R   0.316770 0.385380 0.499990 -0.560878
O10   O     O_R   0.499970 0.614650 0.313950 -0.551306
O11   O     O_R   0.500030 0.385350 0.686050 -0.548136
O12   O     O_R   0.500030 0.614650 0.686050 -0.588310
O13   O     O_R   0.499970 0.385350 0.313950 -0.586178
O14   O     O_3   0.288570 0.393394 0.911269 -0.604278
Zn1   Zn    Zn3+2 0.500000 0.653120 0.500000 1.066448
Zn2   Zn    Zn3+2 0.500000 0.346880 0.500000 1.066970

loop_
_geom_bond_atom_site_label_1
_geom_bond_atom_site_label_2
_ccdc_geom_bond_type
C7    C10   A    
C6    C32   S    
C31   O11   A    
C25   H18   S    
C21   H11   S    
C24   H17   S    
C12   C23   S    
O8    Zn1   S    
C23   O9    A    
C20   O3    S    
C10   N1    A    
C24   H16   S    
C18   C19   S    
C8    F2    S    
C32   H1    S    
C18   H2    S    
C11   O3    S    
C13   O4    S    
C8    C9    A    
C5    C33   S    
C16   H30   S    
C26   H21   S    
C20   H7    S    
C19   H4    S    
C21   H10   S    
C17   H32   S    
C31   O12   A    
C2    C6    S    
C25   H19   S    
C9    F3    S    
C25   C26   S    
C19   H5    S    
C7    N2    A    
C4    C34   S    
C22   O4    S    
C4    C6    S    
C2    H29   S    
C18   H3    S    
C16   C17   S    
C24   H15   S    
C34   H23   S    
C32   C34   S    
C28   H28   S    
C29   O7    A    
C27   H24   S    
C15   O6    S    
C12   C15   A    
O11   Zn2   S    
C5    C34   S    
C1    C29   S    
C14   O5    S    
C26   H20   S    
C27   H25   S    
O7    Zn2   S    
C28   H26   S    
C2    C33   S    
C6    C30   S    
C17   H33   S    
C13   C15   A    
C22   C24   S    
C1    C13   A    
C9    N2    A    
C19   H6    S    
C22   H14   S    
O9    Zn2   S    
C4    C33   S    
C18   O2    S    
C3    O14   S    
C25   O5    S    
C7    F1    S    
C16   H31   S    
C23   O1    A    
C3    C5    S    
O12   Zn1   S    
C11   C12   A    
C10   F4    S    
N2    Zn2   S    
C2    C3    S    
C33   H12   S    
N1    Zn1   S    
C29   O8    A    
C8    N1    A    
C11   C14   A    
C28   H27   S    
C30   O10   A    
C3    C32   S    
C4    O2    S    
O1    Zn1   S    
C20   C21   S    
C27   O6    S    
C17   H34   S    
O10   Zn1   S    
O13   Zn2   S    
C27   C28   S    
C16   O14   S    
C1    C14   A    
C5    C31   S    
C30   O13   A    
C26   H22   S    
C20   H8    S    
C22   H13   S    
C21   H9    S    
