data_mof_unit_55534.cif
_audit_creation_date              2013-03-05T16:02:39-0500
_audit_creation_method            fapswitch 2.2
_symmetry_space_group_name_H-M    P1
_symmetry_Int_Tables_number       1
_space_group_crystal_system       triclinic
_cell_length_a                    6.951163
_cell_length_b                    17.380233
_cell_length_c                    18.71563
_cell_angle_alpha                 106.273417
_cell_angle_beta                  89.38411
_cell_angle_gamma                 90.354043
_cell_volume                      2170.36148178

loop_
_atom_site_label
_atom_site_type_symbol
_atom_site_description
_atom_site_fract_x
_atom_site_fract_y
_atom_site_fract_z
_atom_type_partial_charge
O1    O     O_R   0.494360 0.415680 0.413760 -0.594459
O2    O     O_R   0.818810 0.432910 0.557230 -0.518148
O3    O     O_R   0.994290 0.584320 0.586240 -0.541979
C1    C     C_R   0.649555 0.415779 0.580455 1.012391
O4    O     O_R   0.823740 0.406440 0.412520 -0.601571
O5    O     O_R   0.999250 0.557660 0.440500 -0.588738
C2    C     C_R   0.655302 0.383659 0.384803 0.911052
O6    O     O_R   0.489400 0.442340 0.559500 -0.552177
O7    O     O_3   0.662500 0.549650 0.509350 -0.273810
V1    V     V_3+5 0.935340 0.490790 0.498270 1.229538
O8    O     O_R   0.329270 0.567090 0.442770 -0.577262
C3    C     C_R   0.161302 0.584022 0.419366 0.927643
O9    O     O_R   0.324340 0.593560 0.587480 -0.596350
C4    C     C_R   0.154183 0.614468 0.616619 1.063066
V2    V     V_3+5 0.435970 0.509210 0.501730 1.199164
O10   O     O_3   0.158940 0.450350 0.490650 -0.243690
H1    H     H_    0.888182 0.849292 0.557878 0.114683
C5    C     C_R   0.227684 0.595428 0.768337 0.407049
C6    C     C_R   0.331428 0.591574 0.830930 -0.173608
C7    C     C_R   0.369964 0.660576 0.887519 -0.177667
C8    C     C_R   0.297980 0.733740 0.883875 -0.171825
C9    C     C_R   0.206155 0.740964 0.818997 0.097367
C10   C     C_R   0.190993 0.671786 0.756521 -0.058638
C11   C     C_R   0.124493 0.814783 0.816386 -0.284303
C12   C     C_R   0.054288 0.822635 0.747999 0.130184
C13   C     C_R   0.066801 0.756992 0.682448 0.111645
C14   C     C_R   0.136619 0.681553 0.686279 -0.295538
C15   C     C_R   0.978970 0.896355 0.742753 -0.177450
C16   C     C_R   0.918426 0.905308 0.674856 -0.116675
C17   C     C_R   0.933611 0.841793 0.610662 -0.101357
C18   C     C_R   0.007610 0.768591 0.613999 -0.166392
H2    H     H_    0.368490 0.534246 0.839135 0.188853
H3    H     H_    0.443296 0.656462 0.937055 0.160493
H4    H     H_    0.317159 0.784192 0.932374 0.138118
H5    H     H_    0.968362 0.948271 0.790669 0.116646
H6    H     H_    0.861424 0.962163 0.671928 0.116200
H7    H     H_    0.017407 0.721487 0.562218 0.093268
C19   C     C_1   0.111452 0.863903 0.132614 -0.324988
C20   C     C_1   0.118984 0.821321 0.176173 0.063281
C21   C     C_1   0.128493 0.771086 0.228050 -0.000472
C22   C     C_1   0.136626 0.728782 0.271844 0.000045
C23   C     C_1   0.146137 0.678563 0.323734 0.059787
C24   C     C_1   0.153669 0.636000 0.367309 -0.317811
C25   C     C_1   0.640664 0.364099 0.632696 -0.212729
C26   C     C_1   0.636690 0.321732 0.676461 0.117584
C27   C     C_1   0.633794 0.271633 0.728473 0.034909
C28   C     C_1   0.631684 0.229312 0.772304 0.032365
C29   C     C_1   0.628638 0.178977 0.824120 0.113113
C30   C     C_1   0.624478 0.136260 0.867592 -0.273539
H8    H     H_    0.323810 0.155575 0.438445 0.116750
C31   C     C_R   0.817765 0.393894 0.244419 -0.225339
C32   C     C_R   0.895903 0.401446 0.177901 -0.229548
C33   C     C_R   0.883245 0.338435 0.112526 0.409135
C34   C     C_R   0.790611 0.267284 0.114969 -0.280742
C35   C     C_R   0.713078 0.257442 0.182180 0.076569
C36   C     C_R   0.726536 0.322201 0.248264 0.134674
C37   C     C_R   0.619254 0.185096 0.183794 -0.284591
C38   C     C_R   0.538227 0.177936 0.251598 0.112277
C39   C     C_R   0.551577 0.242834 0.317711 0.113933
C40   C     C_R   0.645494 0.315092 0.316114 -0.293590
C41   C     C_R   0.447090 0.106069 0.255474 -0.170663
C42   C     C_R   0.369361 0.098704 0.322151 -0.115624
C43   C     C_R   0.382782 0.161883 0.386602 -0.111678
C44   C     C_R   0.473785 0.232960 0.384857 -0.153070
H9    H     H_    0.828955 0.445453 0.292551 0.142428
H10   H     H_    0.965243 0.457316 0.177628 0.174309
H11   H     H_    0.778108 0.220085 0.063487 0.158725
H12   H     H_    0.435966 0.054428 0.207422 0.117899
H13   H     H_    0.299840 0.043343 0.323918 0.117365
H14   H     H_    0.483906 0.279475 0.436973 0.100848
O11   O     O_R   0.775690 0.057750 0.940570 -0.568862
O12   O     O_R   0.441200 0.093570 0.087490 -0.585452
O13   O     O_R   0.265840 0.942320 0.059480 -0.581663
C45   C     C_R   0.609587 0.116412 0.115207 0.939361
O14   O     O_R   0.446270 0.067110 0.942790 -0.565771
O15   O     O_R   0.270950 0.915660 0.913750 -0.593563
C46   C     C_R   0.615489 0.084168 0.919480 0.954215
O16   O     O_R   0.770580 0.084400 0.086300 -0.587638
O17   O     O_3   0.602640 0.950400 0.990690 -0.271044
V3    V     V_3+5 0.329740 0.009200 0.001730 1.168704
O18   O     O_R   0.940900 0.906360 0.912450 -0.588094
C47   C     C_R   0.111042 0.883360 0.885030 0.927817
O19   O     O_R   0.935830 0.932820 0.057160 -0.570576
C48   C     C_R   0.103804 0.915904 0.080576 0.948748
V4    V     V_3+5 0.829130 0.990680 0.998180 1.163416
O20   O     O_3   0.106100 0.049590 0.009310 -0.250846
N1    N     N_R   0.962863 0.346802 0.043674 0.242095
O21   O     O_R   0.047842 0.413019 0.041360 -0.378538
O22   O     O_R   0.952183 0.288199 0.982702 -0.394556
S1    S     S_3+6 0.088227 0.509258 0.725740 -0.050391
O23   O     O_2   0.179501 0.462644 0.653828 -0.276703
O24   O     O_2   0.071980 0.455394 0.775952 -0.279185
O25   O     O_3   0.865842 0.537779 0.709756 -0.546910
H15   H     H_    0.812843 0.565587 0.759587 0.338105

loop_
_geom_bond_atom_site_label_1
_geom_bond_atom_site_label_2
_geom_bond_distance
_ccdc_geom_bond_type
C35   C36   1.423474 A    
O25   H15   0.990597 S    
H8    C43   1.082585 S    
C22   C23   1.478675 S    
C6    C7    1.386370 A    
O11   C46   1.313022 A    
C1    O6    1.312819 A    
O18   C47   1.303734 A    
S1    O23   1.499061 D    
V4    O20   2.159414 S    
C25   C26   1.245468 T    
C12   C15   1.416080 A    
C16   H6    1.082644 S    
C13   C14   1.421660 A    
C42   C43   1.388630 A    
C15   C16   1.392570 A    
C5    C6    1.399845 A    
C3    C24   1.504371 S    
O5    C3    1.311827 A    
C17   C18   1.393006 A    
V2    O10   2.159427 S    
C31   C36   1.414019 A    
C31   H9    1.081094 S    
C11   C47   1.490119 S    
V3    O20   1.697791 S    
C27   C28   1.245764 T    
O8    V2    1.851667 S    
O19   C48   1.315020 A    
C15   H5    1.081536 S    
O1    V2    2.002934 S    
C44   H14   1.081078 S    
C4    C14   1.490116 S    
O7    V1    2.140814 S    
O13   C48   1.311858 A    
C38   C41   1.416613 A    
C39   C40   1.419425 A    
O11   V4    1.837859 S    
C8    C9    1.414438 A    
H1    C17   1.082589 S    
C6    H2    1.082811 S    
C5    C10   1.430067 A    
C5    S1    1.774191 S    
C11   C12   1.416701 A    
O12   C45   1.299471 A    
O15   C47   1.294462 A    
C20   C21   1.478683 S    
O4    C2    1.299592 A    
C34   H11   1.080177 S    
C1    C25   1.502232 S    
C38   C39   1.425094 A    
C26   C27   1.476671 S    
C31   C32   1.392206 A    
C42   H13   1.082670 S    
C37   C45   1.489753 S    
O2    C1    1.311107 A    
C16   C17   1.388732 A    
S1    O24   1.503924 D    
C28   C29   1.476841 S    
C39   C44   1.416397 A    
C33   N1    1.441050 S    
O14   C46   1.311102 A    
O3    C4    1.293267 A    
C7    H3    1.082683 S    
O16   V4    2.006741 S    
C29   C30   1.245690 T    
O19   V4    1.851701 S    
O6    V2    1.837361 S    
C10   C14   1.427043 A    
O9    V2    1.998904 S    
C9    C11   1.419655 A    
O17   V3    2.140744 S    
C23   C24   1.246821 T    
O2    V1    1.865099 S    
C2    C40   1.489882 S    
O17   V4    1.710123 S    
C32   H10   1.082679 S    
C32   C33   1.397953 A    
S1    O25   1.681468 S    
O14   V3    1.865189 S    
C34   C35   1.416652 A    
C21   C22   1.246931 T    
C19   C48   1.504398 S    
O1    C2    1.296392 A    
O15   V3    2.006818 S    
O5    V1    1.845167 S    
O8    C3    1.314981 A    
C33   C34   1.402566 A    
C8    H4    1.079660 S    
C35   C37   1.420556 A    
C12   C13   1.424360 A    
O4    V1    2.005173 S    
O12   V3    2.005083 S    
O3    V1    2.006841 S    
V1    O10   1.697848 S    
C41   H12   1.081019 S    
C37   C38   1.419635 A    
C19   C20   1.246834 T    
O13   V3    1.845003 S    
C30   C46   1.502465 S    
O7    V2    1.711383 S    
C41   C42   1.392736 A    
C43   C44   1.392762 A    
C18   H7    1.081057 S    
C13   C18   1.417090 A    
C36   C40   1.420160 A    
C7    C8    1.388954 A    
N1    O21   1.301648 A    
C45   O16   1.296378 A    
N1    O22   1.301769 A    
C9    C10   1.427272 A    
O9    C4    1.307226 A    
O18   V4    1.998791 S    
