data_mof_unit_14952.cif
_audit_creation_date              2012-12-11T16:08:31-0500
_audit_creation_method            fapswitch 2.2
_symmetry_space_group_name_H-M    P1
_symmetry_Int_Tables_number       1
_space_group_crystal_system       triclinic
_cell_length_a                    7.23624
_cell_length_b                    21.402438
_cell_length_c                    23.457521
_cell_angle_alpha                 90.0
_cell_angle_beta                  90.000123
_cell_angle_gamma                 89.999958
_cell_volume                      3632.94082416

loop_
_atom_site_label
_atom_site_type_symbol
_atom_type_description
_atom_site_fract_x
_atom_site_fract_y
_atom_site_fract_z
_atom_type_partial_charge
O1    O     O_R   0.365470 0.806380 0.442440 -0.531868
O2    O     O_R   0.134530 0.193620 0.942440 -0.531868
O3    O     O_R   0.865470 0.693620 0.557560 -0.531868
O4    O     O_R   0.634530 0.306380 0.057560 -0.531868
O5    O     O_R   0.035730 0.813790 0.557160 -0.535861
O6    O     O_R   0.464270 0.186210 0.057160 -0.535861
O7    O     O_R   0.535730 0.686210 0.442840 -0.535861
O8    O     O_R   0.964270 0.313790 0.942840 -0.535861
C1    C     C_R   0.204246 0.828709 0.575859 0.715405
C2    C     C_R   0.295754 0.171291 0.075859 0.715405
C3    C     C_R   0.704246 0.671291 0.424140 0.715405
C4    C     C_R   0.795754 0.328709 0.924140 0.715406
O9    O     O_R   0.035760 0.813790 0.442850 -0.534359
O10   O     O_R   0.464240 0.186210 0.942850 -0.534359
O11   O     O_R   0.535760 0.686210 0.557150 -0.534359
O12   O     O_R   0.964240 0.313790 0.057150 -0.534360
O13   O     O_R   0.865450 0.693620 0.442430 -0.531825
O14   O     O_R   0.634550 0.306380 0.942430 -0.531825
O15   O     O_R   0.365450 0.806380 0.557570 -0.531825
O16   O     O_R   0.134550 0.193620 0.057570 -0.531825
C5    C     C_R   0.204268 0.828705 0.424150 0.711092
C6    C     C_R   0.295731 0.171295 0.924150 0.711092
C7    C     C_R   0.704269 0.671295 0.575850 0.711092
C8    C     C_R   0.795731 0.328705 0.075850 0.711092
O17   O     O_3   0.198970 0.710570 0.500000 -0.375034
O18   O     O_3   0.301030 0.289430 0.000000 -0.375034
O19   O     O_3   0.698970 0.789430 0.500000 -0.375034
O20   O     O_3   0.801030 0.210570 0.000000 -0.375034
V1    V     V_3+5 0.924120 0.757310 0.500000 1.425730
V2    V     V_3+5 0.575880 0.242690 0.000000 1.425730
V3    V     V_3+5 0.424120 0.742690 0.500000 1.425730
V4    V     V_3+5 0.075880 0.257310 0.000000 1.425730
C9    C     C_3   0.898437 0.559469 0.749878 0.093569
C10   C     C_3   0.601562 0.440531 0.249877 0.093567
C11   C     C_3   0.398436 0.940531 0.250122 0.093567
C12   C     C_3   0.101564 0.059469 0.750122 0.093568
C13   C     C_3   0.548524 0.536168 0.741102 0.093549
C14   C     C_3   0.951476 0.463832 0.241103 0.093549
C15   C     C_3   0.048523 0.963833 0.258897 0.093547
C16   C     C_3   0.451476 0.036168 0.758898 0.093548
C17   C     C_3   0.567962 0.490003 0.792545 -0.381371
C18   C     C_3   0.932036 0.509995 0.292546 -0.381371
C19   C     C_3   0.067962 0.009997 0.207455 -0.381373
C20   C     C_3   0.432039 0.990003 0.707455 -0.381371
H1    H     H_    0.884994 0.535757 0.842422 0.139735
H2    H     H_    0.614997 0.464244 0.342421 0.139735
H3    H     H_    0.384992 0.964242 0.157579 0.139735
H4    H     H_    0.115011 0.035758 0.657578 0.139736
H5    H     H_    0.447462 0.515118 0.710711 0.101511
H6    H     H_    0.052538 0.484882 0.210713 0.101512
H7    H     H_    0.947462 0.984883 0.289289 0.101514
H8    H     H_    0.552538 0.015118 0.789289 0.101510
H9    H     H_    0.543370 0.513998 0.833915 0.140078
H10   H     H_    0.956623 0.486000 0.333917 0.140079
H11   H     H_    0.043369 0.986002 0.166085 0.140079
H12   H     H_    0.456633 0.013997 0.666085 0.140078
H13   H     H_    0.460258 0.453070 0.788944 0.128991
H14   H     H_    0.039742 0.546928 0.288946 0.128991
H15   H     H_    0.960259 0.046931 0.211056 0.128992
H16   H     H_    0.539741 0.953069 0.711058 0.128991
C21   C     C_1   0.786373 0.374650 0.878632 -0.181160
C22   C     C_1   0.713626 0.625350 0.378632 -0.181160
C23   C     C_1   0.286374 0.125350 0.121368 -0.181160
C24   C     C_1   0.213627 0.874650 0.621368 -0.181160
C25   C     C_3   0.736366 0.542418 0.708454 0.285420
C26   C     C_3   0.763634 0.457582 0.208454 0.285419
C27   C     C_3   0.236366 0.957582 0.291546 0.285418
C28   C     C_3   0.263634 0.042418 0.791546 0.285420
C29   C     C_3   0.907687 0.512151 0.800774 -0.384601
C30   C     C_3   0.592309 0.487850 0.300773 -0.384601
C31   C     C_3   0.407687 0.987849 0.199226 -0.384602
C32   C     C_3   0.092314 0.012151 0.699225 -0.384602
C33   C     C_3   0.762517 0.459410 0.793192 0.244807
C34   C     C_3   0.737483 0.540590 0.293192 0.244806
C35   C     C_3   0.262517 0.040590 0.206808 0.244808
C36   C     C_3   0.237483 0.959410 0.706808 0.244807
C37   C     C_3   0.795665 0.427780 0.734438 -0.337618
C38   C     C_3   0.704339 0.572220 0.234438 -0.337617
C39   C     C_3   0.295667 0.072220 0.265562 -0.337618
C40   C     C_3   0.204332 0.927781 0.765562 -0.337618
C41   C     C_3   0.781169 0.476125 0.684925 -0.492605
C42   C     C_3   0.718833 0.523875 0.184925 -0.492604
C43   C     C_3   0.281170 0.023874 0.315075 -0.492605
C44   C     C_3   0.218830 0.976125 0.815075 -0.492606
C45   C     C_1   0.776568 0.412796 0.840301 -0.069314
C46   C     C_1   0.723431 0.587204 0.340301 -0.069315
C47   C     C_1   0.276569 0.087204 0.159699 -0.069314
C48   C     C_1   0.223432 0.912796 0.659699 -0.069314
C49   C     C_1   0.723031 0.588026 0.660357 0.008203
C50   C     C_1   0.776970 0.411974 0.160357 0.008203
C51   C     C_1   0.223030 0.911974 0.339643 0.008204
C52   C     C_1   0.276969 0.088026 0.839643 0.008203
C53   C     C_1   0.713542 0.625660 0.621606 -0.170109
C54   C     C_1   0.786459 0.374340 0.121606 -0.170109
C55   C     C_1   0.213541 0.874340 0.378394 -0.170109
C56   C     C_1   0.286458 0.125660 0.878394 -0.170109
H17   H     H_    0.913442 0.476948 0.660710 0.154344
H18   H     H_    0.586560 0.523053 0.160710 0.154344
H19   H     H_    0.413443 0.023052 0.339290 0.154345
H20   H     H_    0.086558 0.976948 0.839290 0.154345
H21   H     H_    0.672131 0.460976 0.654443 0.153896
H22   H     H_    0.827871 0.539023 0.154443 0.153896
H23   H     H_    0.172133 0.039024 0.345557 0.153896
H24   H     H_    0.327868 0.960976 0.845557 0.153896
H25   H     H_    0.934847 0.405672 0.733729 0.152234
H26   H     H_    0.565158 0.594330 0.233728 0.152234
H27   H     H_    0.434850 0.094328 0.266271 0.152234
H28   H     H_    0.065149 0.905673 0.766271 0.152234
H29   H     H_    0.029084 0.554168 0.725068 0.102680
H30   H     H_    0.470915 0.445832 0.225067 0.102680
H31   H     H_    0.529083 0.945832 0.274932 0.102682
H32   H     H_    0.970916 0.054168 0.774932 0.102681
H33   H     H_    0.048704 0.491435 0.802653 0.127531
H34   H     H_    0.451294 0.508566 0.302650 0.127531
H35   H     H_    0.548703 0.008564 0.197347 0.127531
H36   H     H_    0.951298 0.991436 0.697346 0.127531
H37   H     H_    0.692281 0.389992 0.727744 0.154553
H38   H     H_    0.807726 0.610007 0.227744 0.154553
H39   H     H_    0.192284 0.110008 0.272256 0.154554
H40   H     H_    0.307715 0.889992 0.772256 0.154554
N1    N     N_3   0.889459 0.624817 0.768981 -0.647651
H41   H     H_    0.023616 0.639896 0.778193 0.216501
H42   H     H_    0.816378 0.628729 0.807129 0.229363
N2    N     N_3   0.610541 0.375183 0.268981 -0.647652
H43   H     H_    0.476383 0.360104 0.278192 0.216502
H44   H     H_    0.683618 0.371272 0.307129 0.229361
N3    N     N_3   0.389457 0.875182 0.231019 -0.647653
H45   H     H_    0.523615 0.860103 0.221809 0.216503
H46   H     H_    0.316381 0.871270 0.192870 0.229359
N4    N     N_3   0.110542 0.124817 0.731019 -0.647651
H47   H     H_    0.976385 0.139896 0.721806 0.216500
H48   H     H_    0.183626 0.128730 0.692872 0.229365
N5    N     N_3   0.473253 0.597062 0.758270 -0.648230
H49   H     H_    0.523537 0.610296 0.798123 0.233673
H50   H     H_    0.330575 0.592147 0.763485 0.208742
N6    N     N_3   0.026747 0.402938 0.258270 -0.648231
H51   H     H_    0.976459 0.389703 0.298123 0.233675
H52   H     H_    0.169424 0.407853 0.263487 0.208742
N7    N     N_3   0.973249 0.902939 0.241730 -0.648227
H53   H     H_    0.023543 0.889704 0.201878 0.233676
H54   H     H_    0.830572 0.907857 0.236511 0.208740
N8    N     N_3   0.526747 0.097062 0.741730 -0.648230
H55   H     H_    0.476466 0.110294 0.701876 0.233671
H56   H     H_    0.669425 0.092147 0.736516 0.208742

loop_
_geom_bond_atom_site_label_1
_geom_bond_atom_site_label_2
_ccdc_geom_bond_type
O17   V3    S    
C15   H7    S    
C40   H40   S    
O1    C5    A    
C16   N8    S    
O19   V1    S    
C1    C24   S    
O13   V1    S    
O3    C7    A    
C2    C23   S    
O1    V3    S    
C32   C36   S    
C3    C22   S    
O15   V3    S    
C18   H14   S    
C28   C44   S    
C9    C25   S    
C26   C50   S    
C41   H21   S    
C30   H34   S    
C25   C49   S    
C22   C46   T    
C29   H33   S    
O5    C1    A    
C43   H23   S    
O9    V1    S    
C38   H38   S    
O10   V2    S    
C14   C18   S    
C12   N4    S    
O4    C8    A    
C52   C56   T    
O2    V4    S    
O3    V1    S    
C38   C42   S    
C30   C34   S    
C25   C41   S    
C1    O15   A    
C14   C26   S    
C2    O16   A    
C13   C25   S    
C12   H32   S    
C29   C33   S    
O14   V2    S    
C14   N6    S    
C10   C30   S    
C19   H15   S    
O11   C7    A    
C11   C31   S    
O12   C8    A    
C43   H19   S    
C9    N1    S    
C42   H18   S    
C10   C26   S    
C15   C27   S    
H4    C32   S    
C50   C54   T    
O5    V1    S    
C19   C35   S    
C15   N7    S    
C18   C34   S    
O7    V3    S    
H1    C29   S    
C40   C44   S    
C44   H20   S    
O9    C5    A    
N6    H52   S    
O18   V4    S    
C15   C19   S    
C5    C55   S    
C16   H8    S    
C17   C33   S    
C31   H35   S    
C49   C53   T    
C7    C53   S    
C39   H39   S    
O8    V4    S    
N4    H48   S    
N3    H46   S    
O2    C6    A    
C8    C54   S    
C26   C42   S    
C13   H5    S    
C20   H12   S    
O7    C3    A    
C37   C41   S    
O8    C4    A    
C17   H9    S    
C27   C51   S    
C40   H28   S    
C42   H22   S    
C39   H27   S    
C27   C43   S    
C34   C46   S    
C11   N3    S    
C33   C45   S    
N1    H41   S    
C21   C45   T    
C19   H11   S    
O6    V2    S    
C31   C35   S    
C34   C38   S    
N5    H49   S    
C10   H30   S    
C13   N5    S    
C9    H29   S    
H3    C31   S    
N3    H45   S    
N1    H42   S    
C11   H31   S    
N2    H44   S    
O16   V4    S    
C35   C47   S    
C36   C48   S    
C3    O13   A    
C10   N2    S    
C23   C47   T    
C6    C56   S    
C36   C40   S    
N6    H51   S    
O6    C2    A    
N7    H53   S    
C12   C28   S    
O11   V3    S    
C14   H6    S    
C9    C29   S    
O12   V4    S    
C32   H36   S    
C37   H37   S    
C38   H26   S    
O10   C6    A    
O20   V2    S    
N4    H47   S    
C17   H13   S    
C18   H10   S    
C39   C43   S    
C4    C21   S    
N7    H54   S    
C41   H17   S    
C20   H16   S    
C44   H24   S    
C37   H25   S    
C28   C52   S    
N8    H56   S    
C13   C17   S    
H2    C30   S    
C11   C27   S    
C51   C55   T    
C16   C20   S    
C16   C28   S    
C4    O14   A    
N5    H50   S    
C33   C37   S    
N8    H55   S    
C20   C36   S    
C35   C39   S    
C24   C48   T    
O4    V2    S    
C12   C32   S    
N2    H43   S    
