data_mof_unit_47959.cif
_audit_creation_date              2013-03-05T16:06:28-0500
_audit_creation_method            fapswitch 2.2
_symmetry_space_group_name_H-M    P1
_symmetry_Int_Tables_number       1
_space_group_crystal_system       triclinic
_cell_length_a                    25.83773
_cell_length_b                    25.929285
_cell_length_c                    18.234526
_cell_angle_alpha                 89.960965
_cell_angle_beta                  134.730987
_cell_angle_gamma                 90.139637
_cell_volume                      8678.6498581

loop_
_atom_site_label
_atom_site_type_symbol
_atom_site_description
_atom_site_fract_x
_atom_site_fract_y
_atom_site_fract_z
_atom_type_partial_charge
Zn1   Zn    Zn3+2 0.337540 0.293760 0.587540 0.996467
Zn2   Zn    Zn3+2 0.337540 0.706240 0.587540 0.986074
Zn3   Zn    Zn3+2 0.837540 0.793760 0.587540 0.992950
Zn4   Zn    Zn3+2 0.837540 0.206240 0.587540 0.994021
Zn5   Zn    Zn3+2 0.162450 0.293770 0.412470 1.024395
Zn6   Zn    Zn3+2 0.162450 0.706230 0.412470 1.019030
Zn7   Zn    Zn3+2 0.662450 0.793770 0.412470 1.050933
Zn8   Zn    Zn3+2 0.662450 0.206230 0.412470 1.002245
Zn9   Zn    Zn3+2 0.249980 0.206220 0.412450 1.149711
Zn10  Zn    Zn3+2 0.249980 0.793780 0.412450 1.137372
Zn11  Zn    Zn3+2 0.749980 0.706220 0.412450 1.156684
Zn12  Zn    Zn3+2 0.749980 0.293780 0.412450 1.136013
Zn13  Zn    Zn3+2 0.250000 0.206220 0.587540 1.001918
Zn14  Zn    Zn3+2 0.250000 0.793780 0.587540 1.005294
Zn15  Zn    Zn3+2 0.750000 0.706220 0.587540 0.988761
Zn16  Zn    Zn3+2 0.750000 0.293780 0.587540 1.008350
O1    O     O_3   0.249990 0.249990 0.500000 -0.544937
O2    O     O_3   0.249990 0.750010 0.500000 -0.543325
O3    O     O_3   0.749990 0.749990 0.500000 -0.551107
O4    O     O_3   0.749990 0.250010 0.500000 -0.544141
O5    O     O_R   0.163790 0.219360 0.561280 -0.659503
O6    O     O_R   0.163790 0.780640 0.561280 -0.664235
O7    O     O_R   0.663790 0.719360 0.561280 -0.666089
O8    O     O_R   0.663790 0.280640 0.561280 -0.659370
O9    O     O_R   0.397470 0.280620 0.561260 -0.619096
O10   O     O_R   0.397470 0.719380 0.561260 -0.631750
O11   O     O_R   0.897470 0.780620 0.561260 -0.606848
O12   O     O_R   0.897470 0.219380 0.561260 -0.632056
O13   O     O_R   0.188730 0.366850 0.438750 -0.649473
O14   O     O_R   0.188730 0.633150 0.438750 -0.639033
O15   O     O_R   0.688730 0.866850 0.438750 -0.597110
O16   O     O_R   0.688730 0.133150 0.438750 -0.663034
O17   O     O_R   0.249980 0.133140 0.438710 -0.540523
O18   O     O_R   0.249980 0.866860 0.438710 -0.547749
O19   O     O_R   0.749980 0.633140 0.438710 -0.539683
O20   O     O_R   0.749980 0.366860 0.438710 -0.544052
O21   O     O_R   0.102500 0.280640 0.266310 -0.609232
O22   O     O_R   0.102500 0.719360 0.266310 -0.623674
O23   O     O_R   0.602500 0.780640 0.266310 -0.614579
O24   O     O_R   0.602500 0.219360 0.266310 -0.634219
O25   O     O_R   0.336220 0.219350 0.733700 -0.627072
O26   O     O_R   0.336220 0.780650 0.733700 -0.647852
O27   O     O_R   0.836220 0.719350 0.733700 -0.632163
O28   O     O_R   0.836220 0.280650 0.733700 -0.630058
O29   O     O_R   0.163750 0.219360 0.266290 -0.585538
O30   O     O_R   0.163750 0.780640 0.266290 -0.594192
O31   O     O_R   0.663750 0.719360 0.266290 -0.588660
O32   O     O_R   0.663750 0.280640 0.266290 -0.589109
O33   O     O_R   0.397490 0.280620 0.733700 -0.604134
O34   O     O_R   0.397490 0.719380 0.733700 -0.614398
O35   O     O_R   0.897490 0.780620 0.733700 -0.608357
O36   O     O_R   0.897490 0.219380 0.733700 -0.601695
O37   O     O_R   0.311270 0.366840 0.561280 -0.667964
O38   O     O_R   0.311270 0.633160 0.561280 -0.655892
O39   O     O_R   0.811270 0.866840 0.561280 -0.686427
O40   O     O_R   0.811270 0.133160 0.561280 -0.641934
O41   O     O_R   0.249990 0.133140 0.561260 -0.650224
O42   O     O_R   0.249990 0.866860 0.561260 -0.623065
O43   O     O_R   0.749990 0.633140 0.561260 -0.652115
O44   O     O_R   0.749990 0.366860 0.561260 -0.634525
O45   O     O_R   0.102520 0.280640 0.438750 -0.623822
O46   O     O_R   0.102520 0.719360 0.438750 -0.621622
O47   O     O_R   0.602520 0.780640 0.438750 -0.605761
O48   O     O_R   0.602520 0.219360 0.438750 -0.628498
O49   O     O_R   0.336190 0.219350 0.438710 -0.594684
O50   O     O_R   0.336190 0.780650 0.438710 -0.578337
O51   O     O_R   0.836190 0.719350 0.438710 -0.580330
O52   O     O_R   0.836190 0.280650 0.438710 -0.576459
C1    C     C_R   0.108966 0.249676 0.500156 0.912278
C2    C     C_R   0.109077 0.750015 0.500422 0.918949
C3    C     C_R   0.609468 0.750106 0.501024 0.922578
C4    C     C_R   0.608807 0.250202 0.499927 0.925020
C5    C     C_R   0.391185 0.249596 0.500200 0.917820
C6    C     C_R   0.391988 0.751007 0.501690 0.824383
C7    C     C_R   0.891999 0.748839 0.501823 0.872464
C8    C     C_R   0.891865 0.250903 0.501570 0.820283
C9    C     C_R   0.249945 0.391017 0.502591 0.923433
C10   C     C_R   0.249905 0.608904 0.501791 0.928358
C11   C     C_R   0.749756 0.891078 0.500699 0.969109
C12   C     C_R   0.749874 0.108929 0.500248 0.912405
C13   C     C_R   0.249669 0.108883 0.499292 0.938323
C14   C     C_R   0.248430 0.891157 0.498457 0.983784
C15   C     C_R   0.749215 0.608898 0.498856 0.937352
C16   C     C_R   0.749143 0.391184 0.499145 0.971354
C17   C     C_R   0.109501 0.250218 0.217680 0.962240
C18   C     C_R   0.109072 0.750040 0.217550 0.969333
C19   C     C_R   0.609324 0.750195 0.217622 1.018479
C20   C     C_R   0.609269 0.249954 0.217686 0.982550
C21   C     C_R   0.391884 0.249490 0.782226 0.895745
C22   C     C_R   0.391156 0.750000 0.782242 0.898941
C23   C     C_R   0.891372 0.750067 0.782167 0.867150
C24   C     C_R   0.891128 0.249587 0.782441 0.875120
C25   C     C_3   0.476908 0.190912 0.939997 0.779304
C26   C     C_3   0.484372 0.806178 0.940240 0.730797
C27   C     C_3   0.977609 0.692401 0.939353 0.793150
C28   C     C_3   0.982811 0.306386 0.940375 0.773629
C29   C     C_3   0.538887 0.194054 0.062358 0.160439
C30   C     C_3   0.538961 0.805754 0.061651 0.171460
C31   C     C_3   0.043104 0.695983 0.061128 0.141876
C32   C     C_3   0.046957 0.303254 0.062052 0.144361
H1    H     H_    0.521192 0.171205 0.093320 0.163716
H2    H     H_    0.517739 0.828561 0.087098 0.145656
H3    H     H_    0.032199 0.669423 0.097052 0.165100
H4    H     H_    0.036581 0.331481 0.096575 0.165032
H5    H     H_    0.373934 0.244236 0.908779 0.182715
H6    H     H_    0.371204 0.753806 0.908576 0.097252
H7    H     H_    0.869489 0.745949 0.903876 0.187798
H8    H     H_    0.868792 0.252601 0.902122 0.147043
C33   C     C_3   0.418403 0.271625 0.937945 0.103627
C34   C     C_3   0.416774 0.728015 0.939066 0.132302
C35   C     C_3   0.916904 0.771420 0.937867 0.131059
C36   C     C_3   0.917926 0.228615 0.939314 0.137330
C37   C     C_3   0.521328 0.279553 0.940826 0.227777
C38   C     C_3   0.513065 0.712261 0.937294 0.291303
C39   C     C_3   0.019041 0.783078 0.940999 0.259304
C40   C     C_3   0.015751 0.213518 0.939265 0.271015
C41   C     C_3   0.451082 0.248789 0.897599 -0.303972
C42   C     C_3   0.449413 0.749783 0.897698 -0.280215
C43   C     C_3   0.950036 0.750043 0.897259 -0.304820
C44   C     C_3   0.950900 0.249734 0.898346 -0.250211
H9    H     H_    0.546434 0.252870 0.925542 0.190795
H10   H     H_    0.536503 0.727198 0.908195 0.117739
H11   H     H_    0.046815 0.756597 0.929847 0.193964
H12   H     H_    0.043343 0.233277 0.919772 0.117069
C45   C     C_3   0.551319 0.251252 0.101986 -0.342931
C46   C     C_3   0.550218 0.748708 0.101649 -0.352342
C47   C     C_3   0.050362 0.751883 0.101693 -0.342285
C48   C     C_3   0.050708 0.248378 0.101917 -0.345495
C49   C     C_3   0.476212 0.270964 0.060461 0.577356
C50   C     C_3   0.475413 0.729532 0.062240 0.576771
C51   C     C_3   0.973171 0.766165 0.059746 0.599177
C52   C     C_3   0.973585 0.235852 0.060672 0.592275
C53   C     C_3   0.578829 0.282865 0.059743 -0.023635
C54   C     C_3   0.574002 0.714616 0.056993 -0.029781
C55   C     C_3   0.074578 0.788154 0.059650 -0.012561
C56   C     C_3   0.071143 0.209623 0.058616 -0.005782
H13   H     H_    0.627745 0.261796 0.088352 0.176295
H14   H     H_    0.620166 0.735841 0.076969 0.181381
H15   H     H_    0.127011 0.772210 0.091110 0.184751
H16   H     H_    0.124259 0.222597 0.088279 0.186880
C57   C     C_3   0.525694 0.238451 0.611936 0.168723
C58   C     C_3   0.526674 0.737464 0.613307 0.203373
C59   C     C_3   0.027838 0.750409 0.615562 0.183111
C60   C     C_3   0.025851 0.235775 0.611779 0.202914
H17   H     H_    0.528514 0.196067 0.623785 0.194580
H18   H     H_    0.539729 0.771570 0.660889 0.176237
H19   H     H_    0.037470 0.710438 0.644987 0.191212
H20   H     H_    0.039821 0.269661 0.660350 0.182546
C61   C     C_3   0.585792 0.250996 0.613756 -0.007286
C62   C     C_3   0.586563 0.735315 0.612963 0.015257
C63   C     C_3   0.086379 0.760317 0.613588 0.006086
C64   C     C_3   0.085287 0.233013 0.610757 0.023597
H21   H     H_    0.606435 0.290911 0.641770 0.106702
H22   H     H_    0.607174 0.695276 0.629040 0.148376
H23   H     H_    0.103077 0.801410 0.629077 0.104209
H24   H     H_    0.104119 0.192632 0.623764 0.142506
H25   H     H_    0.474666 0.330416 0.525577 0.013944
H26   H     H_    0.424648 0.671998 0.438789 0.013187
H27   H     H_    0.950686 0.831806 0.483039 0.021345
H28   H     H_    0.923805 0.171718 0.437040 0.018001
H29   H     H_    0.542757 0.334136 0.491331 -0.046265
H30   H     H_    0.521435 0.670139 0.460415 -0.030792
H31   H     H_    0.028905 0.831496 0.467171 -0.047936
H32   H     H_    0.018016 0.170192 0.453035 -0.029929
C65   C     C_3   0.451149 0.302744 0.461758 0.363126
C66   C     C_3   0.430027 0.711097 0.419942 0.345905
C67   C     C_3   0.939154 0.796372 0.439094 0.323720
C68   C     C_3   0.928335 0.210995 0.417946 0.339811
C69   C     C_3   0.435974 0.204200 0.430446 0.095021
C70   C     C_3   0.460126 0.806446 0.476810 0.096715
C71   C     C_3   0.947110 0.697389 0.452157 0.102509
C72   C     C_3   0.960230 0.305975 0.477402 0.106843
C73   C     C_3   0.448684 0.249304 0.499765 -0.240234
C74   C     C_3   0.449631 0.750791 0.501364 -0.257043
C75   C     C_3   0.949414 0.748815 0.501165 -0.244184
C76   C     C_3   0.949027 0.250222 0.500565 -0.252570
H33   H     H_    0.437710 0.167188 0.463383 0.154853
H34   H     H_    0.484777 0.831617 0.544323 0.147509
H35   H     H_    0.956807 0.664670 0.500336 0.146824
H36   H     H_    0.984105 0.330904 0.544879 0.140775
C77   C     C_3   0.551256 0.250339 0.500426 -0.177063
C78   C     C_3   0.552745 0.750031 0.502857 -0.210956
C79   C     C_3   0.052065 0.749868 0.501915 -0.174782
C80   C     C_3   0.051929 0.249390 0.501608 -0.190681
C81   C     C_3   0.504645 0.300511 0.448206 0.325301
C82   C     C_3   0.493655 0.708242 0.426372 0.320977
C83   C     C_3   0.996732 0.794739 0.432993 0.341168
C84   C     C_3   0.991169 0.208809 0.422393 0.323138
C85   C     C_3   0.499612 0.202753 0.438762 -0.448939
C86   C     C_3   0.515638 0.803844 0.468889 -0.394479
C87   C     C_3   0.010355 0.697357 0.459520 -0.453919
C88   C     C_3   0.016744 0.303704 0.471406 -0.436501
H37   H     H_    0.530851 0.166489 0.477481 0.206812
H38   H     H_    0.556634 0.835140 0.515861 0.230981
H39   H     H_    0.048120 0.665220 0.509899 0.209609
H40   H     H_    0.058830 0.333900 0.521867 0.189242
H41   H     H_    0.478078 0.201254 0.360293 0.255043
H42   H     H_    0.488617 0.811400 0.388480 0.262731
H43   H     H_    0.989566 0.688941 0.382796 0.255274
H44   H     H_    0.991128 0.313172 0.392317 0.260292
C89   C     C_3   0.208880 0.030835 0.527619 0.245616
C90   C     C_3   0.198857 0.971041 0.512825 0.243541
C91   C     C_3   0.709870 0.530751 0.529287 0.248192
C92   C     C_3   0.700569 0.470906 0.515359 0.244692
H45   H     H_    0.154004 0.049023 0.474837 0.109708
H46   H     H_    0.140594 0.964257 0.441798 0.139536
H47   H     H_    0.654774 0.548554 0.477082 0.107425
H48   H     H_    0.642217 0.463526 0.445338 0.136951
H49   H     H_    0.352748 0.045154 0.658940 0.147800
H50   H     H_    0.335997 0.963858 0.658680 0.178839
H51   H     H_    0.853199 0.545470 0.658139 0.144085
H52   H     H_    0.838091 0.464038 0.659088 0.163390
C93   C     C_3   0.330337 0.030495 0.583762 0.063310
C94   C     C_3   0.327553 0.970352 0.590408 0.047810
C95   C     C_3   0.830311 0.530940 0.582630 0.072410
C96   C     C_3   0.828333 0.470755 0.589756 0.042823
C97   C     C_3   0.205559 0.030682 0.381854 0.223830
C98   C     C_3   0.211119 0.968957 0.384607 0.213417
C99   C     C_3   0.704222 0.530476 0.381416 0.217022
C100  C     C_3   0.710663 0.468876 0.384436 0.215979
C101  C     C_3   0.249741 0.051286 0.497113 -0.352354
C102  C     C_3   0.247207 0.948930 0.495945 -0.344674
C103  C     C_3   0.749453 0.551324 0.496923 -0.352467
C104  C     C_3   0.747908 0.448975 0.496519 -0.335971
H53   H     H_    0.322810 0.454899 0.485879 0.095169
H54   H     H_    0.332704 0.538831 0.503926 0.107659
H55   H     H_    0.853698 0.962175 0.551806 0.101960
H56   H     H_    0.844225 0.046384 0.522536 0.134152
C105  C     C_3   0.249766 0.448718 0.506476 -0.253294
C106  C     C_3   0.249701 0.551070 0.504197 -0.287785
C107  C     C_3   0.748472 0.948876 0.499547 -0.253140
C108  C     C_3   0.749490 0.051224 0.500405 -0.294982
C109  C     C_3   0.267483 0.469638 0.444801 -0.036214
C110  C     C_3   0.273611 0.529596 0.451487 -0.005111
C111  C     C_3   0.795638 0.970330 0.480283 -0.022782
C112  C     C_3   0.787673 0.030466 0.467315 -0.035021
H57   H     H_    0.365267 0.460224 0.646061 0.060108
H58   H     H_    0.362494 0.544413 0.652660 0.096913
H59   H     H_    0.841482 0.952707 0.667037 0.069187
H60   H     H_    0.854747 0.034151 0.653281 0.086149
C113  C     C_3   0.174615 0.470255 0.460508 0.328492
C114  C     C_3   0.171877 0.529586 0.446399 0.337871
C115  C     C_3   0.668730 0.971003 0.410957 0.358825
C116  C     C_3   0.669060 0.030012 0.424155 0.329961
H61   H     H_    0.129171 0.453684 0.382431 0.109101
H62   H     H_    0.136123 0.536878 0.362725 0.115680
H63   H     H_    0.653541 0.964484 0.337356 0.112492
H64   H     H_    0.637202 0.047822 0.346786 0.071253
C117  C     C_3   0.312596 0.470049 0.620515 0.082970
C118  C     C_3   0.308379 0.530592 0.618692 0.050487
C119  C     C_3   0.785839 0.969832 0.609322 0.025803
C120  C     C_3   0.796701 0.029546 0.612622 0.093860
O53   O     O_3   0.415943 0.161927 0.906365 -0.632845
C121  C     C_3   0.431105 0.109274 0.935688 -0.283286
H65   H     H_    0.444112 0.103720 0.007545 0.156746
H66   H     H_    0.475110 0.092778 0.945175 0.193878
H67   H     H_    0.381134 0.086548 0.874311 0.205470
O54   O     O_3   0.433290 0.848391 0.893275 -0.631534
C122  C     C_3   0.384875 0.851458 0.905042 -0.351244
H68   H     H_    0.405609 0.836613 0.977740 0.168091
H69   H     H_    0.331884 0.833298 0.838911 0.233155
H70   H     H_    0.373088 0.892817 0.902985 0.205740
O55   O     O_3   0.918646 0.663029 0.911208 -0.627559
C123  C     C_3   0.935390 0.610601 0.942023 -0.279982
H71   H     H_    0.948941 0.605354 0.014365 0.178011
H72   H     H_    0.979722 0.594774 0.951660 0.183091
H73   H     H_    0.886014 0.587131 0.881623 0.200105
O56   O     O_3   0.925758 0.338987 0.910062 -0.627581
C124  C     C_3   0.946543 0.391337 0.939564 -0.256528
H74   H     H_    0.994377 0.403279 0.954016 0.189354
H75   H     H_    0.957453 0.399376 0.009198 0.181787
H76   H     H_    0.900163 0.415997 0.876450 0.201361
N1    N     N_R   0.606469 0.335681 0.098243 0.250065
O57   O     O_R   0.647652 0.356162 0.088926 -0.286711
O58   O     O_R   0.596211 0.361252 0.148166 -0.239113
N2    N     N_R   0.602394 0.662996 0.103495 0.262040
O59   O     O_R   0.669323 0.651656 0.153196 -0.277912
O60   O     O_R   0.560106 0.626294 0.084905 -0.173096
N3    N     N_R   0.093106 0.841917 0.095307 0.247986
O61   O     O_R   0.131761 0.868289 0.087086 -0.280448
O62   O     O_R   0.079249 0.862357 0.144709 -0.239021
N4    N     N_R   0.083181 0.156278 0.095425 0.275524
O63   O     O_R   0.147508 0.136165 0.151530 -0.265016
O64   O     O_R   0.029581 0.126350 0.061309 -0.163309
O65   O     O_3   0.389488 0.321352 0.895679 -0.642226
C125  C     C_3   0.315545 0.325389 0.841579 0.004645
H77   H     H_    0.305215 0.310955 0.887611 0.166151
H78   H     H_    0.281171 0.305132 0.766264 0.178698
H79   H     H_    0.300262 0.366680 0.826330 0.246170
O66   O     O_3   0.391168 0.676974 0.900435 -0.506560
C126  C     C_3   0.315941 0.671795 0.838359 0.093148
H80   H     H_    0.284672 0.693214 0.764904 0.145687
H81   H     H_    0.301582 0.684077 0.880437 0.155377
H82   H     H_    0.300722 0.630552 0.819270 0.235141
O67   O     O_3   0.894251 0.823035 0.904792 -0.641100
C127  C     C_3   0.818040 0.828786 0.833246 -0.069239
H83   H     H_    0.798754 0.820821 0.870566 0.223335
H84   H     H_    0.789480 0.804211 0.763932 0.152107
H85   H     H_    0.804340 0.869379 0.806921 0.231429
O68   O     O_3   0.900074 0.175657 0.911022 -0.519891
C128  C     C_3   0.825659 0.165712 0.849118 0.141873
H86   H     H_    0.792234 0.182600 0.771068 0.145099
H87   H     H_    0.808666 0.179224 0.887174 0.158844
H88   H     H_    0.816638 0.123531 0.840946 0.241320
N5    N     N_R   0.487641 0.320868 0.110587 0.240648
O69   O     O_R   0.454527 0.363360 0.059783 -0.289209
O70   O     O_R   0.525128 0.320941 0.208518 -0.378381
N6    N     N_R   0.487050 0.679921 0.113583 0.256598
O71   O     O_R   0.529104 0.680064 0.212936 -0.393295
O72   O     O_R   0.445150 0.639823 0.063225 -0.268960
N7    N     N_R   0.979123 0.812456 0.113962 0.243352
O73   O     O_R   0.932899 0.850350 0.065233 -0.317179
O74   O     O_R   0.022519 0.810974 0.213606 -0.392524
N8    N     N_R   0.978696 0.190410 0.116202 0.241182
O75   O     O_R   0.025463 0.190866 0.216400 -0.403142
O76   O     O_R   0.927566 0.155693 0.068815 -0.352205
O77   O     O_3   0.533743 0.258414 0.692802 -0.573835
C129  C     C_3   0.579358 0.301835 0.746567 -0.140435
H89   H     H_    0.562305 0.334557 0.694568 0.099571
H90   H     H_    0.637257 0.291473 0.795265 0.194163
H91   H     H_    0.575064 0.315248 0.799863 0.218135
O78   O     O_3   0.531397 0.696690 0.670691 -0.565370
C130  C     C_3   0.515438 0.646466 0.629188 -0.241230
H92   H     H_    0.530726 0.638917 0.586927 0.094041
H93   H     H_    0.457094 0.637232 0.579891 0.189951
H94   H     H_    0.546759 0.618717 0.694229 0.174532
O79   O     O_3   0.033295 0.779522 0.687525 -0.552997
C131  C     C_3   0.063767 0.829345 0.712199 -0.139111
H95   H     H_    0.039866 0.852376 0.643380 0.088410
H96   H     H_    0.123960 0.827031 0.767177 0.180110
H97   H     H_    0.052130 0.850343 0.752247 0.205225
O80   O     O_3   0.029964 0.194783 0.668277 -0.570773
C132  C     C_3   0.012765 0.144788 0.625385 -0.231718
H98   H     H_    0.027471 0.137189 0.582359 0.095440
H99   H     H_    0.954277 0.136182 0.576309 0.195518
H100  H     H_    0.043699 0.116618 0.689695 0.173550
N9    N     N_R   0.648437 0.216986 0.684557 0.217725
O81   O     O_R   0.708775 0.236443 0.769807 -0.474511
O82   O     O_R   0.643185 0.167490 0.668754 -0.394403
N10   N     N_R   0.649751 0.767064 0.696201 0.210575
O83   O     O_R   0.710392 0.744312 0.774235 -0.426624
O84   O     O_R   0.643748 0.816519 0.700566 -0.418588
N11   N     N_R   0.152371 0.730600 0.694340 0.215654
O85   O     O_R   0.210586 0.755020 0.773862 -0.474668
O86   O     O_R   0.150936 0.680451 0.695296 -0.435015
N12   N     N_R   0.149854 0.263022 0.696201 0.211103
O87   O     O_R   0.209197 0.238579 0.772840 -0.427642
O88   O     O_R   0.145914 0.312376 0.704494 -0.444802
N13   N     N_R   0.364886 0.205527 0.321884 0.266746
O89   O     O_R   0.351922 0.237947 0.256129 -0.291254
O90   O     O_R   0.318350 0.168400 0.286803 -0.290307
N14   N     N_R   0.392942 0.832737 0.386098 0.279675
O91   O     O_R   0.361908 0.822359 0.292681 -0.291322
O92   O     O_R   0.372047 0.873716 0.400439 -0.237286
N15   N     N_R   0.877037 0.686871 0.345396 0.281099
O93   O     O_R   0.860479 0.708680 0.266778 -0.292760
O94   O     O_R   0.838341 0.647468 0.327896 -0.251548
N16   N     N_R   0.893408 0.332257 0.386011 0.276921
O95   O     O_R   0.863403 0.321815 0.293132 -0.285276
O96   O     O_R   0.871883 0.373230 0.399370 -0.244547
O97   O     O_3   0.508747 0.167253 0.908054 -0.613931
C133  C     C_3   0.459693 0.151423 0.803707 -0.175513
H101  H     H_    0.405337 0.139177 0.769555 0.195349
H102  H     H_    0.483669 0.117469 0.799791 0.221901
H103  H     H_    0.454408 0.182116 0.756381 0.162060
O98   O     O_3   0.529443 0.814211 0.921650 -0.642076
C134  C     C_3   0.497340 0.843359 0.832617 -0.055805
H104  H     H_    0.496655 0.884808 0.846958 0.220153
H105  H     H_    0.441695 0.829992 0.762993 0.133038
H106  H     H_    0.531353 0.839349 0.816603 0.178348
O99   O     O_3   0.006068 0.669387 0.901928 -0.617186
C135  C     C_3   0.954555 0.650243 0.799627 -0.164691
H107  H     H_    0.901780 0.637958 0.770806 0.197615
H108  H     H_    0.978313 0.615607 0.797041 0.213956
H109  H     H_    0.945616 0.679051 0.746642 0.161558
O100  O     O_3   0.014250 0.325193 0.904552 -0.611347
C136  C     C_3   0.965154 0.341581 0.800695 -0.183939
H110  H     H_    0.992707 0.372247 0.796394 0.244311
H111  H     H_    0.913298 0.357824 0.769739 0.191577
H112  H     H_    0.954718 0.309888 0.750863 0.131371
O101  O     O_3   0.380392 0.318006 0.368460 -0.533054
C137  C     C_3   0.366093 0.369584 0.374162 -0.221065
H113  H     H_    0.412933 0.395812 0.409764 0.120163
H114  H     H_    0.350738 0.371559 0.417734 0.159203
H115  H     H_    0.320080 0.383754 0.294793 0.220956
O102  O     O_3   0.364532 0.725796 0.318792 -0.514470
C138  C     C_3   0.305867 0.692908 0.278292 -0.158442
H116  H     H_    0.296098 0.691554 0.328649 0.126161
H117  H     H_    0.315244 0.653385 0.266244 0.151821
H118  H     H_    0.255932 0.708199 0.202177 0.217456
O103  O     O_3   0.867261 0.796730 0.338165 -0.539731
C139  C     C_3   0.825684 0.837854 0.324702 -0.137591
H119  H     H_    0.848485 0.875381 0.329099 0.177703
H120  H     H_    0.822426 0.836373 0.382245 0.157782
H121  H     H_    0.769461 0.834615 0.246856 0.220099
O104  O     O_3   0.861620 0.225385 0.317394 -0.517831
C140  C     C_3   0.803421 0.192490 0.279518 -0.142354
H122  H     H_    0.795783 0.191005 0.332287 0.125225
H123  H     H_    0.811785 0.152953 0.266137 0.160466
H124  H     H_    0.752458 0.207718 0.204359 0.210793
O105  O     O_3   0.466008 0.301011 0.342072 -0.541112
C141  C     C_3   0.472903 0.349171 0.313551 -0.066799
H125  H     H_    0.529866 0.355310 0.351556 0.160795
H126  H     H_    0.455798 0.381431 0.332543 0.120863
H127  H     H_    0.436711 0.349463 0.228780 0.222340
O106  O     O_3   0.467057 0.714081 0.327111 -0.560571
C142  C     C_3   0.448655 0.665349 0.279172 -0.086063
H128  H     H_    0.414106 0.642219 0.282555 0.120928
H129  H     H_    0.498790 0.643394 0.315528 0.180036
H130  H     H_    0.417005 0.670957 0.196654 0.203738
O107  O     O_3   0.962635 0.788641 0.329555 -0.550581
C143  C     C_3   0.948539 0.837310 0.283588 -0.055024
H131  H     H_    0.000200 0.855848 0.317065 0.174496
H132  H     H_    0.919440 0.863523 0.292666 0.131354
H133  H     H_    0.913089 0.831874 0.199649 0.211785
O108  O     O_3   0.963575 0.216655 0.322994 -0.564205
C144  C     C_3   0.939665 0.169198 0.269180 -0.066122
H134  H     H_    0.906467 0.146175 0.275186 0.121211
H135  H     H_    0.987109 0.145844 0.298616 0.190039
H136  H     H_    0.904636 0.177032 0.186139 0.208588
O109  O     O_3   0.249391 0.043810 0.632397 -0.565538
C145  C     C_3   0.203970 0.062856 0.643498 -0.165285
H137  H     H_    0.160619 0.034818 0.614885 0.139178
H138  H     H_    0.179067 0.100283 0.602918 0.165096
H139  H     H_    0.237615 0.069551 0.726669 0.177715
O110  O     O_3   0.217894 0.948256 0.600452 -0.536705
C146  C     C_3   0.156759 0.925337 0.573938 -0.219534
H140  H     H_    0.134385 0.893221 0.518022 0.169975
H141  H     H_    0.113274 0.954121 0.541107 0.121780
H142  H     H_    0.174088 0.909088 0.644717 0.176154
O111  O     O_3   0.751162 0.544020 0.634238 -0.566444
C147  C     C_3   0.706510 0.563387 0.646508 -0.170615
H143  H     H_    0.663795 0.535249 0.619882 0.137183
H144  H     H_    0.680829 0.600494 0.604904 0.165280
H145  H     H_    0.740960 0.570790 0.729718 0.179379
O112  O     O_3   0.721333 0.448391 0.604378 -0.539137
C148  C     C_3   0.660928 0.426221 0.580769 -0.214592
H146  H     H_    0.638511 0.393169 0.526853 0.165445
H147  H     H_    0.617206 0.454986 0.546807 0.110781
H148  H     H_    0.679200 0.411489 0.653046 0.184538
N17   N     N_R   0.230919 0.050491 0.334664 0.281285
O113  O     O_R   0.293856 0.072215 0.386701 -0.242253
O114  O     O_R   0.191623 0.040308 0.237781 -0.214998
N18   N     N_R   0.255968 0.951824 0.365716 0.265211
O115  O     O_R   0.320860 0.969822 0.418634 -0.230631
O116  O     O_R   0.228992 0.920521 0.289934 -0.189109
N19   N     N_R   0.727808 0.551036 0.332306 0.278223
O117  O     O_R   0.791635 0.570931 0.383839 -0.227211
O118  O     O_R   0.685607 0.543796 0.233708 -0.211234
N20   N     N_R   0.755020 0.452344 0.364361 0.263947
O119  O     O_R   0.819849 0.470325 0.417049 -0.232579
O120  O     O_R   0.727899 0.421276 0.288237 -0.186247
N21   N     N_R   0.128987 0.049705 0.313021 0.204311
O121  O     O_R   0.112372 0.095087 0.271057 -0.258459
O122  O     O_R   0.079362 0.025845 0.301821 -0.393588
N22   N     N_R   0.136962 0.946920 0.298716 0.256783
O123  O     O_R   0.099526 0.961498 0.204308 -0.179609
O124  O     O_R   0.109716 0.910536 0.312563 -0.379520
N23   N     N_R   0.627584 0.548743 0.314265 0.204250
O125  O     O_R   0.610227 0.594301 0.273010 -0.254628
O126  O     O_R   0.578791 0.524124 0.304012 -0.397175
N24   N     N_R   0.636722 0.446287 0.299403 0.258968
O127  O     O_R   0.598584 0.460342 0.204504 -0.174343
O128  O     O_R   0.610069 0.410182 0.314638 -0.385361
O129  O     O_3   0.605528 0.174865 0.099405 -0.631463
C149  C     C_3   0.628719 0.129690 0.158344 -0.167513
H149  H     H_    0.585641 0.099596 0.116357 0.161678
H150  H     H_    0.647369 0.138489 0.233518 0.158964
H151  H     H_    0.675317 0.113786 0.173678 0.243609
O130  O     O_3   0.607638 0.827247 0.109868 -0.605520
C150  C     C_3   0.605409 0.881738 0.110192 -0.097030
H152  H     H_    0.599540 0.895478 0.161766 0.157146
H153  H     H_    0.560679 0.897719 0.031548 0.178473
H154  H     H_    0.657223 0.897118 0.139400 0.217542
O131  O     O_3   0.109338 0.683120 0.090743 -0.646685
C151  C     C_3   0.138958 0.636989 0.147255 -0.130528
H155  H     H_    0.098642 0.605027 0.106091 0.189855
H156  H     H_    0.160334 0.643314 0.224843 0.174020
H157  H     H_    0.184523 0.625292 0.156621 0.211847
O132  O     O_3   0.114541 0.313354 0.093471 -0.613108
C152  C     C_3   0.149415 0.357391 0.156404 -0.064241
H158  H     H_    0.168683 0.350172 0.232450 0.147136
H159  H     H_    0.113494 0.391752 0.118235 0.185747
H160  H     H_    0.197404 0.365705 0.169514 0.205905
N25   N     N_R   0.381611 0.052360 0.580303 0.265525
O133  O     O_R   0.396626 0.101398 0.598055 -0.446617
O134  O     O_R   0.421201 0.024167 0.576523 -0.195228
N26   N     N_R   0.390216 0.942837 0.620768 0.247359
O135  O     O_R   0.454954 0.953022 0.710724 -0.383428
O136  O     O_R   0.383128 0.903840 0.569526 -0.343373
N27   N     N_R   0.880802 0.553441 0.578070 0.266563
O137  O     O_R   0.895659 0.602476 0.596292 -0.451645
O138  O     O_R   0.919414 0.525855 0.571654 -0.199449
N28   N     N_R   0.890679 0.443925 0.618242 0.239308
O139  O     O_R   0.955871 0.455672 0.706027 -0.379549
O140  O     O_R   0.883345 0.403967 0.568561 -0.352835
N29   N     N_R   0.317166 0.446717 0.698764 0.279212
O141  O     O_R   0.369716 0.460918 0.794695 -0.337422
O142  O     O_R   0.279629 0.405930 0.678896 -0.402924
N30   N     N_R   0.300050 0.552223 0.684420 0.271052
O143  O     O_R   0.350089 0.583244 0.759099 -0.331411
O144  O     O_R   0.249082 0.536667 0.678023 -0.222911
N31   N     N_R   0.750653 0.954431 0.643702 0.283178
O145  O     O_R   0.783625 0.965343 0.737852 -0.313216
O146  O     O_R   0.700559 0.918918 0.595580 -0.331195
N32   N     N_R   0.791844 0.058840 0.676574 0.255079
O147  O     O_R   0.850746 0.080043 0.761243 -0.343858
O148  O     O_R   0.731288 0.063806 0.652435 -0.263186
N33   N     N_R   0.219428 0.450338 0.338370 0.237699
O149  O     O_R   0.150612 0.441337 0.280803 -0.444248
O150  O     O_R   0.243360 0.450864 0.295100 -0.415040
N34   N     N_R   0.236837 0.554330 0.352526 0.247763
O151  O     O_R   0.167360 0.548530 0.271923 -0.409535
O152  O     O_R   0.275633 0.579188 0.342977 -0.470883
N35   N     N_R   0.782914 0.945493 0.396244 0.256238
O153  O     O_R   0.731601 0.911583 0.335300 -0.492143
O154  O     O_R   0.826105 0.956411 0.384869 -0.384119
N36   N     N_R   0.752358 0.048261 0.364294 0.239783
O155  O     O_R   0.690526 0.029115 0.280643 -0.448001
O156  O     O_R   0.787640 0.079479 0.356236 -0.457493
O157  O     O_3   0.166132 0.458794 0.527950 -0.489760
C153  C     C_3   0.101805 0.430594 0.478354 -0.108113
H161  H     H_    0.105028 0.391184 0.458259 0.159868
H162  H     H_    0.052664 0.450618 0.408387 0.124758
H163  H     H_    0.095699 0.426754 0.532528 0.209041
O158  O     O_3   0.143882 0.554627 0.481988 -0.516616
C154  C     C_3   0.069174 0.566522 0.399641 -0.164143
H164  H     H_    0.036875 0.532865 0.348141 0.120804
H165  H     H_    0.061770 0.599339 0.353809 0.172850
H166  H     H_    0.047416 0.578268 0.432141 0.200291
O159  O     O_3   0.617461 0.947039 0.407659 -0.493861
C155  C     C_3   0.553216 0.932474 0.305854 -0.181953
H167  H     H_    0.563601 0.899168 0.279413 0.175589
H168  H     H_    0.530316 0.964779 0.250283 0.090754
H169  H     H_    0.511656 0.920497 0.305210 0.205589
O160  O     O_3   0.638046 0.041613 0.462769 -0.490274
C156  C     C_3   0.567616 0.063120 0.386492 -0.085370
H170  H     H_    0.529365 0.036555 0.320369 0.124682
H171  H     H_    0.568657 0.100794 0.358662 0.149838
H172  H     H_    0.546226 0.070056 0.421171 0.202772
O161  O     O_3   0.454267 0.233445 0.092015 -0.656614
C157  C     C_3   0.390563 0.246377 0.068366 -0.167489
H173  H     H_    0.342739 0.226285 0.996720 0.185055
H174  H     H_    0.379133 0.288272 0.060641 0.172849
H175  H     H_    0.396954 0.232067 0.131721 0.226959
O162  O     O_3   0.454728 0.767054 0.095099 -0.674987
C158  C     C_3   0.389381 0.755336 0.068037 -0.228869
H176  H     H_    0.344770 0.780304 0.003176 0.170983
H177  H     H_    0.397407 0.764429 0.134910 0.248111
H178  H     H_    0.371449 0.714612 0.046195 0.168468
O163  O     O_3   0.951615 0.723056 0.082465 -0.665119
C159  C     C_3   0.892092 0.733087 0.070368 -0.131437
H179  H     H_    0.860075 0.697038 0.044924 0.195256
H180  H     H_    0.854425 0.763266 0.012322 0.154589
H181  H     H_    0.912796 0.744135 0.145940 0.230099
O164  O     O_3   0.952873 0.280421 0.081236 -0.656806
C160  C     C_3   0.893782 0.272216 0.070741 -0.148110
H182  H     H_    0.863295 0.308879 0.045798 0.190448
H183  H     H_    0.914931 0.262058 0.146861 0.233282
H184  H     H_    0.854585 0.242404 0.012851 0.145077
O165  O     O_3   0.514831 0.324405 0.889074 -0.609872
C161  C     C_3   0.479726 0.367367 0.885213 0.133286
H185  H     H_    0.488338 0.371854 0.953268 0.232088
H186  H     H_    0.420961 0.366491 0.813180 0.205808
H187  H     H_    0.502192 0.402625 0.881507 0.150889
O166  O     O_3   0.486986 0.660952 0.900473 -0.461288
C162  C     C_3   0.521264 0.637005 0.874181 -0.052452
H188  H     H_    0.504825 0.595819 0.856507 0.195445
H189  H     H_    0.581637 0.638622 0.938920 0.152374
H190  H     H_    0.503472 0.654926 0.804045 0.156875
O167  O     O_3   0.011966 0.827331 0.887241 -0.579783
C163  C     C_3   0.972209 0.869813 0.874712 0.086333
H191  H     H_    0.982171 0.878804 0.942882 0.228851
H192  H     H_    0.913209 0.865349 0.804783 0.160647
H193  H     H_    0.989662 0.904493 0.861050 0.134482
O168  O     O_3   0.990510 0.163706 0.892807 -0.471272
C164  C     C_3   0.032849 0.143707 0.877015 -0.083445
H194  H     H_    0.015888 0.103242 0.849978 0.187317
H195  H     H_    0.091881 0.143630 0.949670 0.158090
H196  H     H_    0.023289 0.165880 0.816184 0.170960

loop_
_geom_bond_atom_site_label_1
_geom_bond_atom_site_label_2
_geom_bond_distance
_ccdc_geom_bond_type
C31   H3    1.114019 S    
C162  H188  1.109195 S    
C53   H13   1.114851 S    
Zn5   O21   1.950947 S    
C58   H18   1.111881 S    
O159  C155  1.415865 S    
C59   C75   1.584017 S    
C56   H16   1.114606 S    
C138  H118  1.108773 S    
O132  C152  1.404974 S    
C34   C42   1.578397 S    
C151  H156  1.110675 S    
N9    O81   1.299047 A    
C148  H146  1.110735 S    
O68   C128  1.407329 S    
C156  H172  1.109176 S    
C55   H15   1.115280 S    
H26   C66   1.109626 S    
N4    O63   1.300452 A    
C70   H34   1.114694 S    
C113  H61   1.111586 S    
O42   C14   1.282240 A    
C157  H173  1.109322 S    
C113  O157  1.423807 S    
C132  H100  1.109020 S    
C91   O111  1.429763 S    
C32   H4    1.114888 S    
C135  H107  1.107473 S    
O46   C2    1.287463 A    
C89   O109  1.429472 S    
C142  H130  1.105560 S    
C52   N8    1.497320 S    
C61   H21   1.109556 S    
C136  H112  1.108480 S    
C121  H66   1.109527 S    
C94   C102  1.596139 S    
C49   N5    1.488898 S    
N16   O95   1.301606 A    
O34   C22   1.283023 A    
C159  H181  1.108767 S    
C92   H48   1.108737 S    
C45   C53   1.592934 S    
Zn3   O3    1.964837 S    
C108  C120  1.574619 S    
C63   H23   1.108106 S    
C56   N4    1.472227 S    
Zn16  O28   1.956319 S    
Zn5   O13   1.954061 S    
O28   C24   1.296592 A    
N34   O151  1.300207 A    
C57   H17   1.112498 S    
C15   C103  1.493422 S    
C27   O55   1.434833 S    
Zn11  O31   1.956412 S    
C37   C53   1.543273 S    
Zn4   O40   1.954019 S    
N27   O138  1.299417 A    
O27   C23   1.291833 A    
O11   C7    1.287902 A    
C160  H184  1.109063 S    
C71   N15   1.476282 S    
N31   O146  1.299942 A    
C97   C101  1.620875 S    
C66   C74   1.568822 S    
C39   H11   1.111652 S    
C130  H92   1.103271 S    
C119  C120  1.566535 S    
C53   N1    1.472809 S    
N10   O83   1.301127 A    
C139  H120  1.110766 S    
C27   O99   1.439290 S    
C36   C44   1.573786 S    
C46   C50   1.593765 S    
C27   C43   1.601415 S    
N8    O75   1.300338 A    
C30   H2    1.107161 S    
C51   N7    1.492781 S    
H49   C93   1.114121 S    
C92   O112  1.427571 S    
C146  H140  1.111948 S    
C95   C96   1.569553 S    
N19   O118  1.302569 A    
O16   C12   1.287648 A    
N15   O93   1.301807 A    
Zn16  O4    1.959070 S    
C164  H196  1.111809 S    
N14   O91   1.301535 A    
Zn12  O4    1.957959 S    
C161  H185  1.102001 S    
Zn13  O5    1.951712 S    
Zn2   O10   1.945528 S    
C114  H62   1.110676 S    
C11   C107  1.498915 S    
C114  O158  1.424591 S    
C147  H143  1.108356 S    
Zn6   O14   1.956636 S    
O47   C3    1.288794 A    
Zn7   O3    1.969943 S    
C124  H75   1.109686 S    
O101  C137  1.411593 S    
C100  N24   1.491099 S    
C32   O132  1.426857 S    
C138  H116  1.110972 S    
C22   C42   1.495829 S    
O131  C151  1.403952 S    
O112  C148  1.414867 S    
C70   C74   1.588903 S    
C128  H88   1.105835 S    
C85   H41   1.112566 S    
N32   O147  1.300719 A    
C125  H79   1.107536 S    
C25   O97   1.438654 S    
C66   C82   1.565664 S    
O43   C15   1.288097 A    
C122  H69   1.106423 S    
N36   O155  1.300976 A    
C14   C102  1.498415 S    
C9    C105  1.498030 S    
C135  H109  1.109288 S    
C109  N33   1.471394 S    
H31   C83   1.120515 S    
O108  C144  1.415431 S    
O24   C20   1.289443 A    
C140  H123  1.110331 S    
C67   O103  1.423299 S    
O168  C164  1.412420 S    
C125  H78   1.110242 S    
Zn6   O46   1.946920 S    
C71   C75   1.583222 S    
Zn10  O2    1.957959 S    
Zn11  O19   1.954160 S    
N26   O135  1.301824 A    
H27   C67   1.112930 S    
C106  C110  1.566405 S    
C134  H106  1.109086 S    
C27   C31   1.585362 S    
C88   H44   1.111275 S    
Zn9   O49   1.949885 S    
C147  H144  1.111363 S    
Zn4   O4    1.969943 S    
C45   C49   1.592663 S    
C95   N27   1.482608 S    
C155  H167  1.110896 S    
C46   C54   1.590626 S    
C149  H149  1.109508 S    
C162  H190  1.111557 S    
Zn7   O23   1.950947 S    
C78   C86   1.555400 S    
N29   O142  1.300512 A    
N32   O148  1.299959 A    
C105  C117  1.584630 S    
O99   C135  1.414558 S    
C64   N12   1.467239 S    
C28   O56   1.432375 S    
C154  H166  1.109055 S    
O25   C21   1.290888 A    
O109  C145  1.414044 S    
C110  N34   1.469159 S    
O29   C17   1.283074 A    
C89   C101  1.590182 S    
C107  C119  1.585209 S    
O105  C141  1.410695 S    
C51   O163  1.432619 S    
C72   C88   1.540348 S    
Zn12  O52   1.951666 S    
C117  C118  1.572586 S    
O161  C157  1.418105 S    
O22   C18   1.289620 A    
C163  H192  1.107473 S    
C143  H131  1.111659 S    
C126  H81   1.108777 S    
C31   O131  1.425930 S    
C6    C74   1.493574 S    
C150  H153  1.110215 S    
O53   C121  1.417767 S    
Zn13  O41   1.954837 S    
C133  H101  1.108201 S    
O50   C6    1.289148 A    
C108  C112  1.570982 S    
N30   O143  1.300449 A    
C35   C43   1.575905 S    
C113  C114  1.553154 S    
Zn16  O44   1.954205 S    
Zn1   O37   1.956593 S    
C129  H90   1.109270 S    
C52   O164  1.431279 S    
Zn3   O39   1.956593 S    
C127  H85   1.107046 S    
N30   O144  1.300693 A    
C123  H71   1.109521 S    
N5    O70   1.300936 A    
H29   C81   1.120273 S    
Zn6   O22   1.951631 S    
C109  C110  1.558466 S    
H28   C68   1.108339 S    
C67   C83   1.568651 S    
H58   C118  1.116199 S    
C71   H35   1.115578 S    
C25   C41   1.603840 S    
C12   C108  1.496275 S    
H32   C84   1.119409 S    
C69   H33   1.115917 S    
C144  H135  1.111084 S    
N6    O72   1.301060 A    
O129  C149  1.407637 S    
C132  H99   1.108805 S    
C47   C51   1.598733 S    
Zn10  O50   1.951666 S    
N28   O140  1.299534 A    
C35   O67   1.415388 S    
C64   H24   1.108612 S    
C158  H178  1.107605 S    
O80   C132  1.413858 S    
C111  N35   1.470475 S    
H25   C65   1.114443 S    
O130  C150  1.414412 S    
C121  H67   1.109093 S    
C97   C98   1.604843 S    
C84   O108  1.419905 S    
O5    C1    1.284009 A    
N18   O115  1.296018 A    
C130  H93   1.108612 S    
O31   C19   1.285399 A    
N23   O125  1.299622 A    
N25   O133  1.301320 A    
C106  C114  1.573792 S    
N12   O88   1.301338 A    
O111  C147  1.414079 S    
C155  H169  1.109195 S    
N3    O61   1.301883 A    
C60   C76   1.590467 S    
C80   C88   1.553572 S    
C152  H158  1.110922 S    
C38   C54   1.552176 S    
C57   O77   1.433304 S    
Zn5   O45   1.945486 S    
N16   O96   1.300473 A    
Zn7   O47   1.945486 S    
C29   O129  1.426601 S    
Zn8   O48   1.946920 S    
C37   C41   1.591194 S    
C35   C51   1.588714 S    
N15   O94   1.300638 A    
C21   C41   1.495511 S    
C39   C43   1.593911 S    
N7    O74   1.300976 A    
C33   C49   1.589156 S    
C145  H137  1.108752 S    
C23   C43   1.491424 S    
O51   C7    1.283893 A    
N35   O153  1.299092 A    
C25   C29   1.587371 S    
C116  O160  1.422678 S    
O8    C4    1.285051 A    
C67   C75   1.565030 S    
C141  H125  1.111360 S    
C68   C76   1.567069 S    
H5    C33   1.115243 S    
O166  C162  1.414401 S    
C157  H175  1.109397 S    
C32   C48   1.569232 S    
H7    C35   1.117611 S    
C143  H133  1.108097 S    
C99   N23   1.495209 S    
C131  H95   1.105768 S    
C138  H117  1.110682 S    
C37   O165  1.430989 S    
N31   O145  1.301542 A    
C63   C79   1.569839 S    
O52   C8    1.288962 A    
C39   O167  1.434651 S    
N4    O64   1.299985 A    
O40   C12   1.288753 A    
Zn13  O1    1.957811 S    
C93   C101  1.580072 S    
Zn14  O6    1.949929 S    
Zn3   O11   1.946963 S    
O54   C122  1.412634 S    
C24   C44   1.502534 S    
Zn15  O27   1.955061 S    
C60   C64   1.550694 S    
C140  H122  1.110630 S    
C117  N29   1.475751 S    
C26   C42   1.601479 S    
C26   O54   1.445070 S    
C39   C55   1.544973 S    
C123  H73   1.109196 S    
C28   C32   1.581352 S    
C59   C63   1.558834 S    
N1    O58   1.296093 A    
C135  H108  1.108645 S    
O9    C5    1.288104 A    
C142  H129  1.111722 S    
C105  C109  1.578339 S    
C87   H39   1.109774 S    
C136  H111  1.108655 S    
C98   N22   1.490856 S    
C153  H161  1.108726 S    
C85   H37   1.111228 S    
O13   C9    1.286085 A    
N2    O59   1.301694 A    
C145  H139  1.108963 S    
O165  C161  1.408389 S    
C89   H45   1.113977 S    
C17   C48   1.500664 S    
C107  C111  1.586498 S    
O18   C14   1.283701 A    
C160  H182  1.108996 S    
C60   O80   1.430854 S    
O6    C2    1.283765 A    
C19   C46   1.503265 S    
C72   C76   1.587856 S    
C128  H87   1.107704 S    
Zn9   O17   1.954160 S    
Zn9   O29   1.956412 S    
C137  H113  1.113240 S    
C68   C84   1.568652 S    
N34   O152  1.301150 A    
N20   O120  1.302484 A    
C158  H176  1.109181 S    
Zn12  O32   1.955153 S    
N23   O126  1.302410 A    
Zn13  O25   1.955061 S    
C33   C41   1.575467 S    
O55   C123  1.417944 S    
C62   C78   1.572052 S    
C93   C94   1.569462 S    
N6    O71   1.300762 A    
Zn15  O3    1.957811 S    
Zn11  O3    1.959219 S    
C36   O68   1.423887 S    
C55   N3    1.468013 S    
C88   H40   1.109337 S    
N10   O84   1.301238 A    
C4    C77   1.493415 S    
C48   C56   1.581924 S    
N33   O149  1.299603 A    
C40   C44   1.578948 S    
N17   O114  1.302351 A    
Zn5   O1    1.969943 S    
O110  C146  1.415230 S    
C26   C30   1.579740 S    
N8    O76   1.300264 A    
C115  C116  1.548091 S    
C115  O159  1.424234 S    
C152  H160  1.105707 S    
C93   N25   1.481365 S    
O66   C126  1.406907 S    
C78   C82   1.564296 S    
N21   O122  1.302394 A    
C90   C102  1.590304 S    
O98   C134  1.414499 S    
C72   N16   1.475407 S    
O35   C23   1.276218 A    
C38   O166  1.426474 S    
C77   C85   1.565002 S    
C28   O100  1.438348 S    
O26   C22   1.290701 A    
C164  H195  1.112357 S    
N14   O92   1.300310 A    
C161  H186  1.106292 S    
C111  C112  1.569131 S    
O32   C20   1.280445 A    
C69   C85   1.541854 S    
C96   N28   1.475097 S    
C72   H36   1.114933 S    
C127  H84   1.110871 S    
O78   C130  1.413577 S    
O167  C163  1.412661 S    
C124  H74   1.110236 S    
O162  C158  1.418284 S    
C61   C77   1.572089 S    
C25   O53   1.434320 S    
C131  H97   1.109286 S    
C70   N14   1.475376 S    
C151  H155  1.109682 S    
N9    O82   1.301222 A    
C148  H147  1.111178 S    
N13   O89   1.300440 A    
Zn14  O42   1.954205 S    
C137  H114  1.111362 S    
C161  H187  1.108979 S    
C7    C75   1.491937 S    
N19   O117  1.297721 A    
O7    C3    1.283111 A    
C8    C76   1.490033 S    
C71   C87   1.542557 S    
O104  C140  1.413671 S    
C29   C45   1.580291 S    
Zn2   O38   1.954019 S    
C140  H124  1.108934 S    
C99   C100  1.603178 S    
Zn3   O35   1.951676 S    
N24   O127  1.303445 A    
C31   C47   1.577356 S    
C137  H115  1.105674 S    
C97   N21   1.497197 S    
C97   N17   1.491649 S    
C69   N13   1.475092 S    
H8    C36   1.117960 S    
C95   C103  1.579570 S    
C163  H191  1.102505 S    
O37   C9    1.290760 A    
C150  H152  1.111653 S    
C112  N36   1.470565 S    
O65   C125  1.407914 S    
C79   C83   1.566579 S    
O39   C11   1.293836 A    
C132  H98   1.104040 S    
N26   O136  1.299459 A    
C40   O168  1.425100 S    
C91   C103  1.589112 S    
C134  H105  1.108136 S    
Zn8   O4    1.964837 S    
C36   C52   1.587509 S    
C119  N31   1.476149 S    
C98   N18   1.491105 S    
C49   O161  1.433425 S    
C155  H168  1.111683 S    
H60   C120  1.116889 S    
C149  H150  1.110574 S    
C162  H189  1.111933 S    
C16   C104  1.498912 S    
C57   C73   1.579670 S    
C90   O110  1.427576 S    
C156  H171  1.109455 S    
O12   C8    1.284992 A    
O67   C127  1.409571 S    
Zn8   O24   1.951631 S    
O164  C160  1.414260 S    
C146  H141  1.111098 S    
N33   O150  1.300688 A    
C154  H165  1.110813 S    
O19   C15   1.275865 A    
C40   H12   1.118813 S    
C18   C47   1.501959 S    
C108  C116  1.575677 S    
Zn15  O43   1.954837 S    
C128  H86   1.110881 S    
C59   O79   1.432462 S    
C82   O106  1.421449 S    
C139  H119  1.109578 S    
N35   O154  1.301042 A    
H54   C110  1.116439 S    
N36   O156  1.300999 A    
C40   C56   1.552762 S    
C81   O105  1.422249 S    
C10   C106  1.500319 S    
C149  H151  1.107355 S    
C13   C101  1.494050 S    
N24   O128  1.301397 A    
H53   C109  1.116126 S    
C58   C62   1.552946 S    
C143  H132  1.110172 S    
O102  C138  1.410340 S    
C30   O130  1.425537 S    
O79   C131  1.410134 S    
N3    O62   1.294654 A    
C105  C113  1.580658 S    
C133  H102  1.108612 S    
N11   O86   1.301229 A    
C66   O102  1.421178 S    
C61   N9    1.458909 S    
C34   C50   1.597398 S    
C20   C45   1.499272 S    
C99   C103  1.621110 S    
C116  H64   1.116932 S    
C30   C46   1.583188 S    
O56   C124  1.418144 S    
C123  H72   1.109148 S    
N5    O69   1.300658 A    
C124  H76   1.109461 S    
O107  C143  1.413787 S    
C145  H138  1.111417 S    
O106  C142  1.414365 S    
C151  H157  1.107173 S    
O23   C19   1.290132 A    
O38   C10   1.288930 A    
C133  H103  1.109261 S    
C157  H174  1.109029 S    
N11   O85   1.301006 A    
Zn2   O2    1.969943 S    
C54   N2    1.475244 S    
C89   C90   1.563295 S    
Zn14  O2    1.959070 S    
C134  H104  1.109400 S    
C60   H20   1.111875 S    
C122  H70   1.108891 S    
C50   O162  1.430135 S    
C96   C104  1.596981 S    
C144  H134  1.110743 S    
N12   O87   1.301197 A    
C57   C61   1.563031 S    
O103  C139  1.409016 S    
C58   C74   1.591107 S    
C59   H19   1.111998 S    
C121  H65   1.109357 S    
Zn4   O36   1.950992 S    
C163  H193  1.108995 S    
O21   C17   1.291791 A    
C158  H177  1.108951 S    
C87   H43   1.111549 S    
C125  H77   1.109153 S    
H51   C95   1.113997 S    
C65   C73   1.569978 S    
C154  H164  1.111024 S    
O49   C5    1.282389 A    
N18   O116  1.302779 A    
N29   O141  1.301682 A    
C83   O107  1.421081 S    
C152  H159  1.110649 S    
C99   N19   1.491098 S    
H52   C96   1.115103 S    
Zn10  O30   1.955153 S    
C118  N30   1.470336 S    
C142  H128  1.111412 S    
Zn12  O20   1.954793 S    
Zn2   O34   1.950992 S    
O157  C153  1.412199 S    
C100  N20   1.491426 S    
C86   H42   1.111322 S    
Zn14  O26   1.956319 S    
C33   O65   1.416882 S    
C126  H80   1.110496 S    
Zn15  O7    1.951712 S    
N20   O119  1.295277 A    
C34   O66   1.423528 S    
Zn16  O8    1.949929 S    
C92   C104  1.591387 S    
Zn1   O9    1.946963 S    
C3    C78   1.489326 S    
H57   C117  1.114983 S    
N21   O121  1.301286 A    
C139  H121  1.108766 S    
C48   C52   1.590495 S    
Zn4   O12   1.945528 S    
Zn11  O51   1.949885 S    
C98   C102  1.611569 S    
C160  H183  1.107763 S    
C141  H126  1.110222 S    
C147  H145  1.108997 S    
O17   C13   1.275730 A    
Zn6   O2    1.964837 S    
C146  H142  1.109282 S    
Zn7   O15   1.954061 S    
H59   C119  1.115567 S    
Zn8   O16   1.956636 S    
C126  H82   1.106904 S    
O160  C156  1.413619 S    
C131  H96   1.110500 S    
C150  H154  1.108627 S    
O163  C159  1.416304 S    
H30   C82   1.118974 S    
C77   C81   1.562482 S    
N22   O123  1.303514 A    
N7    O73   1.300836 A    
C156  H170  1.107019 S    
H50   C94   1.115055 S    
C91   H47   1.113977 S    
C65   C81   1.567196 S    
C80   C84   1.568563 S    
C38   H10   1.117661 S    
C107  C115  1.582233 S    
C129  H89   1.107126 S    
C141  H127  1.108740 S    
N27   O137  1.301146 A    
C94   N26   1.476589 S    
N1    O57   1.301836 A    
C37   H9    1.110899 S    
Zn10  O18   1.954793 S    
C63   N11   1.462911 S    
C136  H110  1.104972 S    
C38   C42   1.583692 S    
C153  H162  1.109779 S    
C129  H91   1.109118 S    
C68   O104  1.423338 S    
Zn9   O1    1.959219 S    
C159  H179  1.109032 S    
N2    O60   1.299412 A    
C62   H22   1.109000 S    
O41   C13   1.288499 A    
C64   C80   1.571774 S    
C122  H68   1.092302 S    
C100  C104  1.613083 S    
C144  H136  1.106671 S    
O100  C136  1.412896 S    
H6    C34   1.106600 S    
O45   C1    1.289584 A    
N28   O139  1.302047 A    
C127  H83   1.109378 S    
C69   C73   1.577707 S    
C28   C44   1.590952 S    
O33   C21   1.278408 A    
C153  H163  1.108942 S    
C62   N10   1.467701 S    
C54   H14   1.115273 S    
O15   C11   1.282955 A    
C79   C87   1.560301 S    
H55   C111  1.115075 S    
O97   C133  1.413962 S    
C70   C86   1.541030 S    
C65   O101  1.420553 S    
N22   O124  1.302298 A    
C130  H94   1.109019 S    
C58   O78   1.430708 S    
N25   O134  1.299390 A    
O44   C16   1.282711 A    
N17   O113  1.298618 A    
C50   N6    1.491891 S    
O20   C16   1.283450 A    
C159  H180  1.110156 S    
O10   C6    1.286565 A    
C148  H148  1.109133 S    
O48   C4    1.286809 A    
C5    C73   1.491281 S    
O77   C129  1.409411 S    
C47   C55   1.592171 S    
C115  H63   1.114628 S    
H56   C112  1.116239 S    
O36   C24   1.279694 A    
C86   H38   1.110800 S    
C1    C80   1.492464 S    
O14   C10   1.288950 A    
C2    C79   1.492335 S    
Zn1   O1    1.964837 S    
N13   O90   1.301643 A    
C164  H194  1.109213 S    
C90   H46   1.108710 S    
O158  C154  1.413631 S    
C120  N32   1.469755 S    
C91   C92   1.562972 S    
C106  C118  1.576830 S    
Zn1   O33   1.951676 S    
C26   O98   1.438329 S    
C29   H1    1.113694 S    
O30   C18   1.281975 A    
