data_mof_unit_39493.cif
_audit_creation_date              2012-12-11T14:45:58-0500
_audit_creation_method            fapswitch 2.2
_symmetry_space_group_name_H-M    P1
_symmetry_Int_Tables_number       1
_space_group_crystal_system       triclinic
_cell_length_a                    10.910268
_cell_length_b                    10.929881
_cell_length_c                    18.810028
_cell_angle_alpha                 89.594937
_cell_angle_beta                  90.458122
_cell_angle_gamma                 119.653853
_cell_volume                      1949.2095679

loop_
_atom_site_label
_atom_site_type_symbol
_atom_type_description
_atom_site_fract_x
_atom_site_fract_y
_atom_site_fract_z
_atom_type_partial_charge
C1    C     C_R   0.865205 0.636850 0.603742 0.562496
C2    C     C_R   0.432697 0.639651 0.777599 -0.116306
C3    C     C_R   0.405966 0.625894 0.705699 -0.118352
C4    C     C_R   0.311582 0.664083 0.677498 0.044010
C5    C     C_R   0.832174 0.150434 0.818172 -0.030557
C6    C     C_R   0.084158 0.218992 0.824184 -0.089482
C7    C     C_R   0.206886 0.240182 0.790926 -0.124224
C8    C     C_R   0.206460 0.217434 0.718294 -0.131232
C9    C     C_R   0.085176 0.179576 0.678047 -0.082136
C10   C     C_R   0.961799 0.165696 0.709768 0.000300
C11   C     C_R   0.958578 0.176310 0.784803 -0.007110
C12   C     C_R   0.264437 0.628550 0.605255 0.576204
C13   C     C_R   0.712547 0.094179 0.702226 0.013000
C14   C     C_R   0.714120 0.127674 0.774395 0.004047
C15   C     C_R   0.584107 0.033297 0.663161 0.114987
C16   C     C_R   0.467620 0.036226 0.690906 -0.095032
C17   C     C_R   0.476267 0.093893 0.757625 -0.161552
C18   C     C_R   0.597661 0.139304 0.799039 -0.085725
C19   C     C_R   0.841959 0.141432 0.668517 -0.021060
C20   C     C_R   0.732539 0.532218 0.714708 -0.142730
C21   C     C_R   0.723422 0.543783 0.787845 -0.160363
C22   C     C_R   0.803455 0.675073 0.819925 0.024847
C23   C     C_R   0.861951 0.221930 0.601556 0.568207
C24   C     C_R   0.883342 0.795714 0.778048 -0.132228
C25   C     C_R   0.890893 0.784623 0.705671 -0.138561
C26   C     C_R   0.821054 0.652454 0.673968 0.027955
C27   C     C_R   0.377712 0.594300 0.293256 -0.137009
C28   C     C_R   0.392579 0.600631 0.220976 -0.142922
C29   C     C_R   0.368543 0.695413 0.180536 0.023465
C30   C     C_R   0.334298 0.788137 0.214219 -0.140718
C31   C     C_R   0.314647 0.778484 0.287546 -0.135932
C32   C     C_R   0.332358 0.678051 0.326774 0.025924
C33   C     C_R   0.772202 0.232727 0.277026 -0.162563
C34   C     C_R   0.865757 0.638981 0.397649 0.619766
C35   C     C_R   0.773322 0.221704 0.204430 -0.148208
C36   C     C_R   0.849102 0.164314 0.173362 0.001143
C37   C     C_R   0.934846 0.130220 0.215490 -0.123140
C38   C     C_R   0.938636 0.146057 0.289010 0.061304
C39   C     C_R   0.853022 0.194054 0.320316 0.032245
C40   C     C_R   0.763923 0.718126 0.299734 -0.006276
C41   C     C_R   0.749401 0.727628 0.226507 -0.146112
C42   C     C_R   0.804371 0.668768 0.179003 0.033395
C43   C     C_R   0.875207 0.600460 0.203280 -0.154412
C44   C     C_R   0.890462 0.590036 0.275785 -0.149121
C45   C     C_R   0.273036 0.635684 0.397126 0.574039
C46   C     C_R   0.835481 0.648154 0.323895 0.059879
C47   C     C_R   0.805153 0.102405 0.893799 0.532347
C48   C     C_R   0.397858 0.702028 0.896007 0.543616
C49   C     C_R   0.794410 0.695987 0.895238 0.543484
C50   C     C_R   0.808964 0.107587 0.102215 0.544781
C51   C     C_R   0.401829 0.706566 0.105564 0.545866
C52   C     C_R   0.797372 0.694324 0.104549 0.541843
C53   C     C_R   0.863238 0.231573 0.394899 0.582735
C54   C     C_R   0.245764 0.718605 0.721181 -0.134009
C55   C     C_R   0.274243 0.734163 0.793473 -0.138555
C56   C     C_R   0.364939 0.691069 0.821620 0.044800
Cr1   Cr    Cr6+3 0.791660 0.390250 0.499930 1.054323
Cr2   Cr    Cr6+3 0.098520 0.708290 0.500540 1.058288
Cr3   Cr    Cr6+3 0.109770 0.401430 0.499480 1.060561
Cr4   Cr    Cr6+3 0.874790 0.925890 0.000070 1.012950
Cr5   Cr    Cr6+3 0.574120 0.948670 0.999300 1.015846
Cr6   Cr    Cr6+3 0.551420 0.625320 0.000920 1.007750
H1    H     H_    0.169573 0.745457 0.699761 0.136114
H2    H     H_    0.371228 0.996330 0.660139 0.129339
H3    H     H_    0.387637 0.101000 0.778045 0.107166
H4    H     H_    0.677358 0.428533 0.690976 0.145694
H5    H     H_    0.657278 0.450990 0.819268 0.111739
H6    H     H_    0.941040 0.899685 0.801221 0.155256
H7    H     H_    0.958183 0.878351 0.675146 0.138654
H8    H     H_    0.394368 0.517717 0.322324 0.162651
H9    H     H_    0.425811 0.531860 0.197163 0.153292
H10   H     H_    0.319980 0.864854 0.183950 0.135379
H11   H     H_    0.223301 0.775412 0.827263 0.117926
H12   H     H_    0.278783 0.843888 0.312736 0.158381
H13   H     H_    0.709911 0.275613 0.298960 0.152830
H14   H     H_    0.707463 0.250109 0.172936 0.143413
H15   H     H_    0.992717 0.084009 0.191938 0.158093
H16   H     H_    0.698087 0.784062 0.205978 0.106486
H17   H     H_    0.920440 0.558063 0.166467 0.115273
H18   H     H_    0.948438 0.539218 0.294706 0.118607
H19   H     H_    0.505784 0.608988 0.799154 0.142173
H20   H     H_    0.455923 0.582571 0.672557 0.140011
H21   H     H_    0.302343 0.273299 0.821748 0.109121
H22   H     H_    0.300729 0.230084 0.692874 0.110621
H23   H     H_    0.089969 0.240762 0.880476 0.131930
H24   H     H_    0.087886 0.157276 0.622352 0.144317
H25   H     H_    0.600658 0.189674 0.848700 0.140538
O1    O     O_R   0.766500 0.250040 0.579790 -0.492385
O2    O     O_R   0.218690 0.701900 0.425960 -0.500469
O3    O     O_R   0.249490 0.516440 0.419420 -0.501238
O4    O     O_R   0.982880 0.281910 0.424890 -0.470946
O5    O     O_3   0.999980 0.499990 0.499980 -0.279535
O6    O     O_R   0.895110 0.806860 0.920430 -0.524914
O7    O     O_R   0.872260 0.046970 0.925000 -0.506999
O8    O     O_R   0.691430 0.085060 0.918550 -0.525893
O9    O     O_R   0.451490 0.822460 0.925250 -0.495928
O10   O     O_R   0.413330 0.603360 0.920440 -0.528079
O11   O     O_R   0.676110 0.626250 0.926750 -0.510306
O12   O     O_R   0.798570 0.516780 0.574780 -0.502533
O13   O     O_R   0.895350 0.809870 0.080950 -0.509821
O14   O     O_R   0.872490 0.049760 0.073800 -0.506762
O15   O     O_R   0.691680 0.088070 0.079070 -0.520437
O16   O     O_R   0.451720 0.825250 0.074050 -0.502080
O17   O     O_R   0.413580 0.606370 0.080960 -0.524367
O18   O     O_R   0.676340 0.629040 0.075550 -0.505468
O19   O     O_3   0.666780 0.833290 0.000090 -0.249351
O20   O     O_R   0.984000 0.732950 0.581090 -0.522428
O21   O     O_R   0.218600 0.700890 0.574760 -0.498946
O22   O     O_R   0.249390 0.515350 0.579940 -0.511516
O23   O     O_R   0.982790 0.280900 0.573700 -0.508882
O24   O     O_R   0.766600 0.251130 0.419260 -0.514138
O25   O     O_R   0.798660 0.517790 0.425980 -0.507096
O26   O     O_R   0.984100 0.734040 0.420570 -0.478879
I1    I     I_    0.561394 0.934516 0.562271 -0.297369
I2    I     I_    0.069680 0.087825 0.347512 -0.345077
C57   C     C_2   0.706305 0.784700 0.347662 0.233507
H26   H     H_    0.662571 0.846690 0.325115 0.117737
O27   O     O_2   0.705569 0.771111 0.412147 -0.475179

loop_
_geom_bond_atom_site_label_1
_geom_bond_atom_site_label_2
_ccdc_geom_bond_type
C7    H21   S    
C55   C56   A    
Cr1   O5    S    
C34   O25   A    
C41   C42   A    
C14   C18   A    
C35   C36   A    
C1    O12   A    
Cr5   O9    S    
C36   C50   S    
C7    C8    A    
Cr6   O18   S    
Cr1   O24   S    
C34   O26   A    
C40   C46   A    
C48   O10   A    
C5    C47   S    
C29   C30   A    
C6    H23   S    
C20   H4    S    
C28   C29   A    
Cr5   O16   S    
C39   C53   S    
C5    C11   A    
C30   C31   A    
Cr1   O25   S    
C54   H1    S    
C43   H17   S    
C15   C16   A    
Cr1   O12   S    
Cr3   O23   S    
C57   H26   S    
Cr2   O20   S    
C32   C45   S    
C33   C35   A    
C49   O11   A    
Cr6   O11   S    
C33   H13   S    
C8    C9    A    
C53   O4    A    
Cr2   O26   S    
C34   C46   S    
C4    C12   S    
C45   O2    A    
C9    C10   A    
Cr4   O6    S    
C53   O24   A    
C21   C22   A    
C21   H5    S    
C12   O22   A    
C44   C46   A    
Cr6   O17   S    
C38   C39   A    
C35   H14   S    
C13   C19   A    
C44   H18   S    
C24   C25   A    
C51   O16   A    
C6    C11   A    
C12   O21   A    
C16   C17   A    
C31   H12   S    
Cr3   O4    S    
C51   O17   A    
C37   H15   S    
C52   O13   A    
Cr3   O3    S    
C19   C23   S    
C43   C44   A    
C37   C38   A    
C45   O3    A    
C9    H24   S    
Cr6   O10   S    
C31   C32   A    
C10   C19   A    
C3    H20   S    
C17   C18   A    
C15   I1    S    
C33   C39   A    
Cr5   O19   S    
C5    C14   A    
C27   H8    S    
C1    O20   A    
C22   C49   S    
C40   C41   A    
C52   O18   A    
C50   O15   A    
C23   O1    A    
C13   C15   A    
C1    C26   S    
C22   C24   A    
C28   H9    S    
C25   H7    S    
C42   C43   A    
Cr4   O14   S    
C41   H16   S    
Cr4   O19   S    
C29   C51   S    
C48   C56   S    
C23   O23   A    
C54   C55   A    
C36   C37   A    
C48   O9    A    
C4    C54   A    
C27   C32   A    
C8    H22   S    
Cr4   O13   S    
C30   H10   S    
Cr5   O8    S    
C6    C7    A    
Cr6   O19   S    
C17   H3    S    
C18   H25   S    
Cr1   O1    S    
C2    C3    A    
C25   C26   A    
C2    C56   A    
C38   I2    S    
C40   C57   S    
C20   C26   A    
Cr3   O22   S    
C47   O7    A    
C57   O27   D    
Cr5   O15   S    
Cr2   O21   S    
Cr3   O5    S    
Cr2   O2    S    
C10   C11   A    
C24   H6    S    
C55   H11   S    
C20   C21   A    
C50   O14   A    
C27   C28   A    
C47   O8    A    
C2    H19   S    
C16   H2    S    
C49   O6    A    
C13   C14   A    
Cr2   O5    S    
C3    C4    A    
C42   C52   S    
Cr4   O7    S    
