data_mof_unit_48768.cif
_audit_creation_date              2012-12-11T15:36:46-0500
_audit_creation_method            fapswitch 2.2
_symmetry_space_group_name_H-M    P1
_symmetry_Int_Tables_number       1
_space_group_crystal_system       triclinic
_cell_length_a                    15.040352
_cell_length_b                    15.010518
_cell_length_c                    34.793566
_cell_angle_alpha                 91.04803
_cell_angle_beta                  91.582745
_cell_angle_gamma                 60.410658
_cell_volume                      6828.00161312

loop_
_atom_site_label
_atom_site_type_symbol
_atom_type_description
_atom_site_fract_x
_atom_site_fract_y
_atom_site_fract_z
_atom_type_partial_charge
C1    C     C_R   0.610928 0.302001 0.444227 0.546190
C2    C     C_R   0.744030 0.689108 0.183566 0.027945
C3    C     C_R   0.610547 0.156929 0.831478 0.025026
C4    C     C_R   0.687476 0.169328 0.851045 0.275626
C5    C     C_R   0.715194 0.135062 0.888755 -0.097412
C6    C     C_R   0.580673 0.270243 0.775131 -0.092967
C7    C     C_R   0.585310 0.280759 0.735672 -0.138807
C8    C     C_R   0.595446 0.202581 0.710391 0.022324
C9    C     C_R   0.596510 0.115581 0.724874 -0.120368
C10   C     C_R   0.594811 0.103695 0.764484 -0.133625
C11   C     C_R   0.590268 0.179523 0.789977 0.031751
C12   C     C_R   0.544605 0.200178 0.641702 -0.125814
C13   C     C_R   0.828428 0.622164 0.161706 -0.124512
C14   C     C_R   0.549068 0.221336 0.603127 -0.134438
C15   C     C_R   0.687606 0.255453 0.618774 -0.123292
C16   C     C_R   0.682136 0.235677 0.657315 -0.120119
C17   C     C_R   0.608541 0.211081 0.669164 0.031254
C18   C     C_R   0.618344 0.252506 0.591570 0.023524
C19   C     C_R   0.045197 0.739345 0.048724 0.541383
C20   C     C_R   0.747576 0.746835 0.064219 0.542182
C21   C     C_R   0.751610 0.039875 0.050849 0.545825
C22   C     C_R   0.017566 0.722504 0.939787 0.545653
C23   C     C_R   0.717170 0.730119 0.954901 0.542899
C24   C     C_R   0.827422 0.636565 0.122106 -0.128626
C25   C     C_R   0.721308 0.025203 0.942211 0.545624
C26   C     C_R   0.772000 0.587498 0.242830 -0.130950
C27   C     C_R   0.763611 0.582709 0.282364 -0.142972
C28   C     C_R   0.731418 0.670613 0.305542 0.030096
C29   C     C_R   0.713072 0.763757 0.288766 0.157934
C30   C     C_R   0.719637 0.767668 0.248706 -0.085728
C31   C     C_R   0.746671 0.680705 0.225678 -0.006373
C32   C     C_R   0.604495 0.734483 0.357835 -0.123081
C33   C     C_R   0.593202 0.610491 0.449359 0.546050
C34   C     C_R   0.570627 0.719919 0.392794 -0.129201
C35   C     C_R   0.735515 0.568977 0.404342 -0.125942
C36   C     C_R   0.769717 0.584289 0.369497 -0.125047
C37   C     C_R   0.703595 0.665737 0.345546 0.023798
C38   C     C_R   0.634691 0.635130 0.415795 0.021958
C39   C     C_R   0.099467 0.730275 0.085659 0.020185
C40   C     C_R   0.143882 0.636933 0.105549 -0.124486
C41   C     C_R   0.164158 0.634385 0.144903 -0.120583
C42   C     C_R   0.141728 0.724722 0.164918 0.023072
C43   C     C_R   0.107915 0.815972 0.144521 -0.126217
C44   C     C_R   0.303396 0.591829 0.442468 0.554296
C45   C     C_R   0.086758 0.818824 0.105045 -0.127581
C46   C     C_R   0.197699 0.763791 0.228270 -0.116707
C47   C     C_R   0.204730 0.756206 0.268318 -0.117139
C48   C     C_R   0.156298 0.711056 0.287864 0.029576
C49   C     C_R   0.096969 0.678045 0.266680 -0.116321
C50   C     C_R   0.091480 0.684045 0.226731 -0.124623
C51   C     C_R   0.143624 0.724839 0.207226 0.025464
C52   C     C_R   0.194026 0.594196 0.343642 -0.119232
C53   C     C_R   0.228540 0.565579 0.381385 -0.127340
C54   C     C_R   0.223041 0.728005 0.392384 -0.127515
C55   C     C_R   0.605169 0.300919 0.553882 0.533352
C56   C     C_R   0.187768 0.756960 0.354648 -0.122244
C57   C     C_R   0.176359 0.688855 0.329495 0.033875
C58   C     C_R   0.247026 0.630611 0.405683 0.020688
C59   C     C_R   0.726555 0.094485 0.087931 -0.022763
C60   C     C_R   0.801893 0.104426 0.109176 -0.148914
C61   C     C_R   0.788572 0.129729 0.148103 -0.138426
C62   C     C_R   0.700142 0.144907 0.166393 0.047643
C63   C     C_R   0.620555 0.143456 0.144467 0.252831
C64   C     C_R   0.633819 0.119608 0.105305 -0.107532
C65   C     C_R   0.608825 0.234750 0.225421 -0.115757
C66   C     C_R   0.587030 0.606041 0.559290 0.531343
C67   C     C_R   0.598077 0.240762 0.265039 -0.143215
C68   C     C_R   0.673735 0.165888 0.288881 -0.003276
C69   C     C_R   0.760970 0.084810 0.272495 -0.107053
C70   C     C_R   0.771886 0.077056 0.232490 0.133673
C71   C     C_R   0.694674 0.152981 0.208693 0.061565
C72   C     C_R   0.746019 0.170756 0.353596 -0.115651
C73   C     C_R   0.730738 0.203847 0.391745 -0.124187
C74   C     C_R   0.554141 0.242782 0.386037 -0.130466
C75   C     C_R   0.569365 0.210152 0.347847 -0.129602
C76   C     C_R   0.664131 0.178200 0.330906 0.035431
C77   C     C_R   0.350411 0.559251 0.556455 0.567224
C78   C     C_R   0.633393 0.244570 0.407726 0.021012
C79   C     C_R   0.690638 0.689621 0.920077 0.019267
C80   C     C_R   0.761528 0.594163 0.904527 -0.128139
C81   C     C_R   0.747604 0.567318 0.867073 -0.123138
C82   C     C_R   0.662818 0.635517 0.844566 0.057018
C83   C     C_R   0.588609 0.727525 0.861105 -0.093042
C84   C     C_R   0.601717 0.753821 0.898604 -0.133617
C85   C     C_R   0.569434 0.632724 0.783373 0.146165
C86   C     C_R   0.566538 0.628360 0.743036 -0.104914
C87   C     C_R   0.650907 0.612870 0.721724 -0.001522
C88   C     C_R   0.741646 0.717778 0.103917 0.022043
C89   C     C_R   0.741167 0.594808 0.740964 -0.130650
C90   C     C_R   0.745343 0.597664 0.781007 -0.150578
C91   C     C_R   0.659375 0.618693 0.802598 0.051618
C92   C     C_R   0.717586 0.539851 0.656851 -0.121384
C93   C     C_R   0.703803 0.540077 0.616978 -0.127643
C94   C     C_R   0.545650 0.701585 0.621558 -0.128776
C95   C     C_R   0.558738 0.700498 0.661390 -0.121640
C96   C     C_R   0.643158 0.618173 0.679404 0.033203
C97   C     C_R   0.615762 0.619215 0.599065 0.022880
C98   C     C_R   0.077502 0.695556 0.904578 0.021449
C99   C     C_R   0.655190 0.780713 0.125716 -0.132514
C100  C     C_R   0.097983 0.767638 0.887732 -0.126925
C101  C     C_R   0.147544 0.746181 0.852869 -0.124855
C102  C     C_R   0.177353 0.652462 0.834094 0.033553
C103  C     C_R   0.160906 0.578498 0.851631 -0.119117
C104  C     C_R   0.111259 0.599902 0.886665 -0.128026
C105  C     C_R   0.298678 0.540859 0.783629 -0.121974
C106  C     C_R   0.331373 0.525177 0.745732 -0.125833
C107  C     C_R   0.283741 0.604472 0.718828 0.024008
C108  C     C_R   0.203238 0.699668 0.730293 -0.124926
C109  C     C_R   0.170065 0.715096 0.767918 -0.124568
C110  C     C_R   0.656671 0.766545 0.165162 -0.132332
C111  C     C_R   0.217240 0.635933 0.794905 0.029957
C112  C     C_R   0.319671 0.662864 0.657679 -0.126585
C113  C     C_R   0.332235 0.653754 0.618079 -0.124810
C114  C     C_R   0.335413 0.490740 0.619177 -0.121455
C115  C     C_R   0.322877 0.499860 0.658844 -0.114421
C116  C     C_R   0.312246 0.587308 0.678183 0.029171
C117  C     C_R   0.337217 0.569044 0.598309 0.018836
C118  C     C_R   0.672728 0.082256 0.906682 -0.025675
C119  C     C_R   0.593495 0.073697 0.887926 -0.150431
C120  C     C_R   0.562376 0.111194 0.850650 -0.172935
Cr1   Cr    Cr6+3 0.426010 0.422500 0.497000 1.003186
Cr2   Cr    Cr6+3 0.651300 0.426310 0.501970 1.003866
Cr3   Cr    Cr6+3 0.422670 0.651170 0.501050 1.006846
Cr4   Cr    Cr6+3 0.905130 0.911420 0.992650 1.008064
Cr5   Cr    Cr6+3 0.911860 0.682710 0.002320 1.011328
Cr6   Cr    Cr6+3 0.682710 0.906840 0.004710 1.010199
H1    H     H_    0.587846 0.843828 0.112645 0.123381
H2    H     H_    0.492377 0.771877 0.400719 0.126942
H3    H     H_    0.896469 0.561663 0.175499 0.101768
H4    H     H_    0.786724 0.503221 0.421588 0.122888
H5    H     H_    0.155324 0.567317 0.091366 0.128241
H6    H     H_    0.052229 0.891998 0.090550 0.125651
H7    H     H_    0.172804 0.831195 0.344772 0.097821
H8    H     H_    0.252015 0.781284 0.283755 0.101251
H9    H     H_    0.237893 0.796015 0.213642 0.104783
H10   H     H_    0.192124 0.562852 0.160155 0.112189
H11   H     H_    0.056757 0.645286 0.280932 0.107736
H12   H     H_    0.895459 0.587205 0.106127 0.126880
H13   H     H_    0.047017 0.656063 0.210932 0.103928
H14   H     H_    0.187233 0.539341 0.324931 0.100181
H15   H     H_    0.246556 0.489939 0.390731 0.124376
H16   H     H_    0.090387 0.886406 0.159570 0.111150
H17   H     H_    0.235787 0.780128 0.410579 0.121913
H18   H     H_    0.874022 0.085805 0.096471 0.132907
H19   H     H_    0.573609 0.115068 0.089099 0.131425
H20   H     H_    0.505652 0.214776 0.330945 0.096892
H21   H     H_    0.531556 0.305658 0.277152 0.116795
H22   H     H_    0.549876 0.294394 0.207712 0.153237
H23   H     H_    0.846341 0.530164 0.360449 0.104502
H24   H     H_    0.849519 0.132563 0.164423 0.135134
H25   H     H_    0.819998 0.026882 0.290746 0.114364
H26   H     H_    0.819753 0.146506 0.341116 0.101147
H27   H     H_    0.793494 0.203429 0.407931 0.126747
H28   H     H_    0.478498 0.272968 0.397669 0.124892
H29   H     H_    0.830743 0.542941 0.920391 0.124196
H30   H     H_    0.545959 0.828225 0.909559 0.124518
H31   H     H_    0.501365 0.762641 0.678296 0.099021
H32   H     H_    0.777128 0.511137 0.294626 0.113879
H33   H     H_    0.498184 0.637823 0.728166 0.113262
H34   H     H_    0.805796 0.495785 0.854924 0.109815
H35   H     H_    0.807208 0.582233 0.724974 0.114444
H36   H     H_    0.814674 0.587884 0.795131 0.110497
H37   H     H_    0.783504 0.475841 0.670239 0.102254
H38   H     H_    0.759113 0.475332 0.600499 0.122368
H39   H     H_    0.524229 0.782944 0.844191 0.122826
H40   H     H_    0.477207 0.763853 0.608726 0.120833
H41   H     H_    0.073713 0.841728 0.901014 0.124085
H42   H     H_    0.793142 0.519677 0.225404 0.114603
H43   H     H_    0.096601 0.542894 0.899088 0.126717
H44   H     H_    0.317485 0.440546 0.674130 0.109080
H45   H     H_    0.392999 0.451143 0.737301 0.111075
H46   H     H_    0.336523 0.478809 0.804016 0.106108
H47   H     H_    0.160523 0.803908 0.840144 0.092936
H48   H     H_    0.163666 0.761238 0.709819 0.106587
H49   H     H_    0.105458 0.788154 0.775614 0.099751
H50   H     H_    0.313824 0.729911 0.672243 0.093955
H51   H     H_    0.336475 0.713851 0.602933 0.131000
H52   H     H_    0.182363 0.506013 0.837479 0.104586
H53   H     H_    0.590147 0.817097 0.181533 0.103673
H54   H     H_    0.342284 0.423107 0.604780 0.128689
H55   H     H_    0.559415 0.033322 0.901194 0.134115
H56   H     H_    0.774873 0.144423 0.903150 0.136740
H57   H     H_    0.733077 0.242993 0.678148 0.104761
H58   H     H_    0.582461 0.349384 0.724852 0.110327
H59   H     H_    0.574565 0.330841 0.794164 0.148101
H60   H     H_    0.503614 0.100584 0.836123 0.111501
H61   H     H_    0.604064 0.054659 0.705704 0.108713
H62   H     H_    0.602982 0.032725 0.775249 0.105575
H63   H     H_    0.487517 0.181011 0.650404 0.102763
H64   H     H_    0.494568 0.218873 0.582744 0.117100
H65   H     H_    0.741242 0.280039 0.610836 0.125882
H66   H     H_    0.703836 0.838384 0.235160 0.097309
H67   H     H_    0.551307 0.796307 0.339423 0.116764
O1    O     O_R   0.324990 0.503440 0.453910 -0.515704
O2    O     O_R   0.639980 0.519500 0.542640 -0.504225
O3    O     O_R   0.500750 0.673190 0.545480 -0.530589
O4    O     O_R   0.336260 0.640450 0.538210 -0.502143
O5    O     O_3   0.499990 0.499990 0.500010 -0.258054
O6    O     O_R   0.834210 0.019400 0.034570 -0.517879
O7    O     O_R   0.002210 0.824620 0.031030 -0.502669
O8    O     O_R   0.024400 0.669340 0.039790 -0.519128
O9    O     O_R   0.830490 0.694950 0.045870 -0.501884
O10   O     O_R   0.675430 0.831160 0.051290 -0.519650
O11   O     O_R   0.698870 0.998880 0.039560 -0.503508
O12   O     O_R   0.522030 0.339050 0.458320 -0.502210
O13   O     O_R   0.811290 0.006780 0.950620 -0.523273
O14   O     O_R   0.980960 0.812920 0.953200 -0.502998
O15   O     O_R   0.001480 0.656720 0.955830 -0.518638
O16   O     O_R   0.809240 0.683250 0.968050 -0.500511
O17   O     O_R   0.652500 0.818540 0.967340 -0.519150
O18   O     O_R   0.677620 0.987170 0.961730 -0.496703
O19   O     O_3   0.833240 0.833660 0.999890 -0.234755
O20   O     O_R   0.676180 0.324490 0.458320 -0.515232
O21   O     O_R   0.643570 0.521510 0.464260 -0.497229
O22   O     O_R   0.504630 0.675350 0.460920 -0.517547
O23   O     O_R   0.339850 0.642450 0.459830 -0.495336
O24   O     O_R   0.321120 0.501280 0.538470 -0.514261
O25   O     O_R   0.518440 0.337050 0.536710 -0.522108
O26   O     O_R   0.672300 0.322330 0.542880 -0.518140
N1    N     N_2   0.861141 0.994060 0.216467 -0.533688
H68   H     H_    0.926280 0.970448 0.233388 0.249671
C121  C     C_3   0.849091 0.908701 0.203233 -0.299775
H69   H     H_    0.917029 0.854812 0.186684 0.161755
H70   H     H_    0.780892 0.934815 0.183936 0.148003
H71   H     H_    0.842498 0.867578 0.228219 0.147006
O27   O     O_3   0.528491 0.168371 0.160965 -0.585840
C122  C     C_3   0.529374 0.077905 0.171969 0.006268
H72   H     H_    0.598084 0.028559 0.190165 0.124711
H73   H     H_    0.527826 0.034056 0.146029 0.130665
C123  C     C_3   0.434329 0.107822 0.195555 -0.251680
H74   H     H_    0.436998 0.149737 0.221857 0.167103
H75   H     H_    0.364811 0.159607 0.178345 0.173595
C124  C     C_3   0.427054 0.014334 0.207345 -0.498671
H76   H     H_    0.420523 0.973370 0.181458 0.144589
H77   H     H_    0.358127 0.039165 0.224920 0.142842
H78   H     H_    0.495440 0.961596 0.224777 0.139003
N2    N     N_2   0.483767 0.647544 0.804686 -0.516591
H79   H     H_    0.474938 0.583643 0.804491 0.258887
C125  C     C_3   0.388968 0.740589 0.796208 -0.316437
H80   H     H_    0.332483 0.752646 0.818373 0.152266
H81   H     H_    0.357464 0.734885 0.767646 0.144995
H82   H     H_    0.400912 0.807935 0.796498 0.135722
N3    N     N_2   0.694245 0.850720 0.311999 -0.523583
H83   H     H_    0.705716 0.838705 0.341217 0.260346
C126  C     C_3   0.606574 0.948131 0.301540 -0.319303
H84   H     H_    0.595519 0.006351 0.323838 0.149207
H85   H     H_    0.536348 0.941304 0.299451 0.130761
H86   H     H_    0.618917 0.975713 0.273909 0.154439
O28   O     O_3   0.738064 0.212939 0.833415 -0.585579
C127  C     C_3   0.820671 0.137626 0.812030 0.012712
H87   H     H_    0.825495 0.174787 0.785441 0.154941
H88   H     H_    0.810483 0.071719 0.802406 0.126851
C128  C     C_3   0.921186 0.098503 0.835054 -0.266832
H89   H     H_    0.930261 0.164531 0.844838 0.174181
H90   H     H_    0.919905 0.056354 0.860743 0.156342
C129  C     C_3   0.012599 0.026619 0.810904 -0.492069
H91   H     H_    0.017537 0.067298 0.785404 0.144259
H92   H     H_    0.005214 0.959677 0.801209 0.141977
H93   H     H_    0.084134 0.998846 0.828417 0.138551

loop_
_geom_bond_atom_site_label_1
_geom_bond_atom_site_label_2
_ccdc_geom_bond_type
C15   C18   A    
C113  H51   S    
C101  C102  A    
C22   C98   S    
C105  H46   S    
Cr3   O22   S    
C64   H19   S    
C41   C42   A    
C14   C18   A    
Cr3   O5    S    
C101  H47   S    
C95   C96   A    
Cr1   O12   S    
Cr2   O2    S    
C72   C76   A    
C25   C118  S    
C94   H40   S    
N1    C121  S    
C66   O2    A    
C33   O22   A    
C16   H57   S    
C7    C8    A    
C85   C86   A    
C108  C109  A    
C27   H32   S    
C12   H63   S    
C83   H39   S    
C6    H59   S    
Cr5   O8    S    
C59   C64   A    
C29   C30   A    
C7    H58   S    
C90   H36   S    
C100  H41   S    
C28   C37   S    
C66   C97   S    
C92   C93   A    
C36   C37   A    
C4    O28   S    
C21   C59   S    
C77   C117  S    
Cr6   O18   S    
C109  C111  A    
C54   C58   A    
C128  H89   S    
C36   H23   S    
C112  C116  A    
C26   C31   A    
C106  C107  A    
C127  H88   S    
C15   C16   A    
C95   H31   S    
C129  H93   S    
C92   C96   A    
C56   C57   A    
C74   H28   S    
C123  C124  S    
C44   O1    A    
C119  H55   S    
Cr4   O14   S    
C25   O18   A    
C2    C13   A    
C118  C119  A    
N1    H68   S    
C29   N3    S    
C46   H9    S    
N3    H83   S    
C2    C110  A    
C125  H80   S    
C44   C58   S    
C8    C9    A    
C72   H26   S    
C129  H92   S    
C12   C17   A    
C22   O14   A    
C10   H62   S    
C107  C108  A    
C70   C71   A    
C30   H66   S    
C55   O25   A    
C1    O12   A    
C61   H24   S    
C126  H86   S    
C85   N2    S    
C42   C51   S    
C39   C45   A    
Cr4   O13   S    
C127  C128  S    
C54   H17   S    
C105  C111  A    
C59   C60   A    
C81   H34   S    
C34   C38   A    
C126  H84   S    
C87   C96   S    
C1    C78   S    
C79   C84   A    
C21   O11   A    
C102  C111  S    
C61   C62   A    
C21   O6    A    
C115  H44   S    
C56   H7    S    
C9    C10   A    
C89   H35   S    
C112  C113  A    
Cr5   O19   S    
Cr6   O11   S    
C81   C82   A    
C63   O27   S    
C75   H20   S    
C85   C91   A    
C114  C117  A    
Cr1   O5    S    
C54   C56   A    
Cr5   O9    S    
Cr2   O26   S    
C63   C64   A    
C52   C57   A    
C102  C103  A    
C69   H25   S    
C47   C48   A    
C48   C57   S    
C35   C38   A    
C72   C73   A    
N3    C126  S    
Cr6   O17   S    
C39   C40   A    
C128  H90   S    
Cr1   O25   S    
Cr5   O16   S    
C86   C87   A    
C68   C69   A    
C55   O26   A    
C23   O16   A    
C94   C97   A    
C65   C67   A    
C127  H87   S    
C65   C71   A    
C99   C110  A    
C46   C51   A    
C70   N1    S    
C82   C91   S    
C67   C68   A    
C13   C24   A    
C108  H48   S    
C60   C61   A    
C35   C36   A    
C32   C34   A    
C123  H75   S    
C75   C76   A    
C62   C63   A    
C24   C88   A    
C122  H72   S    
Cr4   O6    S    
C99   H1    S    
C115  C116  A    
C30   C31   A    
C73   C78   A    
C26   H42   S    
C129  H91   S    
C50   C51   A    
O28   C127  S    
C119  C120  A    
C22   O15   A    
C94   C95   A    
C125  H81   S    
C32   C37   A    
Cr2   O5    S    
C65   H22   S    
C121  H70   S    
C124  H77   S    
C35   H4    S    
C19   C39   S    
C18   C55   S    
C113  C117  A    
C92   H37   S    
C40   C41   A    
C122  H73   S    
C40   H5    S    
C12   C14   A    
O27   C122  S    
C114  H54   S    
N2    C125  S    
C47   H8    S    
C26   C27   A    
C49   C50   A    
Cr3   O3    S    
C83   C84   A    
C42   C43   A    
C3    C4    A    
C28   C29   A    
C106  H45   S    
C93   C97   A    
Cr1   O1    S    
C6    C11   A    
C52   C53   A    
C50   H13   S    
C80   H29   S    
C49   H11   S    
C86   H33   S    
C3    C120  A    
C15   H65   S    
C46   C47   A    
C48   C49   A    
C33   O21   A    
C32   H67   S    
C112  H50   S    
C44   O23   A    
Cr1   O24   S    
Cr3   O4    S    
C8    C17   S    
C20   O10   A    
C80   C81   A    
C9    H61   S    
C120  H60   S    
C125  H82   S    
C121  H71   S    
C128  C129  S    
C66   O3    A    
C53   C58   A    
C109  H49   S    
C114  C115  A    
C6    C7    A    
C23   O17   A    
Cr6   O10   S    
C68   C76   S    
Cr4   O19   S    
C105  C106  A    
Cr4   O7    S    
Cr5   O15   S    
C98   C100  A    
C33   C38   S    
C93   H38   S    
Cr2   O20   S    
C5    C118  A    
C103  H52   S    
C24   H12   S    
C126  H85   S    
C5    H56   S    
C20   O9    A    
C123  H74   S    
C43   C45   A    
Cr6   O19   S    
C60   H18   S    
C1    O20   A    
C84   H30   S    
C77   O24   A    
C90   C91   A    
C16   C17   A    
C110  H53   S    
C98   C104  A    
C20   C88   S    
C100  C101  A    
C52   H14   S    
C62   C71   S    
C19   O7    A    
C53   H15   S    
C19   O8    A    
C69   C70   A    
C124  H78   S    
N2    H79   S    
C107  C116  S    
C88   C99   A    
C3    C11   S    
C10   C11   A    
C79   C80   A    
C14   H64   S    
Cr2   O21   S    
C4    C5    A    
C122  C123  S    
C74   C75   A    
C45   H6    S    
C34   H2    S    
C82   C83   A    
C74   C78   A    
C67   H21   S    
C73   H27   S    
C103  C104  A    
C87   C89   A    
C13   H3    S    
C2    C31   S    
C43   H16   S    
C23   C79   S    
C89   C90   A    
Cr3   O23   S    
C77   O4    A    
C121  H69   S    
C41   H10   S    
C25   O13   A    
C124  H76   S    
C104  H43   S    
C27   C28   A    
