data_mof_unit_18177.cif
_audit_creation_date              2012-12-10T16:56:29-0500
_audit_creation_method            fapswitch 2.2
_symmetry_space_group_name_H-M    P1
_symmetry_Int_Tables_number       1
_space_group_crystal_system       triclinic
_cell_length_a                    7.773884
_cell_length_b                    8.574662
_cell_length_c                    15.717783
_cell_angle_alpha                 90.837127
_cell_angle_beta                  85.894382
_cell_angle_gamma                 93.645504
_cell_volume                      1042.86618431

loop_
_atom_site_label
_atom_site_type_symbol
_atom_type_description
_atom_site_fract_x
_atom_site_fract_y
_atom_site_fract_z
_atom_type_partial_charge
C1    C     C_R   0.545769 0.794717 0.497804 0.961204
C2    C     C_3   0.378224 0.390194 0.030289 -0.246587
C3    C     C_1   0.506536 0.500105 0.750575 -0.176899
C4    C     C_1   0.493464 0.499895 0.249424 -0.176910
C5    C     C_3   0.342579 0.533498 0.975828 -0.195216
C6    C     C_3   0.657424 0.466502 0.024172 -0.195265
C7    C     C_3   0.503831 0.501673 0.916701 0.163478
C8    C     C_3   0.496171 0.498329 0.083298 0.163461
C9    C     C_1   0.506972 0.500650 0.825820 -0.052136
C10   C     C_1   0.493029 0.499350 0.174179 -0.052183
C11   C     C_R   0.454231 0.205283 0.502196 0.961207
C12   C     C_R   0.502184 0.500014 0.661901 0.902556
C13   C     C_R   0.497816 0.499986 0.338098 0.902549
C14   C     C_2   0.569846 0.958215 0.496553 -0.376976
C15   C     C_2   0.430154 0.041785 0.503447 -0.376975
C16   C     C_3   0.461576 0.637956 0.029762 0.163353
C17   C     C_3   0.538424 0.362045 0.970237 0.163358
C18   C     C_3   0.621778 0.609807 0.969711 -0.246587
H1    H     H_    0.718253 0.701245 0.943919 0.144579
H2    H     H_    0.524468 0.835997 0.096003 0.180140
H3    H     H_    0.596529 0.137492 0.986218 0.171125
H4    H     H_    0.475420 0.163920 0.904092 0.180122
H5    H     H_    0.281749 0.298756 0.056080 0.144580
H6    H     H_    0.784309 0.435943 0.045189 0.144047
H7    H     H_    0.215693 0.564057 0.954810 0.144053
H8    H     H_    0.701778 0.009279 0.489979 0.181257
H9    H     H_    0.298222 0.990721 0.510021 0.181257
H10   H     H_    0.013388 0.382051 0.436454 0.193168
H11   H     H_    0.986612 0.617949 0.563546 0.193168
H12   H     H_    0.403704 0.862567 0.013767 0.171115
N1    N     N_2   0.950320 0.457950 0.477300 -0.172034
N2    N     N_2   0.049680 0.542050 0.522700 -0.172034
N3    N     N_3   0.417834 0.789479 0.065101 -0.458539
N4    N     N_3   0.582154 0.210524 0.934892 -0.458533
O1    O     O_R   0.389250 0.738570 0.505570 -0.613087
O2    O     O_R   0.610750 0.261430 0.494430 -0.613086
O3    O     O_R   0.678390 0.711630 0.491020 -0.630754
O4    O     O_R   0.321610 0.288370 0.508980 -0.630753
O5    O     O_R   0.355460 0.513480 0.630490 -0.612502
O6    O     O_R   0.644540 0.486520 0.369510 -0.612500
O7    O     O_R   0.644600 0.486540 0.615950 -0.619864
O8    O     O_R   0.355400 0.513460 0.384050 -0.619863
Zn1   Zn    Zn3+2 0.306940 0.517990 0.509710 0.949755
Zn2   Zn    Zn3+2 0.693060 0.482010 0.490290 0.949754

loop_
_geom_bond_atom_site_label_1
_geom_bond_atom_site_label_2
_ccdc_geom_bond_type
C11   O4    A    
C6    C8    S    
C12   O7    A    
C1    C14   S    
C16   N3    S    
O1    Zn1   S    
C15   H9    S    
N1    N2    D    
H3    N4    S    
C1    O3    A    
C7    C18   S    
C6    H6    S    
C2    H5    S    
O3    Zn2   S    
O4    Zn1   S    
C8    C16   S    
C14   H8    S    
C2    C17   S    
C17   N4    S    
C12   O5    A    
C3    C9    T    
H2    N3    S    
C16   C18   S    
C13   O8    A    
O7    Zn2   S    
N2    Zn1   S    
H11   N2    S    
H4    N4    S    
C6    C18   S    
C5    H7    S    
O2    Zn2   S    
C2    C5    S    
O8    Zn1   S    
C4    C10   T    
C7    C9    S    
O6    Zn2   S    
C1    O1    A    
C8    C10   S    
C18   H1    S    
N1    Zn2   S    
C4    C13   S    
C5    C7    S    
C6    C17   S    
C14   C15   D    
C11   O2    A    
C13   O6    A    
O5    Zn1   S    
C3    C12   S    
H12   N3    S    
C7    C17   S    
C11   C15   S    
H10   N1    S    
C2    C8    S    
C5    C16   S    
