data_mof_unit_51371.cif
_audit_creation_date              2013-03-05T15:50:09-0500
_audit_creation_method            fapswitch 2.2
_symmetry_space_group_name_H-M    P1
_symmetry_Int_Tables_number       1
_space_group_crystal_system       triclinic
_cell_length_a                    18.308703
_cell_length_b                    26.086365
_cell_length_c                    18.197707
_cell_angle_alpha                 89.248426
_cell_angle_beta                  90.422172
_cell_angle_gamma                 90.606471
_cell_volume                      8689.89977015

loop_
_atom_site_label
_atom_site_type_symbol
_atom_site_description
_atom_site_fract_x
_atom_site_fract_y
_atom_site_fract_z
_atom_type_partial_charge
Zn1   Zn    Zn3+2 0.249990 0.293780 0.913250 1.115680
Zn2   Zn    Zn3+2 0.249990 0.706220 0.086750 1.117417
Zn3   Zn    Zn3+2 0.249990 0.706220 0.913250 1.088365
Zn4   Zn    Zn3+2 0.249990 0.293780 0.086750 1.151795
Zn5   Zn    Zn3+2 0.749990 0.793780 0.413250 1.160290
Zn6   Zn    Zn3+2 0.749990 0.206220 0.586750 1.064081
Zn7   Zn    Zn3+2 0.749990 0.206220 0.413250 1.167589
Zn8   Zn    Zn3+2 0.749990 0.793780 0.586750 1.072668
Zn9   Zn    Zn3+2 0.336760 0.206240 0.000000 1.157988
Zn10  Zn    Zn3+2 0.336760 0.793760 0.000000 1.180801
Zn11  Zn    Zn3+2 0.836760 0.706240 0.500000 1.162864
Zn12  Zn    Zn3+2 0.836760 0.293760 0.500000 1.161802
Zn13  Zn    Zn3+2 0.163250 0.206230 0.000000 1.115657
Zn14  Zn    Zn3+2 0.163250 0.793770 0.000000 1.131877
Zn15  Zn    Zn3+2 0.663250 0.706230 0.500000 1.122360
Zn16  Zn    Zn3+2 0.663250 0.293770 0.500000 1.117294
O1    O     O_3   0.249990 0.250010 0.000000 -0.543705
O2    O     O_3   0.249990 0.749990 0.000000 -0.550863
O3    O     O_3   0.749990 0.750010 0.500000 -0.550839
O4    O     O_3   0.749990 0.249990 0.500000 -0.545878
O5    O     O_R   0.335430 0.280650 0.146160 -0.587349
O6    O     O_R   0.335430 0.719350 0.853840 -0.590781
O7    O     O_R   0.335430 0.719350 0.146160 -0.575520
O8    O     O_R   0.335430 0.280650 0.853840 -0.583275
O9    O     O_R   0.835430 0.780650 0.646160 -0.593973
O10   O     O_R   0.835430 0.219350 0.353840 -0.567980
O11   O     O_R   0.835430 0.219350 0.646160 -0.583269
O12   O     O_R   0.835430 0.780650 0.353840 -0.552232
O13   O     O_R   0.164550 0.280640 0.853840 -0.615232
O14   O     O_R   0.164550 0.719360 0.146160 -0.638625
O15   O     O_R   0.164550 0.719360 0.853840 -0.632806
O16   O     O_R   0.164550 0.280640 0.146160 -0.604046
O17   O     O_R   0.664550 0.780640 0.353840 -0.590088
O18   O     O_R   0.664550 0.219360 0.646160 -0.666596
O19   O     O_R   0.664550 0.219360 0.353840 -0.579914
O20   O     O_R   0.664550 0.780640 0.646160 -0.639394
O21   O     O_R   0.396160 0.219380 0.914560 -0.604982
O22   O     O_R   0.396160 0.780620 0.085440 -0.573041
O23   O     O_R   0.396160 0.780620 0.914560 -0.573884
O24   O     O_R   0.396160 0.219380 0.085440 -0.571729
O25   O     O_R   0.896160 0.719380 0.414560 -0.598646
O26   O     O_R   0.896160 0.280620 0.585440 -0.586730
O27   O     O_R   0.896160 0.280620 0.414560 -0.568844
O28   O     O_R   0.896160 0.719380 0.585440 -0.556428
O29   O     O_R   0.103840 0.219370 0.085450 -0.619138
O30   O     O_R   0.103840 0.780630 0.914550 -0.592065
O31   O     O_R   0.103840 0.780630 0.085450 -0.572294
O32   O     O_R   0.103840 0.219370 0.914550 -0.581427
O33   O     O_R   0.603840 0.719370 0.585450 -0.595216
O34   O     O_R   0.603840 0.280630 0.414550 -0.596233
O35   O     O_R   0.603840 0.280630 0.585450 -0.609919
O36   O     O_R   0.603840 0.719370 0.414550 -0.599763
O37   O     O_R   0.310730 0.133160 0.000000 -0.586454
O38   O     O_R   0.310730 0.866840 0.000000 -0.595875
O39   O     O_R   0.810730 0.633160 0.500000 -0.592609
O40   O     O_R   0.810730 0.366840 0.500000 -0.614395
O41   O     O_R   0.249970 0.366860 0.060720 -0.545187
O42   O     O_R   0.249970 0.633140 0.939280 -0.606773
O43   O     O_R   0.249970 0.633140 0.060720 -0.578130
O44   O     O_R   0.249970 0.366860 0.939280 -0.637219
O45   O     O_R   0.749970 0.866860 0.560720 -0.617365
O46   O     O_R   0.749970 0.133140 0.439280 -0.546502
O47   O     O_R   0.749970 0.133140 0.560720 -0.648730
O48   O     O_R   0.749970 0.866860 0.439280 -0.560732
O49   O     O_R   0.189290 0.133150 0.000000 -0.616810
O50   O     O_R   0.189290 0.866850 0.000000 -0.574194
O51   O     O_R   0.689290 0.633150 0.500000 -0.584774
O52   O     O_R   0.689290 0.366850 0.500000 -0.567782
C1    C     C_R   0.389891 0.250070 0.139584 0.955183
C2    C     C_R   0.390772 0.751359 0.860327 0.912633
C3    C     C_R   0.388721 0.751330 0.141058 0.944517
C4    C     C_R   0.386176 0.247458 0.855720 0.936911
C5    C     C_R   0.891420 0.750941 0.638196 0.928956
C6    C     C_R   0.890676 0.249681 0.360298 0.902328
C7    C     C_R   0.889981 0.249623 0.639736 0.967764
C8    C     C_R   0.890608 0.751446 0.360996 0.967983
C9    C     C_R   0.110673 0.249904 0.859256 0.880973
C10   C     C_R   0.108780 0.747658 0.139345 0.833974
C11   C     C_R   0.111846 0.751882 0.858961 0.836813
C12   C     C_R   0.110883 0.249605 0.140309 0.863823
C13   C     C_R   0.613549 0.747346 0.356830 0.853218
C14   C     C_R   0.613239 0.252249 0.643899 0.872788
C15   C     C_R   0.612051 0.251306 0.358617 0.859718
C16   C     C_R   0.610109 0.748024 0.640715 0.794316
C17   C     C_R   0.250059 0.109022 0.999738 0.956750
C18   C     C_R   0.249654 0.890983 0.998877 0.966856
C19   C     C_R   0.749845 0.608444 0.498860 0.960873
C20   C     C_R   0.750231 0.390471 0.488653 0.928306
C21   C     C_R   0.247491 0.391216 0.999239 0.978326
C22   C     C_R   0.250132 0.608694 0.999645 0.959246
C23   C     C_R   0.749713 0.891389 0.500135 0.962202
C24   C     C_R   0.747692 0.108815 0.500772 0.981881
C25   C     C_3   0.176775 0.468765 0.044651 0.337674
C26   C     C_3   0.232583 0.531444 0.913015 0.409105
C27   C     C_3   0.184815 0.529756 0.052126 0.361745
C28   C     C_3   0.241033 0.470346 0.912153 0.367619
C29   C     C_3   0.746908 0.968487 0.587317 0.400940
C30   C     C_3   0.668913 0.030629 0.468107 0.361082
C31   C     C_3   0.757536 0.029519 0.586882 0.343839
C32   C     C_3   0.674758 0.969556 0.458826 0.360918
C33   C     C_3   0.320282 0.469552 0.035370 0.508251
C34   C     C_3   0.326298 0.529818 0.024439 0.515895
C35   C     C_3   0.819276 0.971828 0.461767 0.524943
C36   C     C_3   0.811446 0.031783 0.451443 0.514263
C37   C     C_3   0.245510 0.448786 0.997366 -0.414111
C38   C     C_3   0.248018 0.551048 0.997161 -0.405455
C39   C     C_3   0.747239 0.949149 0.502034 -0.401263
C40   C     C_3   0.745572 0.051368 0.502554 -0.405611
C41   C     C_R   0.002922 0.326015 0.856044 -0.281678
C42   C     C_R   0.046561 0.652986 0.205381 -0.291736
C43   C     C_R   0.994206 0.681424 0.870799 -0.311525
C44   C     C_R   0.147233 0.233970 0.293684 -0.248187
C45   C     C_R   0.477330 0.793785 0.384798 -0.283795
C46   C     C_R   0.611335 0.178802 0.773858 -0.246948
C47   C     C_R   0.491696 0.185638 0.372585 -0.266727
C48   C     C_R   0.647633 0.740483 0.795956 -0.230520
C49   C     C_R   0.947367 0.361546 0.861190 0.385876
C50   C     C_R   0.010380 0.608826 0.230926 0.349911
C51   C     C_R   0.937465 0.646348 0.879366 0.346784
C52   C     C_R   0.166909 0.232948 0.367839 0.399541
C53   C     C_R   0.417569 0.825089 0.395751 0.343276
C54   C     C_R   0.597727 0.131963 0.808832 0.318175
C55   C     C_R   0.436124 0.149730 0.380712 0.366035
C56   C     C_R   0.668587 0.747251 0.868828 0.389251
C57   C     C_R   0.375625 0.841052 0.335474 0.390116
C58   C     C_R   0.525880 0.117029 0.823999 0.336766
C59   C     C_R   0.383211 0.144627 0.326162 0.431631
C60   C     C_R   0.619798 0.768873 0.917662 0.322611
C61   C     C_R   0.885928 0.357504 0.816380 0.392566
C62   C     C_R   0.941724 0.612547 0.262056 0.365374
C63   C     C_R   0.880435 0.645097 0.828329 0.423253
C64   C     C_R   0.117989 0.250171 0.420100 0.342576
C65   C     C_R   0.390168 0.821687 0.265290 0.237360
C66   C     C_R   0.469112 0.152429 0.814697 0.296566
C67   C     C_R   0.382807 0.178537 0.265219 0.261244
C68   C     C_R   0.549324 0.781831 0.893319 0.285146
C69   C     C_R   0.881225 0.318710 0.763597 0.204776
C70   C     C_R   0.913546 0.660902 0.276565 0.263866
C71   C     C_R   0.880237 0.679354 0.767709 0.263566
C72   C     C_R   0.049292 0.267755 0.397427 0.285952
C73   C     C_R   0.442337 0.781893 0.257043 -0.084522
C74   C     C_R   0.485032 0.202804 0.787961 -0.082051
C75   C     C_R   0.441454 0.215745 0.255170 -0.066040
C76   C     C_R   0.522627 0.763751 0.823978 -0.071623
C77   C     C_R   0.941720 0.284226 0.753198 -0.074932
C78   C     C_R   0.958928 0.705929 0.267799 -0.066371
C79   C     C_R   0.940093 0.714991 0.756853 -0.055303
C80   C     C_R   0.023114 0.256617 0.324991 -0.045026
C81   C     C_R   0.000758 0.286559 0.803191 -0.021424
C82   C     C_R   0.021508 0.702592 0.223647 -0.022516
C83   C     C_R   0.996603 0.716122 0.810440 -0.013302
C84   C     C_R   0.075674 0.246929 0.271163 -0.030593
C85   C     C_R   0.492140 0.773538 0.314676 0.006284
C86   C     C_R   0.553759 0.212367 0.755686 -0.032102
C87   C     C_R   0.496953 0.217800 0.309325 -0.021599
C88   C     C_R   0.575284 0.749345 0.772320 -0.030734
C89   C     C_R   0.447573 0.750601 0.193883 -0.004414
C90   C     C_R   0.434091 0.243067 0.789995 0.007810
C91   C     C_R   0.447486 0.250299 0.193784 -0.010719
C92   C     C_R   0.446965 0.759281 0.803582 0.015208
C93   C     C_R   0.946173 0.248450 0.694870 -0.018100
C94   C     C_R   0.946634 0.752415 0.305326 -0.005372
C95   C     C_R   0.948436 0.747754 0.693815 -0.002820
C96   C     C_R   0.947970 0.249367 0.304421 -0.021934
C97   C     C_R   0.511213 0.721155 0.180077 -0.092306
C98   C     C_R   0.442673 0.285670 0.740634 -0.129759
C99   C     C_R   0.510721 0.282485 0.181681 -0.118142
C100  C     C_R   0.426747 0.753079 0.729230 -0.121532
C101  C     C_R   0.006508 0.214305 0.686468 -0.107232
C102  C     C_R   0.994958 0.795891 0.297745 -0.124999
C103  C     C_R   0.012774 0.778159 0.683666 -0.143875
C104  C     C_R   0.929104 0.242840 0.228338 -0.123932
C105  C     C_R   0.063964 0.215871 0.739693 -0.100636
C106  C     C_R   0.051791 0.793729 0.244699 -0.101422
C107  C     C_R   0.056918 0.788614 0.745224 -0.109970
C108  C     C_R   0.981359 0.257689 0.176163 -0.108188
C109  C     C_R   0.571384 0.727960 0.228463 -0.110623
C110  C     C_R   0.512272 0.295812 0.710578 -0.133074
C111  C     C_R   0.568470 0.281068 0.234738 -0.083326
C112  C     C_R   0.479146 0.734646 0.680316 -0.124841
C113  C     C_R   0.057482 0.250187 0.799719 0.017285
C114  C     C_R   0.059213 0.748417 0.202566 0.023881
C115  C     C_R   0.053788 0.752965 0.804568 0.037230
C116  C     C_R   0.055243 0.251525 0.196250 0.027495
C117  C     C_R   0.558249 0.748826 0.299281 0.033663
C118  C     C_R   0.563134 0.255505 0.708013 0.015873
C119  C     C_R   0.557876 0.251043 0.300052 0.039070
C120  C     C_R   0.554533 0.741246 0.698763 0.018601
C121  C     C_R   0.519530 0.687594 0.118383 0.255804
C122  C     C_R   0.384589 0.318160 0.718167 0.316541
C123  C     C_R   0.519411 0.315590 0.117761 0.237954
C124  C     C_R   0.356198 0.765646 0.701478 0.277959
C125  C     C_R   0.012114 0.178598 0.626603 0.253128
C126  C     C_R   0.991125 0.840816 0.342878 0.285205
C127  C     C_R   0.035582 0.798346 0.614312 0.255928
C128  C     C_R   0.860398 0.225458 0.200654 0.315794
C129  C     C_R   0.587104 0.664365 0.105512 0.309169
C130  C     C_R   0.399880 0.366573 0.686912 0.293189
C131  C     C_R   0.581462 0.347174 0.110125 0.331932
C132  C     C_R   0.335545 0.750948 0.630268 0.329390
C133  C     C_R   0.069963 0.143853 0.624210 0.327359
C134  C     C_R   0.035587 0.883858 0.327966 0.332194
C135  C     C_R   0.085158 0.839584 0.610899 0.349546
C136  C     C_R   0.836141 0.242825 0.131436 0.291517
C137  C     C_R   0.126861 0.146728 0.674827 0.328961
C138  C     C_R   0.091415 0.881040 0.277157 0.331149
C139  C     C_R   0.115844 0.858751 0.675438 0.333335
C140  C     C_R   0.883305 0.271457 0.086353 0.334083
C141  C     C_R   0.648489 0.678787 0.146194 0.339197
C142  C     C_R   0.472373 0.381750 0.674559 0.294731
C143  C     C_R   0.638745 0.343853 0.160207 0.319302
C144  C     C_R   0.382468 0.720791 0.589111 0.279193
C145  C     C_R   0.126668 0.183858 0.729661 0.303012
C146  C     C_R   0.103451 0.835296 0.240280 0.292076
C147  C     C_R   0.104000 0.832862 0.742558 0.275220
C148  C     C_R   0.957134 0.276986 0.106692 0.282152
C149  C     C_R   0.641740 0.713277 0.203889 0.297078
C150  C     C_R   0.528776 0.346343 0.685247 0.300148
C151  C     C_R   0.634736 0.309764 0.220098 0.294886
C152  C     C_R   0.452817 0.710071 0.615841 0.287428
H1    H     H_    0.048772 0.330679 0.893219 0.185282
H2    H     H_    0.097080 0.647216 0.176953 0.223141
H3    H     H_    0.036354 0.681186 0.912806 0.157046
H4    H     H_    0.187857 0.223653 0.254255 0.221153
H5    H     H_    0.512236 0.786388 0.431807 0.175634
H6    H     H_    0.667702 0.189228 0.764117 0.243920
H7    H     H_    0.531651 0.187052 0.416624 0.161562
H8    H     H_    0.687372 0.725829 0.758624 0.232970
C153  C     C_R   0.383037 0.042697 0.038565 0.430578
C154  C     C_R   0.379110 0.954178 0.954560 0.445855
C155  C     C_R   0.875956 0.539899 0.542607 0.422488
C156  C     C_R   0.886444 0.454024 0.453744 0.463097
C157  C     C_R   0.447748 0.016999 0.022801 -0.161022
C158  C     C_R   0.446140 0.975105 0.976136 -0.104325
C159  C     C_R   0.943683 0.516928 0.531499 -0.216891
C160  C     C_R   0.949580 0.476539 0.482740 -0.166577
C161  C     C_R   0.314146 0.974360 0.983611 -0.079333
C162  C     C_R   0.315729 0.024780 0.008011 -0.033467
C163  C     C_R   0.817371 0.473455 0.472753 -0.070089
C164  C     C_R   0.813636 0.522744 0.502308 -0.048056
C165  C     C_R   0.247931 0.946771 0.993640 -0.037010
C166  C     C_R   0.250538 0.053316 0.995481 -0.027610
C167  C     C_R   0.751696 0.445615 0.464671 -0.038092
C168  C     C_R   0.750071 0.552258 0.485860 -0.041908
C169  C     C_R   0.181237 0.974846 0.997074 -0.092689
C170  C     C_R   0.185559 0.026325 0.975577 -0.123303
C171  C     C_R   0.688461 0.473416 0.442499 -0.075085
C172  C     C_R   0.691030 0.528044 0.446417 -0.096666
C173  C     C_R   0.110451 0.955051 0.014015 0.331607
C174  C     C_R   0.125665 0.046965 0.935491 0.315147
C175  C     C_R   0.626549 0.449927 0.408330 0.296544
C176  C     C_R   0.636325 0.555951 0.407286 0.298375
C177  C     C_R   0.048499 0.978647 0.983206 0.276689
C178  C     C_R   0.057093 0.022509 0.938903 0.281068
C179  C     C_R   0.564389 0.478859 0.391468 0.300418
C180  C     C_R   0.569852 0.532211 0.389351 0.307524
H9    H     H_    0.499485 0.030411 0.044905 0.230119
H10   H     H_    0.496704 0.959015 0.956955 0.245803
H11   H     H_    0.991861 0.530586 0.560372 0.217977
H12   H     H_    0.002808 0.461621 0.469612 0.235322
Cl1   Cl    Cl    0.168455 0.437592 0.135135 -0.325001
Cl2   Cl    Cl    0.293241 0.561093 0.844062 -0.350502
Cl3   Cl    Cl    0.208210 0.545962 0.146392 -0.325584
Cl4   Cl    Cl    0.323400 0.452423 0.863355 -0.349966
Cl5   Cl    Cl    0.817804 0.938629 0.645194 -0.368432
Cl6   Cl    Cl    0.644705 0.062446 0.381232 -0.397339
Cl7   Cl    Cl    0.848831 0.047434 0.618635 -0.342548
Cl8   Cl    Cl    0.679333 0.953258 0.362139 -0.354345
Cl9   Cl    Cl    0.449287 0.671794 0.054635 -0.490539
Cl10  Cl    Cl    0.294444 0.293973 0.708895 -0.379657
Cl11  Cl    Cl    0.457966 0.319268 0.041815 -0.496947
Cl12  Cl    Cl    0.297820 0.807043 0.749423 -0.455045
Cl13  Cl    Cl    0.952006 0.175344 0.549587 -0.504351
Cl14  Cl    Cl    0.940545 0.844493 0.425175 -0.454233
Cl15  Cl    Cl    0.023387 0.763190 0.532877 -0.444634
Cl16  Cl    Cl    0.822929 0.165910 0.230407 -0.324626
Cl17  Cl    Cl    0.073711 0.097088 0.554432 -0.224773
Cl18  Cl    Cl    0.026853 0.941097 0.378172 -0.205415
Cl19  Cl    Cl    0.110653 0.866596 0.525111 -0.260652
Cl20  Cl    Cl    0.747339 0.226749 0.100052 -0.382479
Cl21  Cl    Cl    0.597174 0.620442 0.032917 -0.260321
Cl22  Cl    Cl    0.327894 0.408502 0.663680 -0.315829
Cl23  Cl    Cl    0.589915 0.390382 0.034421 -0.226503
Cl24  Cl    Cl    0.248783 0.767246 0.594460 -0.372113
Cl25  Cl    Cl    0.210822 0.190517 0.777832 -0.426409
Cl26  Cl    Cl    0.191385 0.829564 0.202091 -0.469962
Cl27  Cl    Cl    0.140801 0.862504 0.821732 -0.467101
Cl28  Cl    Cl    0.014288 0.315282 0.049897 -0.555911
Cl29  Cl    Cl    0.720821 0.749734 0.224123 -0.387494
Cl30  Cl    Cl    0.620260 0.368721 0.679109 -0.394043
Cl31  Cl    Cl    0.718391 0.302836 0.269271 -0.513902
Cl32  Cl    Cl    0.491917 0.652127 0.585961 -0.364601
Cl33  Cl    Cl    0.981472 0.048151 0.890643 -0.325875
Cl34  Cl    Cl    0.960432 0.952489 0.998502 -0.306394
Cl35  Cl    Cl    0.496823 0.569148 0.354138 -0.304646
Cl36  Cl    Cl    0.483341 0.448289 0.360634 -0.306624
Cl37  Cl    Cl    0.388108 0.086005 0.111555 -0.470759
Cl38  Cl    Cl    0.377024 0.913361 0.877935 -0.397222
Cl39  Cl    Cl    0.869772 0.579508 0.619578 -0.491741
Cl40  Cl    Cl    0.895662 0.409198 0.382764 -0.407311
C181  C     C_3   0.101766 0.450613 0.013418 -0.694011
H13   H     H_    0.079992 0.474003 0.968831 0.219735
H14   H     H_    0.103900 0.409971 0.996294 0.242618
H15   H     H_    0.057534 0.452884 0.054889 0.319696
C182  C     C_3   0.157921 0.550717 0.879862 -0.792833
H16   H     H_    0.110735 0.525917 0.890072 0.210849
H17   H     H_    0.143990 0.589941 0.896969 0.240614
H18   H     H_    0.158396 0.552496 0.818739 0.279998
C183  C     C_3   0.110512 0.558427 0.044853 -0.745933
H19   H     H_    0.116509 0.599815 0.057155 0.215219
H20   H     H_    0.081996 0.556233 0.992236 0.229206
H21   H     H_    0.070858 0.542039 0.084377 0.312530
C184  C     C_3   0.183331 0.444570 0.858903 -0.706432
H22   H     H_    0.197992 0.405795 0.840321 0.288755
H23   H     H_    0.127246 0.440728 0.878343 0.196679
H24   H     H_    0.181073 0.466448 0.806217 0.268023
C185  C     C_3   0.677797 0.949142 0.631509 -0.760426
H25   H     H_    0.631678 0.975071 0.631598 0.202826
H26   H     H_    0.656728 0.911272 0.614507 0.245347
H27   H     H_    0.689322 0.944615 0.691327 0.288172
C186  C     C_3   0.600666 0.048029 0.511335 -0.768196
H28   H     H_    0.589126 0.027641 0.562140 0.209580
H29   H     H_    0.603398 0.089748 0.522754 0.226687
H30   H     H_    0.549814 0.041032 0.479095 0.313427
C187  C     C_3   0.712521 0.054884 0.650246 -0.638498
H31   H     H_    0.655686 0.064190 0.637709 0.191061
H32   H     H_    0.713850 0.030570 0.700619 0.276731
H33   H     H_    0.736598 0.091252 0.670739 0.291431
C188  C     C_3   0.602597 0.940046 0.478527 -0.750306
H34   H     H_    0.609052 0.897983 0.473318 0.210389
H35   H     H_    0.579832 0.946931 0.532920 0.222129
H36   H     H_    0.558197 0.951377 0.439746 0.297760
Cl41  Cl    Cl    0.095726 0.913663 0.089990 -0.425638
Cl42  Cl    Cl    0.139519 0.093730 0.866306 -0.438949
Cl43  Cl    Cl    0.631987 0.390574 0.364009 -0.485535
Cl44  Cl    Cl    0.658146 0.612028 0.355783 -0.473056
Cl45  Cl    Cl    0.328775 0.451487 0.131368 -0.271997
Cl46  Cl    Cl    0.399711 0.548082 0.963633 -0.261936
Cl47  Cl    Cl    0.363586 0.561198 0.105051 -0.271807
Cl48  Cl    Cl    0.401076 0.437071 0.004731 -0.291616
Cl49  Cl    Cl    0.902016 0.955538 0.510465 -0.270471
Cl50  Cl    Cl    0.801235 0.049241 0.355184 -0.247744
Cl51  Cl    Cl    0.896873 0.065952 0.465353 -0.281525
Cl52  Cl    Cl    0.840919 0.941553 0.375495 -0.294961
Cl53  Cl    Cl    0.201116 0.104004 0.667180 -0.228634
Cl54  Cl    Cl    0.151015 0.934458 0.264704 -0.250824
Cl55  Cl    Cl    0.173537 0.913563 0.671003 -0.228753
Cl56  Cl    Cl    0.851148 0.296393 0.001566 -0.354410
Cl57  Cl    Cl    0.735534 0.656042 0.121339 -0.264929
Cl58  Cl    Cl    0.492172 0.444375 0.641716 -0.313936
Cl59  Cl    Cl    0.718087 0.382263 0.145758 -0.273222
Cl60  Cl    Cl    0.352792 0.695534 0.504223 -0.345171
Cl61  Cl    Cl    0.954707 0.410521 0.926348 -0.435797
Cl62  Cl    Cl    0.052672 0.548825 0.227972 -0.376308
Cl63  Cl    Cl    0.938699 0.604803 0.956461 -0.457058
Cl64  Cl    Cl    0.256463 0.216834 0.393348 -0.431160
Cl65  Cl    Cl    0.401662 0.848177 0.484673 -0.452714
Cl66  Cl    Cl    0.671751 0.091885 0.830501 -0.445706
Cl67  Cl    Cl    0.433374 0.112048 0.461626 -0.443727
Cl68  Cl    Cl    0.758545 0.732804 0.895891 -0.418895
Cl69  Cl    Cl    0.307808 0.887638 0.347627 -0.264567
Cl70  Cl    Cl    0.507327 0.053581 0.852465 -0.460257
Cl71  Cl    Cl    0.315768 0.095835 0.336068 -0.260070
Cl72  Cl    Cl    0.649000 0.783899 0.007715 -0.391606
Cl73  Cl    Cl    0.814142 0.401728 0.827353 -0.254793
Cl74  Cl    Cl    0.891873 0.556090 0.285202 -0.360256
Cl75  Cl    Cl    0.808573 0.600016 0.841295 -0.255285
Cl76  Cl    Cl    0.145655 0.255414 0.513047 -0.391390
Cl77  Cl    Cl    0.359990 0.858659 0.189072 -0.454751
Cl78  Cl    Cl    0.377899 0.130056 0.823952 -0.418638
Cl79  Cl    Cl    0.305269 0.171765 0.206856 -0.561611
Cl80  Cl    Cl    0.514895 0.837954 0.933513 -0.428085
Cl81  Cl    Cl    0.795485 0.314688 0.717565 -0.508847
Cl82  Cl    Cl    0.820129 0.661975 0.300662 -0.461863
Cl83  Cl    Cl    0.802664 0.674782 0.709348 -0.542725
Cl84  Cl    Cl    0.023800 0.324490 0.442464 -0.408146

loop_
_geom_bond_atom_site_label_1
_geom_bond_atom_site_label_2
_geom_bond_distance
_ccdc_geom_bond_type
C173  C177  1.405738 A    
C174  Cl42  1.759426 S    
C15   C119  1.450571 S    
C42   C50   1.398668 A    
C41   H1    1.081095 S    
C181  H13   1.084873 S    
C148  Cl28  1.768589 S    
C90   C98   1.427896 A    
O26   C7    1.273438 A    
C48   H8    1.075629 S    
C165  C169  1.432694 A    
C121  Cl9   1.774513 S    
O30   C11   1.277353 A    
C58   Cl70  1.758230 S    
C127  C135  1.401190 A    
C164  C168  1.429867 A    
C30   C40   1.623379 S    
C108  C116  1.408945 A    
C35   Cl49  1.801300 S    
C34   Cl46  1.803489 S    
Zn12  O26   1.920066 S    
C78   C82   1.408333 A    
C103  C107  1.404456 A    
C136  C140  1.399037 A    
C9    C113  1.451448 S    
C142  Cl58  1.767060 S    
C76   C92   1.435432 A    
C152  Cl32  1.772877 S    
C27   Cl3   1.819120 S    
C169  C170  1.395375 A    
C44   H4    1.075919 S    
C138  C146  1.397002 A    
C74   C90   1.413036 A    
O11   C7    1.271784 A    
O34   C15   1.291869 A    
C3    C89   1.438813 S    
C126  Cl14  1.770805 S    
C47   C55   1.383081 A    
C23   C39   1.508765 S    
Zn14  O30   1.923486 S    
Zn1   O44   1.970385 S    
C109  C149  1.424564 A    
C44   C52   1.394125 A    
Zn2   O43   1.970376 S    
C101  C125  1.447493 A    
C144  C152  1.403071 A    
C100  C112  1.406243 A    
Zn5   O48   1.970385 S    
Zn6   O47   1.970376 S    
C185  H27   1.112294 S    
C105  C145  1.440855 A    
Zn7   O46   1.958317 S    
C47   H7    1.081811 S    
O16   C12   1.271259 A    
C78   C94   1.420329 A    
C139  Cl55  1.770011 S    
Zn16  O4    1.965895 S    
Zn12  O4    1.946564 S    
C29   C185  1.579011 S    
C183  H19   1.109652 S    
C26   C28   1.603222 S    
Zn4   O16   1.933183 S    
C150  Cl30  1.771732 S    
C70   Cl82  1.769391 S    
C73   C89   1.422817 A    
C26   Cl2   1.839293 S    
C47   C87   1.418809 A    
C104  C128  1.423498 A    
C53   Cl65  1.761329 S    
C62   C70   1.396973 A    
C55   Cl67  1.760399 S    
C107  C115  1.416963 A    
C102  C106  1.426608 A    
C181  H15   1.113586 S    
C121  C129  1.405895 A    
C158  H10   1.082531 S    
C111  C151  1.443469 A    
C59   C67   1.409534 A    
C179  Cl36  1.768371 S    
C42   C82   1.421809 A    
C60   Cl72  1.767621 S    
C180  Cl35  1.767837 S    
C99   C123  1.448306 A    
C100  C124  1.423343 A    
Zn10  O22   1.920066 S    
C141  C149  1.398619 A    
C177  Cl34  1.766711 S    
C5    C95   1.450916 S    
C87   C119  1.415324 A    
O25   C8    1.280282 A    
Zn13  O29   1.940471 S    
C101  C105  1.425322 A    
C77   C93   1.425865 A    
Zn6   O4    1.936118 S    
Zn10  O2    1.946564 S    
C17   C166  1.456363 S    
C147  Cl27  1.769657 S    
C154  C158  1.393768 A    
O29   C12   1.285271 A    
C92   C100  1.411018 A    
C48   C88   1.410152 A    
C29   C39   1.638232 S    
C111  C119  1.428103 A    
C58   C66   1.405464 A    
C186  H28   1.081613 S    
O5    C1    1.290754 A    
C163  C167  1.405907 A    
O48   C23   1.286306 A    
C46   C86   1.412092 A    
C129  Cl21  1.771954 S    
C172  C176  1.425315 A    
C6    C96   1.466456 S    
C154  Cl38  1.765449 S    
C132  Cl24  1.766482 S    
C97   C109  1.416387 A    
C41   C81   1.417944 A    
Zn16  O35   1.929165 S    
C106  C114  1.425556 A    
C20   C167  1.497787 S    
C125  C133  1.402568 A    
Zn15  O33   1.940471 S    
C31   C40   1.643938 S    
C86   C118  1.421579 A    
Zn7   O10   1.933143 S    
C145  Cl25  1.775079 S    
O33   C16   1.264734 A    
C177  C178  1.399202 A    
C184  H23   1.091718 S    
C68   Cl80  1.769238 S    
C156  C160  1.394396 A    
C43   C51   1.385379 A    
C187  H32   1.108111 S    
C55   C59   1.388601 A    
C24   C40   1.498604 S    
C91   C99   1.439518 A    
C182  H17   1.106340 S    
Zn5   O17   1.925304 S    
C51   C63   1.392719 A    
C49   C61   1.388389 A    
C157  C158  1.392705 A    
C93   C101  1.436632 A    
C31   C187  1.578667 S    
C124  C132  1.404277 A    
C28   Cl4   1.823984 S    
C161  C162  1.393659 A    
C138  Cl54  1.773983 S    
C188  H35   1.094565 S    
C49   Cl61  1.757831 S    
O28   C5    1.276918 A    
C122  Cl10  1.768372 S    
C183  H20   1.089091 S    
C160  H12   1.082659 S    
Zn8   O3    1.960390 S    
C80   C96   1.434387 A    
C89   C97   1.427978 A    
O38   C18   1.289069 A    
C66   Cl78  1.771659 S    
C32   Cl8   1.818256 S    
C63   Cl75  1.770384 S    
C155  C164  1.423172 A    
C10   C114  1.471033 S    
C110  C118  1.413371 A    
O32   C9    1.281125 A    
C76   C88   1.408798 A    
C79   C83   1.416859 A    
C53   C57   1.395965 A    
C27   C38   1.623852 S    
C59   Cl71  1.772339 S    
C186  H30   1.111540 S    
Zn15  O51   1.969991 S    
C61   C69   1.405919 A    
Zn11  O28   1.923235 S    
C74   C86   1.411002 A    
C182  H16   1.089406 S    
C127  Cl15  1.764515 S    
C96   C104  1.436366 A    
C128  C136  1.403609 A    
O8    C4    1.276673 A    
C169  C173  1.424378 A    
C35   Cl52  1.814894 S    
C80   C84   1.405327 A    
O50   C18   1.266277 A    
O37   C17   1.271065 A    
C83   C115  1.417376 A    
C171  C175  1.425427 A    
C143  C151  1.399413 A    
Zn1   O1    1.936120 S    
C56   C60   1.393300 A    
C7    C93   1.432019 S    
C79   C95   1.429620 A    
C151  Cl31  1.777827 S    
C19   C168  1.487760 S    
C30   Cl6   1.829666 S    
C1    C91   1.438574 S    
C11   C115  1.447352 S    
O9    C5    1.301691 A    
C12   C116  1.447164 S    
C153  C157  1.400804 A    
O36   C13   1.283494 A    
C130  C142  1.399927 A    
C34   Cl47  1.814659 S    
C63   C71   1.410562 A    
C137  C145  1.399767 A    
O13   C9    1.268157 A    
Zn1   O8    1.944005 S    
C21   C37   1.502542 S    
Zn2   O7    1.925260 S    
C123  Cl11  1.777846 S    
C62   Cl74  1.772116 S    
Zn3   O6    1.933143 S    
C155  C159  1.400037 A    
O18   C14   1.279023 A    
O31   C10   1.299272 A    
O6    C2    1.311765 A    
C104  C108  1.400973 A    
C36   Cl51  1.809809 S    
C174  C178  1.403644 A    
C99   C111  1.427009 A    
C28   C37   1.644351 S    
C33   C34   1.584841 S    
C163  C164  1.402767 A    
C173  Cl41  1.763546 S    
C178  Cl33  1.766890 S    
C41   C49   1.387828 A    
C82   C114  1.423766 A    
Zn15  O3    1.946267 S    
C146  Cl26  1.766787 S    
Zn11  O3    1.966192 S    
C166  C170  1.422990 A    
O41   C21   1.280105 A    
C14   C118  1.493326 S    
C69   C77   1.449285 A    
Zn16  O34   1.923486 S    
C60   C68   1.404370 A    
C57   Cl69  1.763651 S    
C57   C65   1.407864 A    
C126  C134  1.404605 A    
C109  C117  1.428520 A    
Zn8   O20   1.933183 S    
C185  H26   1.103938 S    
Zn14  O2    1.965895 S    
C27   C183  1.563271 S    
C112  C120  1.427252 A    
C133  Cl17  1.774555 S    
C130  Cl22  1.767008 S    
C30   C186  1.556266 S    
C135  Cl19  1.768188 S    
C156  C163  1.414388 A    
C97   C121  1.442635 A    
C159  C160  1.391889 A    
C44   C84   1.413004 A    
C98   C110  1.411456 A    
C95   C103  1.424895 A    
C128  Cl16  1.771337 S    
C156  Cl40  1.763890 S    
C71   Cl83  1.771094 S    
C181  H14   1.110128 S    
C105  C113  1.427751 A    
C81   C113  1.416410 A    
Zn8   O9    1.926105 S    
C56   Cl68  1.758852 S    
C149  Cl29  1.763112 S    
C88   C120  1.406747 A    
C175  Cl43  1.759224 S    
O7    C3    1.280083 A    
C22   C38   1.505121 S    
C102  C126  1.442475 A    
O19   C15   1.282962 A    
C61   Cl73  1.772055 S    
C72   Cl84  1.769758 S    
Zn9   O24   1.923235 S    
Zn6   O18   1.944053 S    
Zn10  O23   1.940221 S    
C106  C146  1.433163 A    
C107  C147  1.433819 A    
C50   C62   1.387423 A    
C46   H6    1.079772 S    
C175  C179  1.402119 A    
C94   C102  1.436834 A    
C71   C79   1.442576 A    
C139  C147  1.405058 A    
C64   Cl76  1.768665 S    
C43   H3    1.082201 S    
Zn15  O36   1.920317 S    
O15   C11   1.296251 A    
O42   C22   1.262932 A    
Zn4   O1    1.960390 S    
O47   C24   1.269414 A    
C103  C127  1.424852 A    
C167  C171  1.425607 A    
C33   Cl48  1.807770 S    
C54   Cl66  1.759721 S    
C16   C120  1.479733 S    
Zn9   O37   1.960161 S    
O12   C8    1.276584 A    
C36   C40   1.619492 S    
Zn11  O39   1.960161 S    
C122  C130  1.404573 A    
C48   C56   1.390735 A    
O51   C19   1.288725 A    
C110  C150  1.420935 A    
C75   C91   1.430332 A    
Zn5   O3    1.936120 S    
C161  C165  1.415030 A    
C64   C72   1.400776 A    
C141  Cl57  1.770355 S    
C32   C188  1.563600 S    
C65   C73   1.428154 A    
Zn2   O14   1.944053 S    
C75   C87   1.411398 A    
C68   C76   1.433619 A    
C184  H22   1.107066 S    
C18   C165  1.457838 S    
C187  H31   1.092793 S    
O40   C20   1.287365 A    
Zn13  O1    1.946267 S    
Zn3   O42   1.958317 S    
C168  C172  1.438297 A    
C159  H11   1.082829 S    
Zn7   O4    1.960391 S    
O21   C4    1.302217 A    
C35   C36   1.580703 S    
C124  Cl12  1.769944 S    
C153  C162  1.425046 A    
C77   C81   1.408999 A    
Zn2   O2    1.936118 S    
C188  H34   1.110227 S    
C52   Cl64  1.754645 S    
C8    C94   1.446802 S    
C73   C85   1.401078 A    
C72   C80   1.431603 A    
C36   Cl50  1.812963 S    
Zn13  O49   1.969991 S    
O44   C21   1.271148 A    
C31   Cl7   1.822769 S    
C132  C144  1.398963 A    
C25   C181  1.554047 S    
C123  C131  1.402977 A    
Zn12  O27   1.940221 S    
C66   C74   1.423269 A    
C136  Cl20  1.767375 S    
C125  Cl13  1.777910 S    
C4    C90   1.494804 S    
Zn3   O2    1.960391 S    
C25   C37   1.623993 S    
C45   H5    1.080593 S    
C186  H29   1.111173 S    
C26   C182  1.574724 S    
O46   C24   1.279874 A    
Zn4   O41   1.958323 S    
C108  C148  1.424113 A    
C153  Cl37  1.756263 S    
Zn16  O52   1.960200 S    
C84   C116  1.414882 A    
C69   Cl81  1.776633 S    
C2    C92   1.474139 S    
Zn8   O45   1.958323 S    
C176  C180  1.398106 A    
O27   C6    1.286167 A    
C131  Cl23  1.775096 S    
C140  C148  1.405291 A    
C50   Cl62  1.755212 S    
O39   C19   1.282008 A    
C137  Cl53  1.774454 S    
C13   C117  1.451716 S    
C29   C31   1.601840 S    
C25   Cl1   1.833506 S    
C33   C37   1.620490 S    
O24   C1    1.284213 A    
C144  Cl60  1.767015 S    
C67   Cl79  1.775364 S    
C134  Cl18  1.769981 S    
C184  H24   1.110050 S    
C157  H9    1.082840 S    
C135  C139  1.394541 A    
C98   C122  1.421257 A    
O43   C22   1.288664 A    
C46   C54   1.391254 A    
C54   C58   1.396413 A    
C187  H33   1.109690 S    
Zn3   O15   1.926150 S    
Zn5   O12   1.944005 S    
Zn6   O11   1.925260 S    
C182  H18   1.112750 S    
Zn9   O21   1.928915 S    
Zn14  O50   1.960200 S    
C45   C53   1.389281 A    
O35   C14   1.299390 A    
Zn12  O40   1.969948 S    
Zn9   O1    1.966192 S    
O52   C20   1.285588 A    
C188  H36   1.112383 S    
C112  C152  1.422957 A    
Zn1   O13   1.925304 S    
C179  C180  1.394323 A    
C170  C174  1.419480 A    
C183  H21   1.104646 S    
C29   Cl5   1.838616 S    
O22   C3    1.267383 A    
C26   C38   1.642338 S    
C32   C39   1.628261 S    
C133  C137  1.387559 A    
C33   Cl45  1.809434 S    
C52   C64   1.393142 A    
Zn7   O19   1.926150 S    
C45   C85   1.416558 A    
C154  C161  1.414638 A    
C43   C83   1.414743 A    
C140  Cl56  1.766015 S    
Zn13  O32   1.920317 S    
C171  C172  1.428033 A    
O49   C17   1.284146 A    
Zn14  O31   1.929165 S    
C162  C166  1.428663 A    
C30   C32   1.609069 S    
C142  C150  1.403521 A    
C70   C78   1.439387 A    
C35   C39   1.616423 S    
C143  Cl59  1.775162 S    
C51   Cl63  1.761689 S    
C176  Cl44  1.770624 S    
C155  Cl39  1.756476 S    
Zn4   O5    1.926105 S    
C85   C117  1.409019 A    
O20   C16   1.307678 A    
C67   C75   1.450742 A    
O10   C6    1.283236 A    
O23   C2    1.258213 A    
Zn11  O25   1.928915 S    
C131  C143  1.387028 A    
C185  H25   1.087479 S    
Zn10  O38   1.969948 S    
C129  C141  1.392413 A    
O14   C10   1.270668 A    
C25   C27   1.603754 S    
C134  C138  1.386501 A    
C34   C38   1.614411 S    
C65   Cl77  1.767530 S    
O17   C13   1.269472 A    
C28   C184  1.579291 S    
O45   C23   1.267470 A    
C42   H2    1.076027 S    
