data_mof_unit_61912.cif
_audit_creation_date              2012-12-10T21:19:59-0500
_audit_creation_method            fapswitch 2.2
_symmetry_space_group_name_H-M    P1
_symmetry_Int_Tables_number       1
_space_group_crystal_system       triclinic
_cell_length_a                    16.77685
_cell_length_b                    16.648823
_cell_length_c                    17.531246
_cell_angle_alpha                 91.160234
_cell_angle_beta                  90.711149
_cell_angle_gamma                 85.266923
_cell_volume                      4878.75429758

loop_
_atom_site_label
_atom_site_type_symbol
_atom_type_description
_atom_site_fract_x
_atom_site_fract_y
_atom_site_fract_z
_atom_type_partial_charge
Br1   Br    Br    0.685562 0.621569 0.618916 -0.408829
Br2   Br    Br    0.313663 0.381392 0.378381 -0.447296
Br3   Br    Br    0.883028 0.619534 0.620549 -0.423336
Br4   Br    Br    0.116407 0.382039 0.378659 -0.432856
Br5   Br    Br    0.333049 0.764959 0.559826 -0.497315
Br6   Br    Br    0.694889 0.251611 0.495105 -0.490773
C1    C     C_R   0.499584 0.500892 0.353108 0.880515
C2    C     C_R   0.570962 0.510584 0.231713 -0.194217
C3    C     C_R   0.426567 0.533353 0.846489 -0.141345
C4    C     C_R   0.570210 0.521884 0.153639 -0.147329
C5    C     C_R   0.498895 0.531648 0.886543 0.145778
C6    C     C_R   0.497315 0.531198 0.114592 0.148588
C7    C     C_1   0.497976 0.536582 0.966821 -0.042270
C8    C     C_1   0.497277 0.536446 0.034516 -0.043950
C9    C     C_R   0.835557 0.449915 0.449089 -0.265725
C10   C     C_R   0.164645 0.549790 0.551577 -0.272782
C11   C     C_R   0.751336 0.451180 0.450055 -0.010446
C12   C     C_R   0.500256 0.501067 0.646920 0.895971
C13   C     C_R   0.248863 0.548570 0.550305 -0.024286
C14   C     C_R   0.745512 0.549718 0.549652 0.349344
C15   C     C_R   0.254229 0.451135 0.449732 0.343502
C16   C     C_R   0.511241 0.345650 0.499033 0.915373
C17   C     C_R   0.488834 0.653834 0.497586 0.931624
C18   C     C_R   0.829976 0.550030 0.550430 0.180279
C19   C     C_R   0.169782 0.450710 0.449331 0.184205
C20   C     C_R   0.875857 0.499535 0.499690 0.005057
C21   C     C_R   0.124138 0.500565 0.500763 0.005648
C22   C     C_1   0.963581 0.499399 0.499671 0.098226
C23   C     C_R   0.571863 0.518603 0.849182 -0.139889
C24   C     C_1   0.036416 0.500701 0.500993 0.097135
C25   C     C_R   0.517788 0.258144 0.484961 -0.133867
C26   C     C_R   0.481124 0.736868 0.472131 -0.102134
C27   C     C_R   0.446614 0.220441 0.474173 -0.193157
C28   C     C_R   0.538480 0.759958 0.421050 -0.224044
C29   C     C_R   0.448242 0.141362 0.448114 -0.117537
C30   C     C_R   0.529405 0.834892 0.387732 -0.145960
C31   C     C_R   0.521471 0.097812 0.432096 0.128790
C32   C     C_R   0.463193 0.888139 0.405674 0.127500
C33   C     C_R   0.592859 0.133343 0.446702 -0.180645
C34   C     C_R   0.424967 0.529098 0.152523 -0.148301
C35   C     C_R   0.404249 0.864688 0.454317 -0.168321
C36   C     C_R   0.592042 0.212646 0.473639 0.271553
C37   C     C_R   0.412922 0.789507 0.488238 0.266152
C38   C     C_2   0.526414 0.011921 0.410821 -0.182782
C39   C     C_2   0.462948 0.973344 0.388321 -0.204309
C40   C     C_R   0.572566 0.507307 0.770572 -0.143256
C41   C     C_R   0.425478 0.517866 0.230733 -0.152879
C42   C     C_R   0.500081 0.508969 0.729611 -0.050949
C43   C     C_R   0.498567 0.508524 0.270682 -0.044581
C44   C     C_R   0.427036 0.522060 0.767981 -0.176162
H1    H     H_    0.868962 0.410403 0.408919 0.196767
H2    H     H_    0.391775 0.114903 0.442482 0.148206
H3    H     H_    0.629509 0.497201 0.742058 0.190449
H4    H     H_    0.368977 0.516951 0.259786 0.190672
H5    H     H_    0.370392 0.524022 0.737459 0.164840
H6    H     H_    0.628042 0.503701 0.261423 0.162992
H7    H     H_    0.370047 0.542499 0.875992 0.147212
H8    H     H_    0.626263 0.522515 0.123646 0.146027
H9    H     H_    0.388846 0.252413 0.484716 0.205252
H10   H     H_    0.590032 0.719523 0.405877 0.177292
H11   H     H_    0.627878 0.516220 0.880852 0.151064
H12   H     H_    0.131404 0.588976 0.592124 0.198968
H13   H     H_    0.368518 0.535379 0.121610 0.150661
H14   H     H_    0.721193 0.412886 0.410496 0.175996
H15   H     H_    0.279159 0.586649 0.589939 0.184349
H16   H     H_    0.406024 0.005647 0.374575 0.160249
H17   H     H_    0.582194 0.977099 0.424979 0.164833
H18   H     H_    0.649770 0.098809 0.437962 0.170751
H19   H     H_    0.354025 0.906823 0.469663 0.169681
H20   H     H_    0.575411 0.852599 0.350184 0.153831
N1    N     N_R   0.707230 0.500020 0.500030 -0.132731
N2    N     N_R   0.292770 0.499980 0.499970 -0.133000
O1    O     O_R   0.566570 0.500000 0.389130 -0.640646
O2    O     O_R   0.433430 0.500000 0.610870 -0.630151
O3    O     O_R   0.433480 0.499990 0.389100 -0.584659
O4    O     O_R   0.566520 0.500010 0.610900 -0.581758
O5    O     O_R   0.574410 0.384200 0.500000 -0.574912
O6    O     O_R   0.425590 0.615800 0.500000 -0.588008
O7    O     O_R   0.441320 0.384200 0.499980 -0.594846
O8    O     O_R   0.558680 0.615800 0.500020 -0.591311
Zn1   Zn    Zn3+2 0.588860 0.500000 0.500020 1.011299
Zn2   Zn    Zn3+2 0.411140 0.500000 0.499980 1.006914

loop_
_geom_bond_atom_site_label_1
_geom_bond_atom_site_label_2
_ccdc_geom_bond_type
C34   C41   A    
C25   C36   A    
C33   H18   S    
C2    H6    S    
Br4   C19   S    
Br3   C18   S    
C41   C43   A    
C34   H13   S    
C4    H8    S    
C18   C20   A    
C16   O7    A    
C11   H14   S    
C32   C39   S    
C27   H9    S    
C14   C18   A    
C25   C27   A    
C14   N1    A    
C9    H1    S    
C17   O8    A    
C3    H7    S    
C10   C21   A    
C42   C44   A    
Br5   C37   S    
C12   O2    A    
C7    C8    T    
C21   C24   S    
C28   H10   S    
C35   C37   A    
C13   N2    A    
C10   H12   S    
O2    Zn2   S    
O1    Zn1   S    
C30   H20   S    
C33   C36   A    
C40   C42   A    
C23   H11   S    
C16   C25   S    
C15   N2    A    
C1    C43   S    
C32   C35   A    
C1    O1    A    
C9    C20   A    
C1    O3    A    
C26   C28   A    
C6    C34   A    
O6    Zn2   S    
O5    Zn1   S    
Br2   C15   S    
C3    C5    A    
C4    C6    A    
C41   H4    S    
C6    C8    S    
C11   N1    A    
C29   H2    S    
C38   C39   D    
C35   H19   S    
C9    C11   A    
C15   C19   A    
Br1   C14   S    
C12   O4    A    
C29   C31   A    
C3    C44   A    
C16   O5    A    
O8    Zn1   S    
C12   C42   S    
O4    Zn1   S    
O7    Zn2   S    
O3    Zn2   S    
C19   C21   A    
C20   C22   S    
C44   H5    S    
C23   C40   A    
C17   C26   S    
C31   C38   S    
C22   C24   T    
C31   C33   A    
C5    C7    S    
C10   C13   A    
C40   H3    S    
C30   C32   A    
C27   C29   A    
C26   C37   A    
C13   H15   S    
C28   C30   A    
C17   O6    A    
C5    C23   A    
C2    C4    A    
Br6   C36   S    
C39   H16   S    
C38   H17   S    
C2    C43   A    
N2    Zn2   S    
N1    Zn1   S    
