data_mof_unit_19879.cif
_audit_creation_date              2012-12-11T16:05:11-0500
_audit_creation_method            fapswitch 2.2
_symmetry_space_group_name_H-M    P1
_symmetry_Int_Tables_number       1
_space_group_crystal_system       triclinic
_cell_length_a                    10.688147
_cell_length_b                    10.698185
_cell_length_c                    16.82885
_cell_angle_alpha                 98.486537
_cell_angle_beta                  98.558802
_cell_angle_gamma                 60.825303
_cell_volume                      1655.16015908

loop_
_atom_site_label
_atom_site_type_symbol
_atom_type_description
_atom_site_fract_x
_atom_site_fract_y
_atom_site_fract_z
_atom_type_partial_charge
C1    C     C_R   0.383439 0.705915 0.386792 0.569320
C2    C     C_3   0.422902 0.638942 0.231357 -0.149779
C3    C     C_3   0.374927 0.745089 0.306317 0.053668
C4    C     C_R   0.370139 0.346721 0.358828 0.537599
C5    C     C_3   0.442168 0.830665 0.282084 -0.105256
C6    C     C_3   0.296307 0.926094 0.237395 -0.115677
C7    C     C_3   0.229763 0.840069 0.262319 -0.112978
C8    C     C_3   0.276512 0.734715 0.186530 -0.116127
C9    C     C_3   0.342415 0.820999 0.161850 0.057899
C10   C     C_3   0.464400 0.260815 0.773486 0.012570
C11   C     C_3   0.399108 0.398727 0.729950 -0.099786
C12   C     C_3   0.785603 0.268842 0.251318 -0.118584
C13   C     C_3   0.333217 0.329362 0.661150 0.046164
C14   C     C_3   0.397347 0.192987 0.705247 0.010911
C15   C     C_3   0.257587 0.260546 0.747437 -0.102559
C16   C     C_R   0.779665 0.375044 0.402748 0.543110
C17   C     C_3   0.193665 0.398210 0.702917 -0.141064
C18   C     C_3   0.259614 0.465173 0.773092 -0.142487
C19   C     C_3   0.325811 0.327388 0.816223 0.045176
C20   C     C_1   0.852846 0.329124 0.705156 -0.079874
C21   C     C_1   0.899284 0.295817 0.772869 -0.077983
C22   C     C_1   0.357580 0.758061 0.714828 -0.079114
C23   C     C_3   0.840074 0.336632 0.325615 0.057812
C24   C     C_1   0.326445 0.804660 0.782906 -0.081649
C25   C     C_R   0.962788 0.282220 0.102012 0.564839
C26   C     C_R   0.320033 0.300754 0.119769 0.536977
C27   C     C_R   0.298915 0.883475 0.085352 0.539764
C28   C     C_R   0.380389 0.713106 0.631309 0.558521
C29   C     C_R   0.944997 0.275304 0.856396 0.560864
C30   C     C_R   0.311276 0.297467 0.894432 0.535214
C31   C     C_R   0.283118 0.878251 0.860361 0.533366
C32   C     C_R   0.364437 0.343476 0.583286 0.535190
C33   C     C_R   0.780703 0.376742 0.628164 0.535268
C34   C     C_3   0.996279 0.243163 0.306067 -0.146815
C35   C     C_1   0.344596 0.337343 0.274895 -0.065419
C36   C     C_1   0.333104 0.327819 0.203470 -0.063202
C37   C     C_3   0.942499 0.175018 0.229974 -0.129935
C38   C     C_3   0.623768 0.198912 0.807956 -0.243020
C39   C     C_3   0.726996 0.107010 0.741635 -0.289392
C40   C     C_3   0.873065 0.986455 0.771298 -0.388913
C41   C     C_3   0.458766 0.033676 0.672450 -0.242897
C42   C     C_3   0.544757 0.933896 0.741125 -0.284868
C43   C     C_3   0.670902 0.788784 0.715831 -0.386067
C44   C     C_3   0.978345 0.363092 0.256636 -0.132070
C45   C     C_3   0.821385 0.456544 0.277043 -0.103261
C46   C     C_3   0.768198 0.387722 0.202323 -0.114504
C47   C     C_3   0.924018 0.295582 0.182708 0.052177
C48   C     C_3   0.488680 0.726471 0.205025 -0.137108
Cr1   Cr    Cr6+3 0.608340 0.611040 0.520430 0.980227
Cr2   Cr    Cr6+3 0.287650 0.601120 0.489350 1.010549
Cr3   Cr    Cr6+3 0.604040 0.287870 0.490280 0.999836
Cr4   Cr    Cr6+3 0.054020 0.052700 0.970850 0.984363
Cr5   Cr    Cr6+3 0.059230 0.375120 0.993390 1.006463
Cr6   Cr    Cr6+3 0.374950 0.061200 0.992340 1.002439
H1    H     H_    0.705747 0.230626 0.250865 0.131892
H2    H     H_    0.087692 0.184602 0.350574 0.116600
H3    H     H_    0.055920 0.403632 0.256627 0.120635
H4    H     H_    0.771704 0.572893 0.297355 0.130705
H5    H     H_    0.679331 0.439923 0.155368 0.123722
H6    H     H_    0.472847 0.520696 0.232007 0.100965
H7    H     H_    0.591764 0.686954 0.178481 0.118719
H8    H     H_    0.509743 0.869818 0.322979 0.131507
H9    H     H_    0.875089 0.964555 0.834054 0.176750
H10   H     H_    0.899391 0.885412 0.731973 0.120606
H11   H     H_    0.959361 0.012937 0.766107 0.185782
H12   H     H_    0.248378 0.044276 0.237420 0.107987
H13   H     H_    0.681314 0.055446 0.695032 0.176982
H14   H     H_    0.739614 0.177434 0.706509 0.180494
H15   H     H_    0.645242 0.289347 0.832922 0.158726
H16   H     H_    0.643082 0.136824 0.859800 0.152084
H17   H     H_    0.648741 0.700785 0.724104 0.186631
H18   H     H_    0.694018 0.781966 0.652710 0.177826
H19   H     H_    0.769882 0.770261 0.755735 0.119565
H20   H     H_    0.588819 0.983034 0.790514 0.178489
H21   H     H_    0.470387 0.920573 0.772206 0.178270
H22   H     H_    0.368190 0.013163 0.646003 0.160096
H23   H     H_    0.124668 0.884518 0.287640 0.132173
H24   H     H_    0.524459 0.011552 0.621892 0.148747
H25   H     H_    0.209158 0.694967 0.145864 0.130017
H26   H     H_    0.458709 0.456088 0.721701 0.102078
H27   H     H_    0.198483 0.202678 0.755699 0.102666
H28   H     H_    0.082908 0.450965 0.672728 0.129602
H29   H     H_    0.206604 0.576560 0.802136 0.127807
H30   H     H_    0.986656 0.062132 0.204035 0.129581
O1    O     O_R   0.751220 0.499230 0.435170 -0.528389
O2    O     O_R   0.412990 0.180750 0.091610 -0.505299
O3    O     O_R   0.366620 0.943130 0.065760 -0.496998
O4    O     O_R   0.477220 0.727600 0.436870 -0.500443
O5    O     O_R   0.160510 0.906330 0.879210 -0.534191
O6    O     O_R   0.930190 0.179050 0.889450 -0.502990
O7    O     O_R   0.909140 0.398170 0.896710 -0.498277
O8    O     O_R   0.186190 0.363460 0.918830 -0.511617
O9    O     O_R   0.401670 0.173200 0.913310 -0.529993
O10   O     O_R   0.356120 0.936130 0.900470 -0.503048
O11   O     O_3   0.162740 0.163010 0.985530 -0.286412
O12   O     O_R   0.297880 0.469080 0.560050 -0.510348
O13   O     O_R   0.258650 0.745120 0.411470 -0.514493
O14   O     O_R   0.297070 0.467240 0.395960 -0.514074
O15   O     O_R   0.488830 0.252610 0.387790 -0.511929
O16   O     O_R   0.724400 0.302390 0.420980 -0.501403
O17   O     O_R   0.752100 0.501210 0.612190 -0.534708
O18   O     O_R   0.478040 0.729440 0.600970 -0.502997
O19   O     O_R   0.259530 0.747110 0.588490 -0.497693
O20   O     O_R   0.489720 0.254590 0.564810 -0.527756
O21   O     O_R   0.725220 0.304230 0.585080 -0.502378
O22   O     O_3   0.500010 0.500010 0.500020 -0.285907
O23   O     O_R   0.171830 0.913880 0.057510 -0.531089
O24   O     O_R   0.940690 0.186050 0.054730 -0.493961
O25   O     O_R   0.920470 0.405720 0.075010 -0.511876
O26   O     O_R   0.196690 0.370460 0.084120 -0.519333

loop_
_geom_bond_atom_site_label_1
_geom_bond_atom_site_label_2
_ccdc_geom_bond_type
Cr5   O26   S    
C43   H19   S    
C38   H16   S    
C11   C18   S    
C34   H2    S    
C43   H18   S    
C23   C45   S    
C4    O14   A    
C46   H5    S    
Cr5   O11   S    
C34   C37   S    
C39   H14   S    
C13   C32   S    
Cr4   O6    S    
C35   C36   T    
C29   O7    A    
C6    C9    S    
C7    C8    S    
C15   H27   S    
C45   C46   S    
C15   C19   S    
C12   C23   S    
C42   H21   S    
C40   H9    S    
C33   O17   A    
C18   C19   S    
C30   O9    A    
C3    C7    S    
Cr1   O17   S    
Cr6   O3    S    
C2    H6    S    
Cr5   O25   S    
Cr4   O11   S    
C17   H28   S    
C41   C42   S    
C12   C37   S    
Cr6   O9    S    
Cr4   O23   S    
C8    C9    S    
C31   O5    A    
Cr5   O7    S    
C8    H25   S    
C32   O20   A    
C37   H30   S    
C37   C47   S    
C26   O26   A    
C44   C47   S    
C25   O25   A    
C7    H23   S    
C1    O4    A    
C38   H15   S    
Cr2   O19   S    
C22   C28   S    
C13   C14   S    
Cr1   O4    S    
Cr4   O5    S    
C29   O6    A    
C18   H29   S    
Cr3   O15   S    
C38   C39   S    
C5    C48   S    
C45   H4    S    
C42   H20   S    
Cr2   O14   S    
Cr1   O1    S    
C34   C44   S    
C12   C46   S    
C10   C14   S    
C1    O13   A    
Cr1   O18   S    
Cr6   O2    S    
C16   O16   A    
C26   O2    A    
C2    C48   S    
Cr3   O20   S    
C21   C29   S    
C1    C3    S    
Cr6   O10   S    
C11   H26   S    
C27   O23   A    
C10   C19   S    
Cr3   O21   S    
C23   C34   S    
Cr5   O8    S    
C17   C18   S    
C33   O21   A    
C27   O3    A    
Cr6   O11   S    
Cr1   O22   S    
C14   C41   S    
C20   C33   S    
C30   O8    A    
C32   O12   A    
C16   C23   S    
C40   H11   S    
C16   O1    A    
C22   C24   T    
C42   C43   S    
C41   H24   S    
C44   C45   S    
C9    C27   S    
C26   C36   S    
Cr3   O16   S    
C15   C17   S    
C25   C47   S    
C46   C47   S    
Cr2   O13   S    
C43   H17   S    
C39   H13   S    
C2    C8    S    
C3    C5    S    
C6    C7    S    
C31   O10   A    
C40   H10   S    
C13   C17   S    
C10   C38   S    
C2    C3    S    
C24   C31   S    
C41   H22   S    
C11   C13   S    
C28   O19   A    
Cr2   O12   S    
C48   H7    S    
C5    C6    S    
Cr3   O22   S    
C5    H8    S    
C4    C35   S    
C12   H1    S    
C10   C11   S    
C39   C40   S    
C28   O18   A    
C6    H12   S    
C20   C21   T    
Cr4   O24   S    
C9    C48   S    
C4    O15   A    
Cr2   O22   S    
C14   C15   S    
C19   C30   S    
C44   H3    S    
C25   O24   A    
