data_mof_unit_66640.cif
_audit_creation_date              2013-03-05T15:42:06-0500
_audit_creation_method            fapswitch 2.2
_symmetry_space_group_name_H-M    P1
_symmetry_Int_Tables_number       1
_space_group_crystal_system       triclinic
_cell_length_a                    8.357019
_cell_length_b                    15.12986
_cell_length_c                    16.382367
_cell_angle_alpha                 109.362517
_cell_angle_beta                  96.975784
_cell_angle_gamma                 81.164006
_cell_volume                      1925.51052058

loop_
_atom_site_label
_atom_site_type_symbol
_atom_site_description
_atom_site_fract_x
_atom_site_fract_y
_atom_site_fract_z
_atom_type_partial_charge
P1    P     P_3+3 0.589930 0.617420 0.700180 0.530824
O1    O     O_2   0.426270 0.593440 0.713420 -0.378104
O2    O     O_3   0.647730 0.570260 0.604850 -0.351475
O3    O     O_3   0.203920 0.417520 0.657950 -0.359112
O4    O     O_2   0.369943 0.508259 0.803716 -0.320692
O5    O     O_3   0.574331 0.737660 0.708971 -0.604605
O6    O     O_3   0.271476 0.357918 0.806304 -0.481334
H1    H     H_    0.059835 0.308649 0.733624 0.109132
C1    C     C_3   0.195096 0.207277 0.790358 -0.056610
H2    H     H_    0.277790 0.206649 0.848606 0.169570
P2    P     P_3+3 0.161520 0.277720 0.428790 0.521389
P3    P     P_3+3 0.668895 0.245325 0.615692 0.632495
O7    O     O_2   0.343970 0.269780 0.454840 -0.267792
O8    O     O_3   0.615710 0.361880 0.613490 -0.287929
O9    O     O_2   0.545554 0.190102 0.547114 -0.250457
O10   O     O_3   0.165976 0.232465 0.315280 -0.528986
O11   O     O_3   0.608224 0.232812 0.710802 -0.514683
C2    C     C_3   0.709520 0.272232 0.785661 0.832399
H3    H     H_    0.838081 0.245940 0.775559 -0.289992
C3    C     C_3   0.665269 0.245022 0.861960 -0.104270
H4    H     H_    0.532087 0.259828 0.867183 0.149693
C4    C     C_3   0.673047 0.190618 0.278989 0.882861
C5    C     C_3   0.634642 0.094934 0.213147 -0.734205
H5    H     H_    0.655212 0.091321 0.146278 0.260937
H6    H     H_    0.712341 0.035101 0.228320 0.242903
H7    H     H_    0.505862 0.085586 0.214198 0.262622
Ba1   Ba    Ba6+2 0.364960 0.465930 0.541880 1.680567
C6    C     C_3   0.433051 0.795769 0.741805 0.289463
H8    H     H_    0.334290 0.755731 0.743899 0.171638
C7    C     C_3   0.472800 0.865273 0.833025 0.326894
H9    H     H_    0.568760 0.906046 0.827768 0.096184
C8    C     C_3   0.179026 0.304811 0.281344 0.208848
H10   H     H_    0.300496 0.327506 0.301057 0.099273
H11   H     H_    0.086851 0.366714 0.305192 0.100686
C9    C     C_3   0.151855 0.270692 0.181832 -0.078222
H12   H     H_    0.191480 0.322020 0.155981 0.059511
H13   H     H_    0.020598 0.268865 0.161595 0.115224
P4    P     P_3+3 0.599780 0.382500 0.299810 0.501186
O12   O     O_2   0.763420 0.406520 0.286530 -0.398967
O13   O     O_3   0.541980 0.429670 0.395140 -0.355538
O14   O     O_3   0.985790 0.582400 0.342040 -0.383335
O15   O     O_3   0.578170 0.260714 0.249044 -0.608560
P5    P     P_3+3 0.536417 0.758058 0.393095 0.518293
O16   O     O_3   0.119470 0.618230 0.545790 -0.383664
O17   O     O_3   0.574000 0.638040 0.386500 -0.338687
O18   O     O_2   0.668292 0.809845 0.457227 -0.374545
O19   O     O_3   0.581680 0.765036 0.294361 -0.477065
Ba2   Ba    Ba6+2 0.824870 0.533990 0.458110 1.635995
P6    P     P_3+3 0.217540 0.457203 0.772432 0.548656
C10   C     C_3   0.135889 0.309481 0.794539 0.187879
H14   H     H_    0.061053 0.343141 0.850933 0.061729
H15   H     H_    0.091053 0.170611 0.791641 0.124734
O20   O     O_3   0.070240 0.381690 0.454200 -0.431226
C11   C     C_3   0.930503 0.814414 0.725521 0.249542
H16   H     H_    0.822097 0.783523 0.689910 0.149747
H17   H     H_    0.962635 0.785803 0.780482 0.126233
C12   C     C_3   0.886065 0.920169 0.761879 -0.670739
H18   H     H_    0.796987 0.944873 0.715761 0.223755
H19   H     H_    0.831158 0.937468 0.824430 0.268221
H20   H     H_    0.995302 0.957355 0.773499 0.291938
P7    P     P_3+3 0.032658 0.736721 0.566258 0.440885
O21   O     O_2   0.845720 0.730180 0.545110 -0.358068
O22   O     O_3   0.068242 0.794415 0.677921 -0.588785
H21   H     H_    0.723919 0.288147 0.924084 0.102760
C13   C     C_3   0.445835 0.808182 0.256530 0.233964
H22   H     H_    0.346700 0.762304 0.237388 0.053621
H23   H     H_    0.403095 0.878386 0.301651 0.073963
C14   C     C_3   0.497818 0.824108 0.176460 0.175417
H24   H     H_    0.592578 0.872735 0.199748 0.134474
P8    P     P_3+3 0.985660 0.555174 0.229662 0.503015
C15   C     C_3   0.976386 0.733818 0.260866 0.296494
H25   H     H_    0.106933 0.716036 0.279712 -0.018767
O23   O     O_2   0.863594 0.482895 0.186088 -0.367354
O24   O     O_3   0.906436 0.655993 0.201934 -0.469798
H26   H     H_    0.908413 0.760272 0.320203 0.160912
H27   H     H_    0.067851 0.794619 0.176217 0.101714
C16   C     C_3   0.965992 0.810681 0.218430 -0.131311
H28   H     H_    0.852865 0.811608 0.176269 0.186193
C17   C     C_2   0.305050 0.488096 0.252302 -0.521257
C18   C     C_R   0.916875 0.566160 0.759535 -0.173483
C19   C     C_2   0.501411 0.411157 0.143275 -0.165908
C20   C     C_2   0.466791 0.438212 0.226929 0.352796
C21   C     C_2   0.191336 0.509200 0.193678 0.143366
C22   C     C_3   0.242814 0.506388 0.106630 0.005423
C23   C     C_3   0.378346 0.426549 0.072674 0.081293
C24   C     C_2   0.110666 0.508382 0.034827 -0.151624
C25   C     C_2   0.125017 0.551645 0.975905 0.180152
C26   C     C_R   0.837095 0.586370 0.925931 0.300380
C27   C     C_R   0.997166 0.553926 0.904524 -0.197365
C28   C     C_R   0.715716 0.601920 0.863862 -0.078873
C29   C     C_R   0.753251 0.592021 0.780085 0.264852
C30   C     C_R   0.034364 0.536500 0.817962 0.187784
H29   H     H_    0.613701 0.366552 0.123093 0.160984
H30   H     H_    0.592141 0.620111 0.881295 0.209408
H31   H     H_    0.273822 0.498487 0.317478 0.161305
H32   H     H_    0.009258 0.468358 0.026902 0.144424
C31   C     C_R   0.246785 0.755476 0.456948 -0.444059
C32   C     C_R   0.337589 0.812824 0.434890 0.175442
C33   C     C_R   0.285499 0.910680 0.455434 -0.236147
C34   C     C_R   0.129927 0.948975 0.486757 0.173716
C35   C     C_R   0.035549 0.884574 0.498496 -0.269717
C36   C     C_R   0.103697 0.793945 0.496533 0.274929
C37   C     C_R   0.942496 0.100467 0.566415 0.150914
C38   C     C_R   0.873649 0.194070 0.573479 0.179754
C39   C     C_R   0.076250 0.205818 0.483005 0.260598
C40   C     C_R   0.130892 0.109295 0.466682 -0.184758
C41   C     C_R   0.067414 0.053978 0.507711 0.150439
C42   C     C_R   0.948568 0.246996 0.536467 -0.352161
H33   H     H_    0.367517 0.955628 0.447955 0.155036
H34   H     H_    0.222932 0.078182 0.421107 0.173014
H35   H     H_    0.911203 0.904163 0.513396 0.195852
H36   H     H_    0.900831 0.319945 0.545450 0.167990
H37   H     H_    0.295574 0.683433 0.451711 0.169339
C43   C     C_3   0.380641 0.853228 0.680012 -0.755172
H38   H     H_    0.360786 0.803840 0.614325 0.226233
H39   H     H_    0.268869 0.902713 0.698497 0.260326
H40   H     H_    0.479024 0.894172 0.678168 0.253584
N1    N     N_R   0.534162 0.814915 0.894323 0.219759
O25   O     O_R   0.681434 0.821398 0.930179 -0.393549
O26   O     O_R   0.436749 0.772200 0.920388 -0.405377
N2    N     N_R   0.329957 0.931621 0.865732 0.240638
O27   O     O_R   0.330353 0.021599 0.880768 -0.306837
O28   O     O_R   0.204517 0.901943 0.883683 -0.359204
N3    N     N_R   0.279277 0.155066 0.712121 0.276688
O29   O     O_R   0.340080 0.067813 0.700048 -0.375569
O30   O     O_R   0.289526 0.192913 0.652596 -0.346465
N4    N     N_R   0.240020 0.177835 0.142750 0.292020
O31   O     O_R   0.190058 0.103041 0.148655 -0.334186
O32   O     O_R   0.349836 0.168011 0.089482 -0.340696
N5    N     N_R   0.566682 0.735678 0.114707 0.277437
O33   O     O_R   0.560926 0.654132 0.124236 -0.359647
O34   O     O_R   0.650292 0.739228 0.054366 -0.351882
C44   C     C_3   0.358147 0.873019 0.131541 -0.804085
H41   H     H_    0.304497 0.938871 0.178846 0.278734
H42   H     H_    0.404363 0.892746 0.080034 0.318151
H43   H     H_    0.262603 0.826269 0.101745 0.242483
N6    N     N_R   0.970326 0.903475 0.283454 0.224632
O35   O     O_R   0.080233 0.955563 0.283356 -0.449367
O36   O     O_R   0.851857 0.939539 0.333832 -0.410249
N7    N     N_R   0.693045 0.373975 0.807433 0.210482
O37   O     O_R   0.780817 0.407878 0.767945 -0.526581
O38   O     O_R   0.627911 0.429129 0.877763 -0.449397
C45   C     C_3   0.968175 0.571202 0.676762 -0.617119
H44   H     H_    0.096051 0.585863 0.684860 0.241796
H45   H     H_    0.949354 0.505172 0.623019 0.247280
H46   H     H_    0.898984 0.630876 0.659510 0.209749
C46   C     C_3   0.263847 0.608569 0.987213 -0.657698
H47   H     H_    0.249876 0.647229 0.939349 0.243758
H48   H     H_    0.265415 0.661685 0.052778 0.216275
H49   H     H_    0.380709 0.561663 0.979480 0.279799
C47   C     C_3   0.891220 0.056768 0.627958 -0.941936
H50   H     H_    0.871872 0.108617 0.691524 0.260283
H51   H     H_    0.775263 0.026523 0.602777 0.272823
H52   H     H_    0.989252 0.005435 0.643540 0.247954
N8    N     N_R   0.719681 0.146260 0.851355 0.247570
O39   O     O_R   0.869440 0.121791 0.875241 -0.395742
O40   O     O_R   0.613440 0.087275 0.836157 -0.344401
C48   C     C_3   0.851564 0.195011 0.279097 -0.829345
H53   H     H_    0.882419 0.186899 0.212980 0.246832
H54   H     H_    0.879215 0.263892 0.324308 0.237714
H55   H     H_    0.923873 0.138015 0.301257 0.255183
N9    N     N_R   0.633027 0.197374 0.365441 0.225727
O41   O     O_R   0.657639 0.272463 0.430423 -0.392834
O42   O     O_R   0.594085 0.124317 0.380370 -0.379966

loop_
_geom_bond_atom_site_label_1
_geom_bond_atom_site_label_2
_geom_bond_distance
_ccdc_geom_bond_type
Ba1   Ba2   4.598929 S    
C45   H46   1.094759 S    
C17   C21   1.347525 D    
C3    H21   1.112882 S    
C35   C36   1.393148 A    
C3    N8    1.451924 S    
N8    O40   1.299654 A    
C46   H47   1.109737 S    
P5    C32   1.842148 S    
C38   C42   1.403230 A    
C43   H38   1.097927 S    
C28   C29   1.399403 A    
C4    O15   1.409349 S    
C16   H28   1.102176 S    
C2    N7    1.448637 S    
N6    O36   1.301146 A    
C25   C46   1.507020 S    
C21   C22   1.524367 S    
C14   C44   1.529261 S    
C9    H13   1.108512 S    
C22   C24   1.517222 S    
C2    H3    1.099173 S    
P4    O12   1.525435 D    
C4    N9    1.461763 S    
C12   H19   1.108422 S    
C11   O22   1.406846 S    
C45   H44   1.108022 S    
C33   H33   1.079884 S    
O2    Ba2   2.830492 S    
C1    N3    1.462394 S    
O13   Ba2   2.935765 S    
P1    O1    1.525122 D    
C47   H52   1.106676 S    
P7    O22   1.756571 S    
N1    O25   1.301044 A    
C48   H55   1.111217 S    
Ba1   O16   2.829213 S    
O14   Ba2   2.794267 S    
O5    C6    1.406447 S    
C9    H12   1.106000 S    
C14   H24   1.110602 S    
C13   H23   1.108674 S    
P3    O11   1.771355 S    
P8    O24   1.745741 S    
C44   H43   1.107246 S    
C47   H50   1.089128 S    
P3    O9    1.543892 D    
C28   H30   1.075184 S    
O1    Ba1   2.870669 S    
O8    Ba1   2.803533 S    
C1    H2    1.109990 S    
P4    Ba2   3.422782 S    
C31   C36   1.383289 A    
P2    O20   1.582391 S    
C37   C47   1.507072 S    
C26   C27   1.396966 A    
C18   C45   1.499413 S    
C5    H6    1.110110 S    
N6    O35   1.299335 A    
P1    C29   1.860799 S    
P4    O13   1.587430 S    
P4    C20   1.851607 S    
C48   H54   1.099377 S    
O4    P6    1.537104 D    
C1    H15   1.106593 S    
C31   C32   1.391437 A    
N9    O42   1.302538 A    
N7    O37   1.292490 A    
Ba2   O20   2.828609 S    
C39   C42   1.398129 A    
C11   H17   1.110949 S    
N8    O39   1.300498 A    
P1    O5    1.762176 S    
C8    C9    1.537478 S    
C46   H49   1.109500 S    
H27   C16   1.109010 S    
O6    P6    1.746864 S    
C24   C25   1.358599 D    
C12   H20   1.109381 S    
C4    C48   1.503279 S    
C19   C20   1.348087 D    
C42   H36   1.081801 S    
P1    O2    1.587418 S    
C8    H11   1.109966 S    
C18   C30   1.415198 A    
N5    O34   1.297227 A    
C14   N5    1.467004 S    
N4    O32   1.300959 A    
C17   H31   1.084744 S    
C17   C20   1.478000 S    
C19   H29   1.085465 S    
P2    O10   1.758667 S    
Ba2   O21   2.857620 S    
C33   C34   1.422263 A    
C7    N2    1.466420 S    
P2    Ba1   3.414045 S    
Ba1   O13   2.829919 S    
C5    H5    1.111653 S    
C13   C14   1.532187 S    
P8    O23   1.547340 D    
C10   H14   1.111088 S    
P2    C39   1.874222 S    
C22   C23   1.529254 S    
C27   C30   1.418127 A    
C9    N4    1.458325 S    
P8    C21   1.841924 S    
P5    O17   1.763692 S    
N2    O27   1.301076 A    
C24   H32   1.086542 S    
C26   C28   1.397507 A    
C13   H22   1.111650 S    
C25   C27   1.490703 S    
C44   H41   1.108806 S    
O10   C8    1.404981 S    
P6    C30   1.859808 S    
C31   H37   1.082421 S    
N4    O31   1.300697 A    
H1    C10   1.113585 S    
C15   C16   1.527630 S    
O3    Ba1   2.794873 S    
N3    O30   1.300685 A    
N9    O41   1.297275 A    
C40   H34   1.079762 S    
O17   Ba2   2.804146 S    
C45   H45   1.108768 S    
C11   H16   1.095648 S    
C6    H8    1.106163 S    
C34   C41   1.530240 S    
C46   H48   1.107778 S    
O7    Ba1   2.857369 S    
C1    C10   1.530884 S    
O6    C10   1.402333 S    
C16   N6    1.456615 S    
O12   Ba2   2.871115 S    
C15   O24   1.407429 S    
C43   H39   1.108270 S    
Ba1   O20   2.940253 S    
P3    C38   1.879304 S    
N7    O38   1.302072 A    
O16   P7    1.764550 S    
C35   H35   1.070656 S    
C7    N1    1.454001 S    
C39   C40   1.406616 A    
O11   C2    1.412175 S    
O3    P6    1.764478 S    
C8    H10   1.098453 S    
C18   C29   1.412920 A    
C6    C7    1.547294 S    
N5    O33   1.302556 A    
P3    O8    1.762423 S    
C15   H25   1.114016 S    
C15   H26   1.110894 S    
P2    O7    1.530049 D    
C7    H9    1.111333 S    
C12   H18   1.108989 S    
C48   H53   1.106692 S    
C6    C43   1.526840 S    
O2    Ba1   2.935000 S    
C34   C35   1.416211 A    
C5    H7    1.109688 S    
P7    C36   1.839889 S    
C2    C3    1.539121 S    
C47   H51   1.110224 S    
P7    O21   1.569626 D    
P5    O18   1.539651 D    
N1    O26   1.300677 A    
N2    O28   1.301585 A    
C43   H40   1.111565 S    
P4    O15   1.780190 S    
C3    H4    1.109099 S    
C32   C33   1.414904 A    
C40   C41   1.424672 A    
C37   C38   1.416756 A    
P1    Ba1   3.422220 S    
C44   H42   1.109894 S    
C4    C5    1.544504 S    
O14   P8    1.748088 S    
C37   C41   1.441941 A    
P5    O19   1.744879 S    
O19   C13   1.403131 S    
C19   C23   1.505260 S    
O16   Ba2   2.939405 S    
N3    O29   1.298171 A    
C11   C12   1.513965 S    
