data_mof_unit_26613.cif
_audit_creation_date              2012-12-10T20:51:27-0500
_audit_creation_method            fapswitch 2.2
_symmetry_space_group_name_H-M    P1
_symmetry_Int_Tables_number       1
_space_group_crystal_system       triclinic
_cell_length_a                    17.182936
_cell_length_b                    8.941653
_cell_length_c                    8.105906
_cell_angle_alpha                 90.0
_cell_angle_beta                  89.603531
_cell_angle_gamma                 90.000088
_cell_volume                      1245.39279897

loop_
_atom_site_label
_atom_site_type_symbol
_atom_type_description
_atom_site_fract_x
_atom_site_fract_y
_atom_site_fract_z
_atom_type_partial_charge
C1    C     C_R   0.500000 0.217959 0.500000 0.940559
C2    C     C_R   0.852885 0.575099 0.354268 0.450092
C3    C     C_R   0.763576 0.602404 0.642467 -0.348419
C4    C     C_R   0.236425 0.602405 0.357533 -0.348423
C5    C     C_R   0.224906 0.529899 0.644697 -0.338769
C6    C     C_R   0.775093 0.529898 0.355301 -0.338769
C7    C     C_R   0.730903 0.540506 0.499993 -0.132398
C8    C     C_R   0.269097 0.540506 0.500006 -0.132397
C9    C     C_R   0.883747 0.644971 0.494966 -0.067395
C10   C     C_R   0.116253 0.644973 0.505031 -0.067396
C11   C     C_1   0.965289 0.672941 0.498432 0.083785
C12   C     C_R   0.500000 0.782040 0.500000 0.937327
C13   C     C_1   0.034711 0.672941 0.501563 0.083788
C14   C     C_3   0.821407 0.779665 0.897536 0.117199
C15   C     C_3   0.861566 0.884867 0.018484 -0.294896
C16   C     C_3   0.804351 0.937135 0.151973 -0.974502
C17   C     C_3   0.178597 0.779669 0.102464 0.117200
C18   C     C_3   0.138443 0.884880 0.981521 -0.294914
C19   C     C_3   0.195662 0.937147 0.848039 -0.974477
C20   C     C_3   0.088124 0.409821 0.826521 0.103246
C21   C     C_3   0.028532 0.340501 0.708852 -0.396993
C22   C     C_3   0.998518 0.189094 0.767796 -0.971278
C23   C     C_1   0.500000 0.065160 0.500000 -0.200564
C24   C     C_3   0.911874 0.409820 0.173474 0.103242
C25   C     C_3   0.971463 0.340496 0.291146 -0.396988
C26   C     C_3   0.001478 0.189092 0.232197 -0.971282
C27   C     C_1   0.500000 0.934824 0.500000 -0.198471
C28   C     C_R   0.352048 0.504358 0.500361 0.910591
C29   C     C_R   0.647951 0.504358 0.499639 0.910591
C30   C     C_R   0.839704 0.661528 0.640588 0.439482
C31   C     C_R   0.160297 0.661531 0.359411 0.439487
C32   C     C_R   0.147114 0.575100 0.645730 0.450082
H1    H     H_    0.798464 0.682476 0.968563 0.165236
H2    H     H_    0.088551 0.827016 0.922959 0.276908
H3    H     H_    0.115758 0.983689 0.049318 0.210133
H4    H     H_    0.242445 0.005926 0.903822 0.262171
H5    H     H_    0.165315 0.005633 0.754462 0.262928
H6    H     H_    0.222401 0.839868 0.784217 0.279077
H7    H     H_    0.064459 0.407056 0.953775 0.187163
H8    H     H_    0.142383 0.341880 0.828348 0.120362
H9    H     H_    0.978039 0.416953 0.696189 0.241873
H10   H     H_    0.056801 0.325387 0.586537 0.214503
H11   H     H_    0.047280 0.114339 0.800275 0.274970
H12   H     H_    0.772841 0.843042 0.839471 0.127168
H13   H     H_    0.964172 0.135629 0.668345 0.279637
H14   H     H_    0.960031 0.203269 0.876692 0.258060
H15   H     H_    0.935541 0.407057 0.046222 0.187166
H16   H     H_    0.857614 0.341882 0.171643 0.120364
H17   H     H_    0.021957 0.416947 0.303819 0.241868
H18   H     H_    0.943192 0.325377 0.413457 0.214502
H19   H     H_    0.952718 0.114344 0.199691 0.274970
H20   H     H_    0.035815 0.135615 0.331655 0.279643
H21   H     H_    0.039975 0.203274 0.123317 0.258059
H22   H     H_    0.728141 0.607433 0.752878 0.158528
H23   H     H_    0.911457 0.826995 0.077039 0.276919
H24   H     H_    0.271860 0.607433 0.247123 0.158528
H25   H     H_    0.250573 0.486357 0.756532 0.167697
H26   H     H_    0.749426 0.486357 0.243466 0.167695
H27   H     H_    0.884254 0.983677 0.950690 0.210124
H28   H     H_    0.757582 0.005952 0.096205 0.262173
H29   H     H_    0.834705 0.005577 0.245572 0.262940
H30   H     H_    0.777594 0.839858 0.215764 0.279076
H31   H     H_    0.201537 0.682478 0.031435 0.165239
H32   H     H_    0.227166 0.843037 0.160530 0.127166
N1    N     N_1   0.500000 0.500000 0.073640 -0.040062
N2    N     N_1   0.500000 0.500000 0.926360 -0.040062
O1    O     O_R   0.500000 0.285350 0.636850 -0.612368
O2    O     O_3   0.124774 0.728843 0.222987 -0.629773
O3    O     O_3   0.101843 0.562025 0.787403 -0.640214
O4    O     O_3   0.898157 0.562024 0.212594 -0.640218
O5    O     O_R   0.500000 0.714650 0.363150 -0.615275
O6    O     O_R   0.500000 0.714650 0.636850 -0.615274
O7    O     O_R   0.500000 0.285350 0.363150 -0.612368
O8    O     O_R   0.389120 0.500000 0.636930 -0.618955
O9    O     O_R   0.610880 0.500000 0.363070 -0.618956
O10   O     O_R   0.610880 0.500000 0.636930 -0.621141
O11   O     O_R   0.389120 0.500000 0.363070 -0.621142
O12   O     O_3   0.875229 0.728834 0.777014 -0.629774
Zn1   Zn    Zn3+2 0.500000 0.500000 0.682780 0.972198
Zn2   Zn    Zn3+2 0.500000 0.500000 0.317220 0.972198

loop_
_geom_bond_atom_site_label_1
_geom_bond_atom_site_label_2
_ccdc_geom_bond_type
C7    C29   S    
C6    H26   S    
O10   Zn1   S    
C4    C8    A    
C28   O8    A    
C14   H1    S    
C24   O4    S    
C29   O10   A    
N2    Zn1   S    
O6    Zn1   S    
C3    C7    A    
C19   H4    S    
C17   H32   S    
C20   H8    S    
C3    H22   S    
C15   C16   S    
C18   C19   S    
C16   H28   S    
C25   H18   S    
C19   H5    S    
C10   C31   A    
C23   C27   T    
O9    Zn2   S    
C5    C32   A    
C12   O6    A    
N1    Zn2   S    
C21   C22   S    
C4    H24   S    
C2    C6    A    
C16   H30   S    
O5    Zn2   S    
C31   O2    S    
C12   C27   S    
C24   H16   S    
O1    Zn1   S    
C24   C25   S    
C20   H7    S    
C25   C26   S    
C15   H23   S    
C3    C30   A    
C19   H6    S    
C26   H20   S    
C18   H2    S    
C22   H11   S    
C17   C18   S    
C28   O11   A    
C9    C11   S    
C6    C7    A    
C9    C30   A    
C21   H9    S    
C22   H14   S    
C12   O5    A    
C1    C23   S    
O8    Zn1   S    
C8    C28   S    
C20   O3    S    
C16   H29   S    
C26   H21   S    
C14   H12   S    
C18   H3    S    
O11   Zn2   S    
C17   O2    S    
C24   H15   S    
C15   H27   S    
C10   C13   S    
C5    C8    A    
C32   O3    S    
C29   O9    A    
C5    H25   S    
C1    O7    A    
C26   H19   S    
C17   H31   S    
C11   C13   T    
C1    O1    A    
O7    Zn2   S    
C14   O12   S    
C25   H17   S    
C4    C31   A    
C21   H10   S    
C30   O12   S    
C10   C32   A    
C22   H13   S    
C20   C21   S    
N1    N2    T    
C14   C15   S    
C2    O4    S    
C2    C9    A    
