data_mof_unit_23134.cif
_audit_creation_date              2012-12-11T14:36:20-0500
_audit_creation_method            fapswitch 2.2
_symmetry_space_group_name_H-M    P1
_symmetry_Int_Tables_number       1
_space_group_crystal_system       triclinic
_cell_length_a                    13.451309
_cell_length_b                    13.510385
_cell_length_c                    27.496729
_cell_angle_alpha                 90.677537
_cell_angle_beta                  90.227153
_cell_angle_gamma                 60.265195
_cell_volume                      4338.77269589

loop_
_atom_site_label
_atom_site_type_symbol
_atom_type_description
_atom_site_fract_x
_atom_site_fract_y
_atom_site_fract_z
_atom_type_partial_charge
C1    C     C_R   0.620607 0.101307 0.570089 0.542402
C2    C     C_1   0.657778 0.693061 0.656533 -0.065030
C3    C     C_3   0.416462 0.659299 0.394413 -0.294853
C4    C     C_3   0.487272 0.411670 0.139348 -0.254966
C5    C     C_3   0.369670 0.431700 0.155387 -0.467986
C6    C     C_3   0.572221 0.336297 0.402470 -0.279439
C7    C     C_3   0.664626 0.370962 0.403412 -0.444477
C8    C     C_3   0.901188 0.936254 0.125021 -0.290086
C9    C     C_3   0.442246 0.995660 0.713909 -0.283955
C10   C     C_3   0.061768 0.166897 0.735427 -0.164468
C11   C     C_R   0.600261 0.778672 0.568576 0.542575
C12   C     C_3   0.146273 0.079143 0.772810 -0.128174
C13   C     C_1   0.089886 0.205873 0.900762 -0.020833
C14   C     C_1   0.222151 0.142267 0.615834 -0.012504
C15   C     C_3   0.048103 0.267193 0.768815 -0.139434
C16   C     C_3   0.133349 0.179165 0.805544 0.010931
C17   C     C_3   0.151127 0.264583 0.742829 0.154213
C18   C     C_3   0.163523 0.166807 0.709546 0.055114
C19   C     C_1   0.635412 0.725772 0.615211 -0.020959
C20   C     C_3   0.234553 0.178719 0.779654 0.206578
C21   C     C_3   0.246669 0.081360 0.746579 0.179830
C22   C     C_1   0.113037 0.189933 0.858107 -0.060253
C23   C     C_R   0.276445 0.122432 0.569208 0.542228
C24   C     C_1   0.188990 0.155702 0.657306 -0.032895
C25   C     C_3   0.672851 0.261642 0.738013 -0.104606
C26   C     C_3   0.576637 0.282667 0.774595 -0.097918
C27   C     C_1   0.692146 0.209252 0.902449 -0.019217
C28   C     C_1   0.637339 0.134410 0.617814 -0.019054
C29   C     C_3   0.762212 0.168198 0.771551 -0.101342
C30   C     C_3   0.656133 0.571484 0.767099 -0.102812
C31   C     C_3   0.665808 0.188830 0.807266 0.053930
C32   C     C_3   0.743832 0.076899 0.744976 -0.103729
C33   C     C_3   0.654604 0.170469 0.712263 0.046891
C34   C     C_3   0.647747 0.097720 0.781384 -0.102068
C35   C     C_R   0.622757 0.099519 0.431313 0.532980
C36   C     C_3   0.558262 0.191276 0.747961 -0.097840
C37   C     C_1   0.676278 0.198962 0.859956 -0.062955
C38   C     C_1   0.646847 0.154494 0.659859 -0.061777
C39   C     C_R   0.730902 0.695869 0.359003 -0.180193
C40   C     C_R   0.744712 0.676987 0.308876 0.001334
C41   C     C_3   0.693088 0.635120 0.803084 0.052725
C42   C     C_R   0.762050 0.665013 0.206544 0.044874
C43   C     C_R   0.851924 0.658141 0.235437 -0.134556
C44   C     C_R   0.844604 0.660539 0.286041 -0.154682
C45   C     C_R   0.769301 0.656089 0.155225 0.133997
C46   C     C_R   0.682126 0.648258 0.129399 -0.003308
C47   C     C_R   0.599632 0.777556 0.429554 0.552247
C48   C     C_R   0.539088 0.717594 0.353348 0.135340
C49   C     C_R   0.553017 0.698680 0.303103 0.024531
C50   C     C_R   0.654056 0.683179 0.280693 0.038725
C51   C     C_R   0.464471 0.702110 0.274346 -0.136586
C52   C     C_3   0.576233 0.686096 0.742166 -0.100085
C53   C     C_R   0.471857 0.699409 0.224317 -0.141148
C54   C     C_R   0.569641 0.688165 0.201985 0.004909
C55   C     C_R   0.662614 0.677594 0.229759 0.036546
C56   C     C_R   0.578279 0.678650 0.152131 -0.157338
C57   C     C_R   0.626824 0.722835 0.381055 0.009477
C58   C     C_R   0.206533 0.062865 0.357635 -0.139647
C59   C     C_R   0.279209 0.120362 0.430489 0.545421
C60   C     C_R   0.185566 0.072446 0.307448 0.013449
C61   C     C_R   0.147309 0.092500 0.206521 0.013415
C62   C     C_R   0.146048 0.003565 0.231919 -0.129344
C63   C     C_3   0.675448 0.666603 0.708498 0.053046
C64   C     C_R   0.166311 0.992878 0.282027 -0.131620
C65   C     C_R   0.118186 0.109959 0.157322 -0.133493
C66   C     C_R   0.114076 0.203288 0.133216 -0.004326
C67   C     C_R   0.219558 0.236029 0.356642 -0.126996
C68   C     C_R   0.203638 0.244122 0.306825 0.010626
C69   C     C_R   0.187036 0.161942 0.281910 0.063958
C70   C     C_R   0.207882 0.331327 0.281467 -0.128316
C71   C     C_3   0.755426 0.552089 0.732655 -0.104117
C72   C     C_R   0.194890 0.337718 0.231265 -0.134916
C73   C     C_R   0.175435 0.258279 0.206153 0.013675
C74   C     C_3   0.613698 0.749031 0.778810 -0.105729
C75   C     C_R   0.171046 0.170132 0.231450 0.065229
C76   C     C_R   0.152701 0.270296 0.156634 -0.144284
C77   C     C_R   0.227515 0.142471 0.381973 -0.003269
C78   C     C_R   0.602369 0.240180 0.365784 0.004364
C79   C     C_R   0.600421 0.258445 0.314725 0.036797
C80   C     C_R   0.592333 0.289915 0.212522 0.025392
C81   C     C_R   0.544712 0.383717 0.244805 -0.132040
C82   C     C_R   0.549865 0.368290 0.294894 -0.138933
C83   C     C_3   0.792832 0.615121 0.769648 -0.099481
C84   C     C_R   0.585165 0.303863 0.161608 -0.011069
C85   C     C_3   0.712791 0.729862 0.744563 -0.102873
C86   C     C_R   0.665737 0.211347 0.132239 -0.005371
C87   C     C_R   0.691479 0.035718 0.349301 -0.137596
C88   C     C_R   0.696715 0.052543 0.300198 0.001852
C89   C     C_R   0.648851 0.163602 0.282247 0.048754
C90   C     C_R   0.745057 0.958749 0.268673 -0.147965
C91   C     C_R   0.748332 0.973392 0.219090 -0.117087
C92   C     C_R   0.703751 0.083223 0.199995 0.037276
C93   C     C_R   0.649356 0.179103 0.231582 0.016379
C94   C     C_R   0.716612 0.099140 0.150467 0.121648
C95   C     C_1   0.701766 0.599520 0.898611 -0.018587
C96   C     C_1   0.697712 0.619018 0.855793 -0.064086
C97   C     C_R   0.641805 0.127704 0.382102 0.009132
C98   C     C_R   0.047925 0.237144 0.949492 0.544069
C99   C     C_R   0.712277 0.561592 0.947763 0.543424
C100  C     C_R   0.722229 0.225801 0.950777 0.539963
C101  C     C_R   0.049904 0.243967 0.087858 0.549779
C102  C     C_R   0.706739 0.578744 0.085038 0.548667
C103  C     C_R   0.715653 0.233261 0.088404 0.542672
C104  C     C_3   0.389560 0.098962 0.839823 -0.321375
C105  C     C_3   0.144050 0.447235 0.759318 -0.312065
C106  C     C_3   0.971718 0.568329 0.131192 -0.289513
Cr1   Cr    Cr6+3 0.417550 0.169090 0.500530 1.014937
Cr2   Cr    Cr6+3 0.669180 0.913420 0.499920 1.016278
Cr3   Cr    Cr6+3 0.413260 0.917540 0.499520 1.031083
Cr4   Cr    Cr6+3 0.909170 0.177380 0.020380 1.007981
Cr5   Cr    Cr6+3 0.912710 0.429210 0.018220 1.002898
Cr6   Cr    Cr6+3 0.657170 0.432570 0.019030 1.004474
H1    H     H_    0.881684 0.586395 0.781743 0.099574
H2    H     H_    0.797613 0.698776 0.380183 0.120676
H3    H     H_    0.928452 0.651072 0.219634 0.129442
H4    H     H_    0.914869 0.655812 0.307274 0.103763
H5    H     H_    0.508040 0.680984 0.131617 0.128747
H6    H     H_    0.401634 0.703961 0.203063 0.098231
H7    H     H_    0.387685 0.708578 0.289765 0.107462
H8    H     H_    0.091042 0.055942 0.138929 0.119847
H9    H     H_    0.210383 0.992107 0.377329 0.115973
H10   H     H_    0.128240 0.943110 0.213136 0.095533
H11   H     H_    0.735819 0.795472 0.734753 0.098838
H12   H     H_    0.966344 0.344812 0.778512 0.113545
H13   H     H_    0.165568 0.923355 0.300954 0.095867
H14   H     H_    0.155298 0.338464 0.137376 0.110954
H15   H     H_    0.196226 0.406865 0.212317 0.095913
H16   H     H_    0.221609 0.394308 0.300443 0.101913
H17   H     H_    0.234315 0.299102 0.374958 0.134990
H18   H     H_    0.504865 0.470107 0.231677 0.121932
H19   H     H_    0.511234 0.443804 0.317464 0.108439
H20   H     H_    0.557688 0.828924 0.799101 0.089802
H21   H     H_    0.786312 0.898012 0.196095 0.161788
H22   H     H_    0.781317 0.873822 0.282696 0.124277
H23   H     H_    0.507506 0.367193 0.787393 0.101548
H24   H     H_    0.722310 0.949360 0.361773 0.136676
H25   H     H_    0.487304 0.714321 0.730204 0.114870
H26   H     H_    0.632667 0.506335 0.777141 0.103930
H27   H     H_    0.146045 0.001569 0.785503 0.108773
H28   H     H_    0.990585 0.162383 0.716945 0.113767
H29   H     H_    0.303441 0.265505 0.817095 0.247504
H30   H     H_    0.469349 0.099692 0.849403 0.140549
H31   H     H_    0.412502 0.013065 0.825822 0.147231
H32   H     H_    0.337900 0.116947 0.873465 0.145192
H33   H     H_    0.091760 0.401059 0.695919 0.249853
H34   H     H_    0.683581 0.328486 0.719636 0.101107
H35   H     H_    0.107737 0.532415 0.742328 0.132424
H36   H     H_    0.231365 0.423104 0.772026 0.152308
H37   H     H_    0.089164 0.453995 0.790712 0.135860
H38   H     H_    0.833208 0.702863 0.095985 0.252811
H39   H     H_    0.001222 0.534606 0.093892 0.171934
H40   H     H_    0.976001 0.499438 0.154299 0.168045
H41   H     H_    0.030730 0.596387 0.145966 0.107096
H42   H     H_    0.359525 0.810344 0.355844 0.237191
H43   H     H_    0.416354 0.603036 0.364883 0.109480
H44   H     H_    0.333569 0.696038 0.414105 0.134898
H45   H     H_    0.473740 0.202281 0.737338 0.142197
H46   H     H_    0.486004 0.609695 0.420643 0.165471
H47   H     H_    0.362656 0.354405 0.147838 0.160194
H48   H     H_    0.353748 0.453689 0.194576 0.148624
H49   H     H_    0.301568 0.503804 0.134751 0.120982
H50   H     H_    0.496372 0.487068 0.148475 0.147620
H51   H     H_    0.484922 0.405193 0.099324 0.173655
H52   H     H_    0.750333 0.294741 0.408625 0.161697
H53   H     H_    0.665153 0.413460 0.369220 0.162110
H54   H     H_    0.648794 0.430760 0.434240 0.130931
H55   H     H_    0.486873 0.410182 0.394554 0.123883
H56   H     H_    0.638766 0.029415 0.799309 0.096461
H57   H     H_    0.566183 0.310995 0.439991 0.160493
H58   H     H_    0.750273 0.012253 0.083277 0.257341
H59   H     H_    0.945314 0.942624 0.092160 0.152498
H60   H     H_    0.926607 0.845315 0.129880 0.142389
H61   H     H_    0.930721 0.965579 0.157097 0.143833
H62   H     H_    0.377909 0.915385 0.758116 0.233976
H63   H     H_    0.489933 0.008012 0.744116 0.145771
H64   H     H_    0.408431 0.070199 0.689506 0.164173
H65   H     H_    0.502539 0.919124 0.692645 0.152984
H66   H     H_    0.812899 0.992275 0.732231 0.103583
H67   H     H_    0.846386 0.158553 0.781964 0.109301
H68   H     H_    0.813428 0.471332 0.713128 0.099942
N1    N     N_2   0.327180 0.185292 0.803849 -0.522719
N2    N     N_2   0.149965 0.364698 0.723771 -0.512297
N3    N     N_2   0.856718 0.664763 0.129557 -0.528597
N4    N     N_2   0.429894 0.750270 0.374432 -0.479309
N5    N     N_2   0.777887 0.002654 0.118852 -0.513749
N6    N     N_2   0.351334 0.979231 0.732915 -0.518942
O1    O     O_R   0.301710 0.195650 0.554160 -0.507066
O2    O     O_R   0.635520 0.542770 0.964420 -0.509558
O3    O     O_R   0.665950 0.325030 0.970100 -0.497379
O4    O     O_R   0.522390 0.158990 0.550460 -0.495971
O5    O     O_R   0.816620 0.158530 0.074540 -0.506472
O6    O     O_R   0.004460 0.188870 0.069750 -0.501130
O7    O     O_R   0.025800 0.341780 0.072300 -0.535146
O8    O     O_R   0.807650 0.528950 0.067500 -0.489278
O9    O     O_R   0.633420 0.550490 0.071810 -0.528819
O10   O     O_R   0.664000 0.332180 0.069640 -0.513017
O11   O     O_3   0.826350 0.346390 0.019210 -0.236225
O12   O     O_R   0.658900 0.818120 0.449760 -0.512361
O13   O     O_R   0.694390 0.003530 0.554040 -0.506869
O14   O     O_R   0.657700 0.819660 0.549320 -0.495657
O15   O     O_R   0.501930 0.803280 0.552920 -0.508100
O16   O     O_R   0.318170 0.023580 0.549580 -0.493362
O17   O     O_R   0.303010 0.193990 0.446760 -0.523670
O18   O     O_R   0.523600 0.157450 0.450900 -0.503194
O19   O     O_R   0.695690 0.001860 0.446640 -0.521017
O20   O     O_R   0.503220 0.801620 0.445520 -0.474971
O21   O     O_R   0.319370 0.022040 0.450020 -0.494221
O22   O     O_3   0.499990 0.000010 0.499990 -0.245864
O23   O     O_R   0.818720 0.150820 0.967160 -0.512616
O24   O     O_R   0.006410 0.181720 0.970200 -0.495163
O25   O     O_R   0.027890 0.334070 0.964920 -0.512091
O26   O     O_R   0.809600 0.521790 0.967960 -0.499225

loop_
_geom_bond_atom_site_label_1
_geom_bond_atom_site_label_2
_ccdc_geom_bond_type
C14   C23   S    
C87   C88   A    
C30   H26   S    
C74   H20   S    
C18   C21   S    
C76   H14   S    
C56   H5    S    
C83   H1    S    
C95   C96   T    
C67   C77   A    
C94   N5    S    
C62   H10   S    
C80   C84   A    
C101  O6    A    
C102  O9    A    
C59   C77   S    
C81   C82   A    
C90   C91   A    
C48   C57   A    
Cr4   O24   S    
C53   C54   A    
C61   C75   A    
C98   O24   A    
C11   C19   S    
C18   C24   S    
Cr3   O16   S    
C10   C18   S    
C29   C32   S    
C52   C74   S    
C10   C15   S    
C90   H22   S    
C95   C99   S    
C35   O18   A    
C6    C78   S    
C41   C96   S    
C59   O21   A    
C15   C16   S    
C105  H35   S    
Cr1   O1    S    
Cr4   O5    S    
C17   C20   S    
C104  H31   S    
Cr1   O4    S    
C9    H64   S    
C11   O15   A    
C14   C24   T    
C13   C98   S    
Cr3   O21   S    
C11   O14   A    
Cr6   O10   S    
C5    H48   S    
C62   C64   A    
C26   H23   S    
C86   C94   A    
C58   C77   A    
C43   H3    S    
Cr6   O3    S    
Cr5   O26   S    
C17   N2    S    
C35   O19   A    
C12   C16   S    
C68   C69   A    
C49   C51   A    
H42   N4    S    
C3    H46   S    
C51   H7    S    
C104  H32   S    
C47   O12   A    
C85   H11   S    
C25   H34   S    
C105  N2    S    
C52   H25   S    
C3    N4    S    
C40   C44   A    
C34   C36   S    
C61   C62   A    
C64   H13   S    
C8    H59   S    
Cr2   O22   S    
C1    O4    A    
C39   H2    S    
C104  N1    S    
C41   C74   S    
C26   C31   S    
C63   C85   S    
Cr4   O11   S    
Cr2   O12   S    
C73   C75   A    
C66   C101  S    
C32   H66   S    
C1    O13   A    
C10   H28   S    
C34   H56   S    
C86   C103  S    
C102  O8    A    
C104  H30   S    
C3    H43   S    
C99   O2    A    
C101  O7    A    
C30   C71   S    
C71   C83   S    
C99   O26   A    
C25   C29   S    
C54   C56   A    
C27   C100  S    
C4    H51   S    
C106  H40   S    
C15   H12   S    
C23   O16   A    
C67   C68   A    
C21   N6    S    
C9    N6    S    
C91   C92   A    
C48   N4    S    
C53   H6    S    
C72   C73   A    
C72   H15   S    
C5    H47   S    
C25   C26   S    
C45   C46   A    
C105  H36   S    
H33   N2    S    
C31   C37   S    
C51   C53   A    
C42   C45   A    
C32   C34   S    
C71   H68   S    
Cr2   O14   S    
Cr3   O22   S    
C43   C44   A    
Cr6   O9    S    
Cr1   O17   S    
C59   O17   A    
C42   C55   A    
C47   C57   S    
C46   C102  S    
C4    C84   S    
C28   C38   T    
C16   C20   S    
C106  H41   S    
C66   C76   A    
C78   C97   A    
C92   C94   A    
C17   C18   S    
C12   H27   S    
C30   C41   S    
C1    C28   S    
C100  O23   A    
C20   C21   S    
C39   C57   A    
Cr1   O22   S    
C6    C7    S    
C10   C12   S    
C91   H21   S    
Cr5   O7    S    
C36   H45   S    
C26   C36   S    
C48   C49   A    
C83   C85   S    
C7    H54   S    
C63   C71   S    
C65   C66   A    
C100  O3    A    
C29   H67   S    
C73   C76   A    
C4    H50   S    
C80   C81   A    
Cr4   O23   S    
C103  O5    A    
C103  O10   A    
C69   C75   A    
Cr6   O11   S    
C39   C40   A    
C9    H65   S    
C2    C63   S    
C45   N3    S    
C98   O25   A    
C70   H16   S    
C54   C55   A    
C15   C17   S    
C33   C36   S    
C6    H55   S    
C58   H9    S    
C16   C22   S    
C106  H39   S    
C47   O20   A    
C2    C19   T    
C8    H61   S    
C87   H24   S    
C31   C34   S    
C33   C38   S    
C67   H17   S    
C88   C90   A    
Cr2   O19   S    
C52   C63   S    
Cr6   O2    S    
C79   C82   A    
H38   N3    S    
C7    H53   S    
C8    N5    S    
C105  H37   S    
C7    H52   S    
C50   C55   A    
C60   C64   A    
C32   C33   S    
Cr2   O13   S    
Cr3   O15   S    
C82   H19   S    
Cr1   O18   S    
C29   C31   S    
H62   N6    S    
C23   O1    A    
C78   C79   A    
C81   H18   S    
C30   C52   S    
C60   C69   A    
C27   C37   T    
C40   C50   A    
C12   C21   S    
H58   N5    S    
Cr4   O6    S    
C92   C93   A    
C65   H8    S    
C13   C22   T    
C9    H63   S    
H29   N1    S    
C74   C85   S    
C89   C93   A    
Cr3   O20   S    
Cr5   O25   S    
C106  N3    S    
C79   C89   A    
C25   C33   S    
Cr5   O8    S    
C61   C65   A    
C4    C5    S    
C3    H44   S    
C88   C89   A    
C44   H4    S    
C68   C70   A    
C49   C50   A    
C42   C43   A    
C46   C56   A    
C84   C86   A    
C70   C72   A    
C80   C93   A    
C35   C97   S    
C58   C60   A    
Cr5   O11   S    
C8    H60   S    
C5    H49   S    
C20   N1    S    
C87   C97   A    
C6    H57   S    
C41   C83   S    
