data_mof_unit_22554.cif
_audit_creation_date              2012-12-11T15:28:38-0500
_audit_creation_method            fapswitch 2.2
_symmetry_space_group_name_H-M    P1
_symmetry_Int_Tables_number       1
_space_group_crystal_system       triclinic
_cell_length_a                    6.960854
_cell_length_b                    19.593319
_cell_length_c                    23.403562
_cell_angle_alpha                 96.116142
_cell_angle_beta                  91.081952
_cell_angle_gamma                 88.767222
_cell_volume                      3172.578607

loop_
_atom_site_label
_atom_site_type_symbol
_atom_type_description
_atom_site_fract_x
_atom_site_fract_y
_atom_site_fract_z
_atom_type_partial_charge
O1    O     O_R   0.617180 0.809390 0.808140 -0.523884
O2    O     O_R   0.382820 0.190610 0.191860 -0.520608
O3    O     O_R   0.293300 0.672410 0.795490 -0.519886
O4    O     O_R   0.706700 0.327590 0.204510 -0.538817
O5    O     O_R   0.117220 0.690610 0.691850 -0.525348
O6    O     O_R   0.882780 0.309390 0.308150 -0.525275
C1    C     C_R   0.464683 0.647890 0.805366 0.759911
C2    C     C_R   0.535713 0.351941 0.194558 0.769370
O7    O     O_R   0.287840 0.807750 0.814460 -0.520940
O8    O     O_R   0.712160 0.192250 0.185540 -0.524920
O9    O     O_R   0.111720 0.826910 0.710960 -0.535263
O10   O     O_R   0.888280 0.173090 0.289040 -0.534829
C3    C     C_R   0.456506 0.830740 0.833181 0.730630
C4    C     C_R   0.543488 0.169269 0.166813 0.738624
O11   O     O_R   0.622680 0.673080 0.789040 -0.541458
O12   O     O_R   0.377320 0.326920 0.210960 -0.529502
O13   O     O_3   0.448820 0.756130 0.716020 -0.366384
O14   O     O_3   0.551180 0.243870 0.283980 -0.366569
V1    V     V_3+5 0.176220 0.748860 0.756300 1.450880
V2    V     V_3+5 0.823780 0.251140 0.243700 1.433100
O15   O     O_R   0.781670 0.827580 0.704500 -0.536097
O16   O     O_R   0.218330 0.172420 0.295500 -0.536641
C5    C     C_R   0.948067 0.851772 0.694077 0.690670
C6    C     C_R   0.051933 0.148228 0.305922 0.690990
O17   O     O_R   0.787130 0.692240 0.685530 -0.527707
O18   O     O_R   0.212870 0.307760 0.314470 -0.527677
C7    C     C_R   0.956106 0.669237 0.666802 0.708883
C8    C     C_R   0.043890 0.330758 0.333202 0.710210
V3    V     V_3+5 0.675510 0.751130 0.743690 1.421202
V4    V     V_3+5 0.324490 0.248870 0.256310 1.433114
O19   O     O_3   0.952780 0.743870 0.783980 -0.352915
O20   O     O_3   0.047220 0.256130 0.216020 -0.354156
C9    C     C_1   0.966648 0.617174 0.614746 -0.218823
C10   C     C_1   0.033336 0.382818 0.385260 -0.218310
C11   C     C_1   0.978204 0.573659 0.571928 -0.003022
C12   C     C_1   0.021768 0.426332 0.428078 -0.003089
C13   C     C_1   0.993413 0.521855 0.521320 -0.004181
C14   C     C_1   0.006553 0.478135 0.478686 -0.004215
C15   C     C_R   0.947259 0.913926 0.663459 -0.045056
C16   C     C_R   0.052740 0.086073 0.336540 -0.045022
C17   C     C_R   0.867821 0.034702 0.663720 -0.161215
C18   C     C_R   0.132166 0.965296 0.336278 -0.161409
C19   C     C_R   0.884235 0.976120 0.692348 -0.166452
C20   C     C_R   0.115758 0.023879 0.307650 -0.166862
C21   C     C_R   0.993352 0.910640 0.604873 -0.215030
C22   C     C_R   0.006646 0.089358 0.395125 -0.215041
C23   C     C_R   0.974182 0.969698 0.574133 0.086808
C24   C     C_R   0.025809 0.030300 0.425865 0.086793
C25   C     C_R   0.910602 0.032037 0.605160 0.138982
C26   C     C_R   0.089385 0.967961 0.394838 0.139089
C27   C     C_R   0.012842 0.969133 0.513887 0.057738
C28   C     C_R   0.987147 0.030865 0.486111 0.057694
C29   C     C_R   0.924311 0.091079 0.519545 -0.186823
C30   C     C_R   0.075674 0.908918 0.480453 -0.186830
C31   C     C_R   0.887458 0.091462 0.577654 -0.200936
C32   C     C_R   0.112525 0.908535 0.422343 -0.201154
H1    H     H_    0.838812 0.139068 0.601368 0.123384
H2    H     H_    0.161167 0.860929 0.398629 0.123309
H3    H     H_    0.961562 0.138869 0.415449 0.094896
H4    H     H_    0.038440 0.861130 0.584550 0.094835
H5    H     H_    0.153806 0.020822 0.262752 0.106758
H6    H     H_    0.846187 0.979177 0.737246 0.107137
H7    H     H_    0.818501 0.082244 0.687348 0.113868
H8    H     H_    0.181482 0.917753 0.312649 0.113676
H9    H     H_    0.901316 0.139274 0.502055 0.123820
H10   H     H_    0.098665 0.860723 0.497943 0.123809
C33   C     C_R   0.485361 0.585918 0.835896 -0.063213
C34   C     C_R   0.521724 0.413537 0.163603 -0.058503
C35   C     C_R   0.602289 0.468649 0.834553 -0.164290
C36   C     C_R   0.515955 0.537325 0.167790 -0.158890
C37   C     C_R   0.572887 0.527582 0.807188 -0.247623
C38   C     C_R   0.535156 0.477885 0.195124 -0.256377
C39   C     C_R   0.428844 0.585493 0.893459 0.264989
C40   C     C_R   0.490249 0.408439 0.103613 0.264179
C41   C     C_R   0.485890 0.528856 0.924763 -0.013929
C42   C     C_R   0.496655 0.468931 0.074015 -0.011399
C43   C     C_R   0.561142 0.468794 0.892899 0.114926
C44   C     C_R   0.496916 0.533542 0.107812 0.113937
C45   C     C_R   0.480894 0.530267 0.986234 0.061600
C46   C     C_R   0.509959 0.468109 0.012789 0.061613
C47   C     C_R   0.575768 0.409207 0.978315 -0.200862
C48   C     C_R   0.473585 0.592725 0.022163 -0.199533
C49   C     C_R   0.603164 0.409955 0.919829 -0.184711
C50   C     C_R   0.484427 0.594221 0.081587 -0.183033
H11   H     H_    0.661971 0.364256 0.895598 0.123888
H12   H     H_    0.486063 0.643622 0.107315 0.123208
H13   H     H_    0.555415 0.482075 0.241380 0.122150
H14   H     H_    0.614955 0.527251 0.762806 0.125915
H15   H     H_    0.664725 0.423490 0.810506 0.123894
H16   H     H_    0.520798 0.586613 0.193600 0.123335
H17   H     H_    0.623545 0.363342 0.996570 0.172553
H18   H     H_    0.476389 0.641748 0.005157 0.171029
C51   C     C_1   0.467209 0.882807 0.885239 -0.205389
C52   C     C_1   0.532772 0.117214 0.114749 -0.201941
C53   C     C_1   0.478638 0.926331 0.928059 0.002648
C54   C     C_1   0.521333 0.073697 0.071924 0.003221
C55   C     C_1   0.493553 0.978150 0.978671 0.000344
C56   C     C_1   0.506414 0.021882 0.021310 0.000449
O21   O     O_3   0.438592 0.345252 0.076761 -0.664443
H19   H     H_    0.344888 0.353282 0.045635 0.289663
O22   O     O_3   0.310973 0.638652 0.916080 -0.658037
H20   H     H_    0.222221 0.619829 0.942822 0.290799

loop_
_geom_bond_atom_site_label_1
_geom_bond_atom_site_label_2
_ccdc_geom_bond_type
C21   H4    S    
O22   H20   S    
C22   H3    S    
C36   C44   A    
C39   C41   A    
C34   C40   A    
C35   C43   A    
O4    C2    A    
V1    O19   S    
C55   C56   T    
C23   C25   A    
C7    C9    S    
C16   C22   A    
O9    V1    S    
C40   C42   A    
C11   C13   S    
C42   C44   A    
O5    V1    S    
O3    C1    A    
C9    C11   T    
C43   C49   A    
O12   V4    S    
C48   H18   S    
C21   C23   A    
C35   C37   A    
O7    C3    A    
C6    C16   S    
O5    C7    A    
O7    V1    S    
O6    C8    A    
O8    V2    S    
C54   C56   S    
O3    V1    S    
C33   C39   A    
C29   H9    S    
O14   V2    S    
C15   C21   A    
C24   C26   A    
C8    C10   S    
C51   C53   T    
C17   C19   A    
C36   H16   S    
C18   C20   A    
C35   H15   S    
C17   C25   A    
C47   C49   A    
O11   V3    S    
C30   C32   A    
C29   C31   A    
O17   V3    S    
C22   C24   A    
C27   C28   A    
O8    C4    A    
C15   C19   A    
C1    O11   A    
C25   C31   A    
O15   V3    S    
C26   C32   A    
C45   C46   A    
C3    C51   S    
O4    V2    S    
C13   C14   T    
O21   H19   S    
C16   C20   A    
C34   C38   A    
O10   V2    S    
O1    V3    S    
C52   C54   T    
C41   C43   A    
C18   C26   A    
O14   V4    S    
C49   H11   S    
C2    C34   S    
C48   C50   A    
C31   H1    S    
O16   C6    A    
O1    C3    A    
C17   H7    S    
C12   C14   S    
C18   H8    S    
C38   H13   S    
C28   C29   A    
V2    O20   S    
C39   O22   S    
O16   V4    S    
C42   C46   A    
C50   H12   S    
C46   C47   A    
C45   C48   A    
C23   C27   A    
C53   C55   S    
O18   V4    S    
C40   O21   S    
C30   H10   S    
C20   H5    S    
O17   C7    A    
O6    V2    S    
O10   C6    A    
O18   C8    A    
O2    V4    S    
C27   C30   A    
O15   C5    A    
V3    O19   S    
O13   V3    S    
V4    O20   S    
C5    C15   S    
O9    C5    A    
O13   V1    S    
C10   C12   T    
C32   H2    S    
C33   C37   A    
O2    C4    A    
C1    C33   S    
C37   H14   S    
C47   H17   S    
C44   C50   A    
C24   C28   A    
C2    O12   A    
C36   C38   A    
C41   C45   A    
C4    C52   S    
C19   H6    S    
