data_mof_unit_36888.cif
_audit_creation_date              2013-03-05T16:13:46-0500
_audit_creation_method            fapswitch 2.2
_symmetry_space_group_name_H-M    P1
_symmetry_Int_Tables_number       1
_space_group_crystal_system       triclinic
_cell_length_a                    8.522114
_cell_length_b                    17.321049
_cell_length_c                    18.812878
_cell_angle_alpha                 100.23975
_cell_angle_beta                  95.119259
_cell_angle_gamma                 97.676284
_cell_volume                      2690.05255058

loop_
_atom_site_label
_atom_site_type_symbol
_atom_site_description
_atom_site_fract_x
_atom_site_fract_y
_atom_site_fract_z
_atom_type_partial_charge
P1    P     P_3+3 0.032830 0.432130 0.335280 0.489888
O1    O     O_2   0.865200 0.455450 0.325860 -0.447790
O2    O     O_3   0.117880 0.456770 0.413320 -0.346017
O3    O     O_3   0.657770 0.599920 0.378120 -0.336879
O4    O     O_2   0.669114 0.613899 0.244117 -0.461850
O5    O     O_3   0.045711 0.329433 0.307291 -0.625156
O6    O     O_3   0.656618 0.744359 0.330132 -0.442421
C1    C     C_3   0.552478 0.786540 0.219108 0.584921
H1    H     H_    0.639027 0.748222 0.197306 0.140200
P2    P     P_3+3 0.680690 0.682340 0.566920 0.426810
P3    P     P_3+3 0.135050 0.742930 0.446899 0.543382
O7    O     O_2   0.855570 0.693850 0.546560 -0.304189
O8    O     O_3   0.082050 0.640900 0.416060 -0.352726
O9    O     O_2   0.096119 0.762991 0.525854 -0.312209
O10   O     O_3   0.703700 0.713551 0.661419 -0.678393
O11   O     O_3   0.011045 0.790505 0.395124 -0.502285
C2    C     C_3   0.069965 0.794084 0.327321 1.091072
H2    H     H_    0.172503 0.760884 0.319046 1.169198
C3    C     C_3   0.131778 0.880842 0.325533 0.015653
H3    H     H_    0.036319 0.917066 0.339685 0.172703
H4    H     H_    0.237534 0.901383 0.366839 0.052148
C4    C     C_3   0.326510 0.712586 0.713779 1.077012
H5    H     H_    0.423615 0.690682 0.683932 0.036080
C5    C     C_3   0.348367 0.700168 0.792671 -1.036837
H6    H     H_    0.399367 0.645039 0.795173 0.224890
H7    H     H_    0.433282 0.749687 0.827101 0.273994
H8    H     H_    0.233174 0.697515 0.816050 0.245563
Ba1   Ba    Ba6+2 0.852650 0.537180 0.468240 1.114452
C6    C     C_3   0.911793 0.283092 0.262356 0.877754
H9    H     H_    0.832374 0.322516 0.243189 -0.031666
C7    C     C_3   0.953201 0.230860 0.189727 0.659920
C8    C     C_3   0.761330 0.655686 0.694905 0.389390
H10   H     H_    0.872117 0.640839 0.673049 0.159488
H11   H     H_    0.668735 0.602207 0.686076 0.148460
C9    C     C_3   0.798454 0.687321 0.776744 -0.851892
H12   H     H_    0.853773 0.643408 0.802859 0.158349
H13   H     H_    0.685988 0.695544 0.800569 0.245584
P4    P     P_3+3 0.156880 0.567940 0.664730 0.532615
O12   O     O_2   0.324510 0.544570 0.674190 -0.373559
O13   O     O_3   0.071830 0.543290 0.586690 -0.297484
O14   O     O_3   0.531950 0.400150 0.621890 -0.367393
O15   O     O_3   0.179452 0.672269 0.676597 -0.574421
P5    P     P_3+3 0.067855 0.256067 0.575625 0.454225
O16   O     O_3   0.606980 0.404400 0.458100 -0.392897
O17   O     O_3   0.107660 0.359170 0.583950 -0.397936
O18   O     O_2   0.194036 0.220981 0.530825 -0.391026
O19   O     O_3   0.111349 0.232805 0.662371 -0.538341
Ba2   Ba    Ba6+2 0.337190 0.462880 0.531770 1.085163
P6    P     P_3+3 0.577172 0.642949 0.308221 0.528426
C10   C     C_3   0.552646 0.791817 0.302503 0.260225
H14   H     H_    0.430247 0.773391 0.314491 -0.015634
H15   H     H_    0.433771 0.755594 0.192836 -3.000738
O20   O     O_3   0.582730 0.595670 0.541910 -0.320992
C11   C     C_3   0.509759 0.310123 0.289021 1.218096
H16   H     H_    0.635588 0.332442 0.311790 -0.021856
C12   C     C_3   0.498217 0.247777 0.217902 -0.855342
H17   H     H_    0.385776 0.248877 0.185013 0.208121
H18   H     H_    0.592408 0.264804 0.184641 0.106947
P7    P     P_3+3 0.505005 0.304262 0.427001 0.535553
O21   O     O_2   0.334130 0.306180 0.453490 -0.280881
O22   O     O_3   0.428595 0.272111 0.336352 -0.524682
C13   C     C_3   0.052620 0.284571 0.717327 0.026174
H19   H     H_    0.054924 0.344915 0.704963 0.089247
C14   C     C_3   0.160018 0.295575 0.790746 0.310405
H20   H     H_    0.283564 0.287338 0.781962 0.121409
H21   H     H_    0.169797 0.358590 0.818412 0.083915
P8    P     P_3+3 0.570773 0.411078 0.716934 0.475033
C15   C     C_3   0.497465 0.258854 0.673901 0.403407
H22   H     H_    0.595442 0.260075 0.638612 -0.005562
O23   O     O_2   0.440170 0.453709 0.752003 -0.385883
O24   O     O_3   0.538585 0.316195 0.738341 -0.506664
H23   H     H_    0.390155 0.271678 0.643602 0.179999
H24   H     H_    0.575936 0.150609 0.698852 0.185912
C16   C     C_3   0.464063 0.175884 0.692659 -0.718025
H25   H     H_    0.414405 0.179597 0.745319 0.245614
N1    N     N_R   0.178593 0.564425 0.966354 -0.054177
N2    N     N_R   0.224639 0.572586 0.037669 -0.033348
C17   C     C_2   0.281714 0.541407 0.310407 -0.398473
C18   C     C_3   0.355303 0.609848 0.277015 0.138796
C19   C     C_2   0.319377 0.590897 0.194394 -0.256188
C20   C     C_2   0.193564 0.536572 0.160630 -0.158928
C21   C     C_2   0.094996 0.491708 0.208350 0.385732
C22   C     C_1   0.147455 0.494436 0.278731 0.358168
N3    N     N_R   0.031240 0.466191 0.043260 -0.043142
N4    N     N_R   0.984128 0.458403 0.972408 -0.063714
C23   C     C_R   0.055589 0.507652 0.932156 0.250441
C24   C     C_R   0.150907 0.524039 0.078393 0.176820
C25   C     C_R   0.093390 0.529043 0.803655 -0.345875
C26   C     C_R   0.034092 0.524470 0.730042 0.161731
C27   C     C_R   0.775031 0.462282 0.754276 0.177020
C28   C     C_R   0.834991 0.467122 0.827273 -0.195082
C29   C     C_R   0.994649 0.501165 0.853336 -0.048089
C30   C     C_R   0.874643 0.491108 0.706509 0.180395
H26   H     H_    0.393410 0.623445 0.162407 0.231745
H27   H     H_    0.216298 0.553155 0.822373 0.197584
H28   H     H_    0.756905 0.444193 0.863518 0.184138
H29   H     H_    0.338305 0.532953 0.361851 0.214231
C31   C     C_2   0.448061 0.722799 0.479379 -0.264328
C32   C     C_3   0.350015 0.780960 0.453043 0.059967
C33   C     C_2   0.399678 0.864291 0.499268 -0.201059
C34   C     C_2   0.557778 0.886977 0.520332 -0.030510
C35   C     C_2   0.659439 0.823696 0.523841 -0.134576
C36   C     C_1   0.588528 0.749469 0.517773 0.324271
C37   C     C_R   0.799347 0.136804 0.533478 -0.240761
C38   C     C_R   0.867063 0.213079 0.528705 0.232312
C39   C     C_R   0.617338 0.233199 0.465464 0.301801
C40   C     C_R   0.549660 0.156386 0.469712 -0.246102
C41   C     C_R   0.642389 0.106641 0.501497 0.111546
C42   C     C_2   0.631182 0.971884 0.535148 -0.146473
C43   C     C_2   0.573544 0.022780 0.496423 -0.181308
C44   C     C_R   0.780133 0.257336 0.488880 -0.512484
H30   H     H_    0.470333 0.001196 0.456195 0.136799
H31   H     H_    0.788391 0.838739 0.533349 0.213032
H32   H     H_    0.871676 0.101436 0.560354 0.162305
H33   H     H_    0.737589 0.989823 0.573704 0.161356
H34   H     H_    0.426758 0.135001 0.447331 0.160536
H35   H     H_    0.416729 0.660386 0.454864 0.156906
H36   H     H_    0.839777 0.311042 0.475781 0.163506
C45   C     C_2   0.600982 0.876087 0.343006 0.571147
H37   H     H_    0.520532 0.918964 0.339154 0.014768
O25   O     O_2   0.730834 0.897386 0.379184 -0.526000
O26   O     O_3   0.824339 0.235568 0.304172 -0.707675
C46   C     C_3   0.921128 0.191820 0.341726 0.029943
H38   H     H_    0.007350 0.231431 0.385008 0.177508
H39   H     H_    0.983969 0.152450 0.305138 0.165869
H40   H     H_    0.842834 0.152011 0.368231 0.162643
O27   O     O_3   0.970834 0.279038 0.135819 -0.678816
C47   C     C_3   0.130359 0.309796 0.130819 0.059943
H41   H     H_    0.131820 0.356315 0.097718 0.155747
H42   H     H_    0.191832 0.264076 0.100818 0.099643
H43   H     H_    0.194301 0.337044 0.184997 0.171859
C48   C     C_2   0.808946 0.167893 0.159394 0.362254
H44   H     H_    0.726164 0.176493 0.115210 0.051374
O28   O     O_2   0.786008 0.106550 0.183027 -0.589848
O29   O     O_3   0.091996 0.194512 0.203583 -0.632328
C49   C     C_3   0.107803 0.130742 0.146397 -0.168007
H45   H     H_    0.047859 0.134783 0.092398 0.149756
H46   H     H_    0.061702 0.073248 0.160753 0.178185
H47   H     H_    0.233753 0.129968 0.138744 0.107981
O30   O     O_3   0.571012 0.861958 0.198643 -0.584924
C50   C     C_3   0.729082 0.883809 0.184652 -0.074722
H48   H     H_    0.815089 0.886922 0.233386 0.160971
H49   H     H_    0.740413 0.943761 0.170855 0.212092
H50   H     H_    0.759336 0.842281 0.137391 0.172190
C51   C     C_2   0.910791 0.764321 0.792687 0.843467
H51   H     H_    0.025854 0.767761 0.772242 0.051029
O31   O     O_2   0.873226 0.823615 0.828400 -0.577733
O32   O     O_3   0.427127 0.372659 0.276367 -0.636347
C52   C     C_3   0.516593 0.424284 0.240262 -0.438695
H52   H     H_    0.592646 0.394529 0.202863 0.147050
H53   H     H_    0.589096 0.472038 0.281309 0.276641
H54   H     H_    0.434212 0.450663 0.206302 0.199406
C53   C     C_2   0.500271 0.162372 0.226459 0.736272
H55   H     H_    0.482178 0.116293 0.178011 0.033475
O33   O     O_2   0.524430 0.143256 0.285429 -0.547170
O34   O     O_3   0.175689 0.887316 0.255955 -0.597967
C54   C     C_3   0.221027 0.968080 0.253588 -0.010695
H56   H     H_    0.322932 0.996073 0.295386 0.139935
H57   H     H_    0.118761 0.001412 0.260480 0.098856
H58   H     H_    0.260034 0.972314 0.199529 0.191276
C55   C     C_2   0.884525 0.251546 0.724286 0.601805
H59   H     H_    0.821650 0.202793 0.683333 -0.041149
O35   O     O_2   0.818769 0.278812 0.775984 -0.532648
O36   O     O_3   0.096399 0.248868 0.839222 -0.570614
C56   C     C_3   0.147226 0.174015 0.828070 -0.162973
H60   H     H_    0.276237 0.179834 0.847066 0.135934
H61   H     H_    0.120098 0.143276 0.770332 0.189526
H62   H     H_    0.081545 0.136488 0.861092 0.188011
C57   C     C_2   0.350864 0.119885 0.634820 0.618878
H63   H     H_    0.375309 0.111436 0.578822 0.022744
O37   O     O_2   0.229791 0.083587 0.650253 -0.555987
O38   O     O_3   0.942170 0.765951 0.271194 -0.599448
C58   C     C_3   0.985198 0.709045 0.215751 -0.136930
H64   H     H_    0.006410 0.654943 0.236939 0.140587
H65   H     H_    0.092241 0.733422 0.192404 0.201346
H66   H     H_    0.885806 0.691928 0.171088 0.188028
O39   O     O_3   0.958112 0.440761 0.176740 -0.615520
C59   C     C_3   0.837614 0.485790 0.162518 -0.177880
H67   H     H_    0.742034 0.447864 0.122718 0.179031
H68   H     H_    0.877152 0.538984 0.139459 0.142298
H69   H     H_    0.789594 0.504826 0.213575 0.218129
O40   O     O_3   0.812564 0.488152 0.635872 -0.628462
C60   C     C_3   0.835604 0.415731 0.594375 0.307500
H70   H     H_    0.860838 0.369451 0.625980 -0.069575
H71   H     H_    0.913446 0.425914 0.552647 0.163075
H72   H     H_    0.729149 0.387624 0.560562 0.124026
C61   C     C_2   0.286687 0.917868 0.527804 0.616506
H73   H     H_    0.321740 0.957905 0.579561 0.038058
O41   O     O_2   0.158328 0.919621 0.494451 -0.567907
O42   O     O_3   0.323120 0.794553 0.715492 -0.614414
C62   C     C_3   0.473909 0.834818 0.708033 -0.190186
H74   H     H_    0.568518 0.824293 0.748276 0.185531
H75   H     H_    0.469176 0.899485 0.717715 0.180556
H76   H     H_    0.503488 0.817390 0.651890 0.137476

loop_
_geom_bond_atom_site_label_1
_geom_bond_atom_site_label_2
_geom_bond_distance
_ccdc_geom_bond_type
C1    H1    1.113882 S    
C5    H6    1.107312 S    
C56   H60   1.110913 S    
C1    C10   1.555119 S    
H24   C16   1.106349 S    
C3    H3    1.114436 S    
C5    H8    1.109706 S    
C7    O27   1.429028 S    
C14   O36   1.418970 S    
C47   H41   1.101955 S    
O19   C13   1.416344 S    
C59   H67   1.108595 S    
C2    O38   1.417238 S    
C46   H38   1.110666 S    
O14   P8    1.760618 S    
N4    C23   1.358378 A    
P4    C26   1.876029 S    
C34   C35   1.491832 S    
O7    Ba1   2.844213 S    
C44   H36   1.077955 S    
P1    C22   1.887513 S    
O36   C56   1.407911 S    
C3    H4    1.110757 S    
C5    H7    1.109925 S    
P4    O15   1.763079 S    
P2    O10   1.749013 S    
C60   H71   1.094695 S    
P5    C38   1.848803 S    
P4    O12   1.539821 D    
C19   C20   1.354589 D    
P3    O9    1.540266 D    
C46   H39   1.105493 S    
C13   C55   1.495876 S    
C39   C40   1.396500 A    
Ba1   O13   2.754344 S    
O16   P7    1.803270 S    
C15   C16   1.536171 S    
C31   C36   1.321906 D    
C31   C32   1.512259 S    
O2    Ba2   2.755007 S    
C12   H17   1.097579 S    
P3    C32   1.848266 S    
P1    O1    1.539407 D    
C9    C51   1.500238 S    
P2    O20   1.586169 S    
O40   C60   1.402326 S    
C16   C57   1.497638 S    
C13   C14   1.554356 S    
O3    Ba1   2.729166 S    
C28   H28   1.082674 S    
C50   H48   1.110253 S    
C17   C22   1.335443 D    
C54   H56   1.112533 S    
Ba1   Ba2   4.606701 S    
C25   C29   1.416723 A    
C12   H18   1.102207 S    
O11   C2    1.420263 S    
P1    Ba1   3.426239 S    
C40   C41   1.416068 A    
N3    C24   1.360924 A    
O8    Ba1   2.836253 S    
C4    O42   1.418613 S    
C6    H9    1.105381 S    
C1    H15   1.107579 S    
P4    Ba2   3.426968 S    
C58   H65   1.112613 S    
C38   C44   1.398098 A    
C25   H27   1.077296 S    
P7    O21   1.583208 D    
C54   H57   1.112498 S    
C3    O34   1.412212 S    
C57   O37   1.220349 D    
O4    P6    1.542636 D    
C56   H61   1.110621 S    
C17   H29   1.084725 S    
C49   H47   1.097155 S    
C37   C38   1.390792 A    
C55   O35   1.219698 D    
Ba2   O21   2.844203 S    
C39   C44   1.401474 A    
C45   O25   1.221133 D    
N3    N4    1.334992 A    
Ba2   O20   2.862219 S    
C11   C12   1.549330 S    
P7    O22   1.734854 S    
P7    C39   1.860903 S    
C16   H25   1.106405 S    
C51   O31   1.220480 D    
C10   C45   1.506240 S    
C59   H69   1.091981 S    
C8    C9    1.528912 S    
O29   C49   1.427849 S    
C33   C61   1.493479 S    
N1    N2    1.340804 A    
O6    P6    1.757481 S    
C7    O29   1.437241 S    
C52   H54   1.104200 S    
C28   C29   1.415346 A    
C17   C18   1.526356 S    
C15   H22   1.112463 S    
C46   H40   1.108138 S    
C10   H14   1.104271 S    
C58   H64   1.111280 S    
Ba1   O16   2.862784 S    
P8    C27   1.859570 S    
C20   C21   1.524362 S    
C62   H74   1.111704 S    
C47   H42   1.106712 S    
P1    O2    1.538720 S    
C9    H12   1.108820 S    
C8    H11   1.111290 S    
C60   H70   1.111331 S    
C62   H75   1.109181 S    
O42   C62   1.408893 S    
C7    C48   1.523750 S    
C30   O40   1.375342 S    
C32   C33   1.530869 S    
C15   H23   1.103101 S    
C6    O26   1.422280 S    
C13   H19   1.108476 S    
C2    H2    1.115898 S    
C57   H63   1.080332 S    
O30   C50   1.410559 S    
C45   H37   1.083133 S    
P5    O17   1.748746 S    
C20   C24   1.527087 S    
P2    O7    1.567557 D    
C37   H32   1.079932 S    
C12   C53   1.518434 S    
C49   H46   1.108633 S    
C21   C22   1.349715 D    
C56   H62   1.109128 S    
C4    C5    1.535789 S    
C60   H72   1.064718 S    
C53   O33   1.221001 D    
C19   H26   1.082300 S    
O27   C47   1.409976 S    
C23   C29   1.506278 S    
C47   H43   1.104396 S    
N1    C23   1.363482 A    
C51   H51   1.082991 S    
C37   C41   1.407863 A    
O38   C58   1.411816 S    
C27   C30   1.399961 A    
C11   O32   1.411167 S    
O17   Ba2   2.836853 S    
P2    Ba1   3.424349 S    
O13   Ba2   2.977953 S    
C11   H16   1.109607 S    
P2    C36   1.822172 S    
C9    H13   1.109174 S    
O6    C10   1.412553 S    
C49   H45   1.113589 S    
O10   C8    1.394062 S    
C59   H68   1.111715 S    
Ba1   O20   2.988457 S    
C50   H50   1.112420 S    
C11   O22   1.378956 S    
C54   H58   1.109273 S    
C31   H35   1.084589 S    
O3    P6    1.755142 S    
C1    O30   1.419209 S    
P8    O23   1.548143 D    
C14   H20   1.104080 S    
C52   H53   1.101576 S    
C53   H55   1.083945 S    
C62   H76   1.106676 S    
C50   H49   1.108407 S    
C6    C7    1.594297 S    
C35   H31   1.086010 S    
C55   H59   1.080705 S    
C52   H52   1.105630 S    
C8    H10   1.105970 S    
P4    O13   1.538727 S    
P3    O8    1.743352 S    
C27   C28   1.405871 A    
C4    O15   1.408429 S    
P5    O19   1.768798 S    
C15   O24   1.407850 S    
C21   O39   1.381227 S    
C33   C34   1.354518 D    
C58   H66   1.108459 S    
O14   Ba2   2.728446 S    
C41   C43   1.475228 S    
C48   H44   1.085469 S    
P8    O24   1.753003 S    
O32   C52   1.403045 S    
C26   C30   1.402959 A    
C35   C36   1.326348 D    
P5    O18   1.546040 D    
C43   H30   1.085785 S    
C40   H34   1.083381 S    
C61   O41   1.218357 D    
P3    O11   1.754687 S    
C42   H33   1.082689 S    
C18   C19   1.524561 S    
C2    C3    1.531837 S    
P6    C18   1.908168 S    
C61   H73   1.082104 S    
O5    C6    1.415358 S    
O34   C54   1.410351 S    
C25   C26   1.415964 A    
N2    C24   1.364791 A    
O2    Ba1   2.977008 S    
C48   O28   1.221819 D    
O39   C59   1.404829 S    
P1    O5    1.784088 S    
C4    H5    1.111344 S    
O1    Ba1   2.816679 S    
O26   C46   1.416708 S    
C42   C43   1.352537 D    
C34   C42   1.486359 S    
O16   Ba2   2.987447 S    
C14   H21   1.111385 S    
O12   Ba2   2.817306 S    
