data_mof_unit_67688.cif
_audit_creation_date              2012-10-26T19:56:13-0400
_audit_creation_method            fapswitch 2.2
_symmetry_space_group_name_H-M    P1
_symmetry_Int_Tables_number       1
_space_group_crystal_system       triclinic
_cell_length_a                    11.312596
_cell_length_b                    10.815637
_cell_length_c                    9.590591
_cell_angle_alpha                 89.9245
_cell_angle_beta                  90.182177
_cell_angle_gamma                 92.231694
_cell_volume                      1172.54014493

loop_
_atom_site_label
_atom_site_type_symbol
_atom_type_description
_atom_site_fract_x
_atom_site_fract_y
_atom_site_fract_z
_atom_type_partial_charge
C1    C     C_R   0.499156 0.259916 0.500135 0.573747
C2    C     C_3   0.387544 0.038553 0.532291 0.243442
C3    C     C_3   0.490148 0.877072 0.501040 0.025749
C4    C     C_3   0.495708 0.122794 0.500625 0.011701
C5    C     C_3   0.460854 0.956492 0.628751 -0.160158
C6    C     C_3   0.523867 0.043227 0.373209 -0.176634
C7    C     C_3   0.543356 0.603156 0.049581 -0.006415
C8    C     C_3   0.456712 0.396774 0.950329 -0.008459
C9    C     C_3   0.438181 0.587743 0.948841 0.018447
C10   C     C_3   0.562017 0.412320 0.051054 0.012647
C11   C     C_3   0.605143 0.515983 0.949111 -0.019350
C12   C     C_R   0.495545 0.739934 0.500089 0.605922
C13   C     C_3   0.394967 0.484124 0.050681 -0.013723
C14   C     C_R   0.262587 0.498714 0.499325 0.554853
C15   C     C_R   0.737649 0.499395 0.500470 0.579353
C16   C     C_R   0.219027 0.736443 0.116219 0.264555
C17   C     C_R   0.782057 0.258154 0.881090 0.272568
C18   C     C_R   0.179810 0.689944 0.245332 0.288201
C19   C     C_R   0.819976 0.305012 0.752476 0.284340
C20   C     C_R   0.117060 0.575160 0.250972 0.014181
C21   C     C_R   0.883563 0.418942 0.746801 0.026405
C22   C     C_R   0.104158 0.501382 0.132394 0.202211
C23   C     C_R   0.872141 0.496550 0.501569 0.008596
C24   C     C_R   0.894216 0.495562 0.863111 0.224583
C25   C     C_R   0.137725 0.550962 0.003503 -0.132347
C26   C     C_R   0.859113 0.445596 0.992506 -0.121750
C27   C     C_R   0.188375 0.670190 0.994197 -0.186749
C28   C     C_R   0.812763 0.324474 0.002788 -0.163419
C29   C     C_R   0.936588 0.529439 0.382751 -0.156410
C30   C     C_R   0.064337 0.458676 0.614257 -0.152896
C31   C     C_3   0.267215 0.928045 0.022861 -0.038435
C32   C     C_3   0.335193 0.048186 0.059001 -0.383934
C33   C     C_3   0.719828 0.073782 0.985933 -0.042491
C34   C     C_R   0.128543 0.496969 0.497071 0.005062
C35   C     C_3   0.670131 0.947920 0.938101 -0.380897
C36   C     C_3   0.123318 0.819486 0.419841 -0.017950
C37   C     C_3   0.128220 0.819697 0.578337 -0.336139
C38   C     C_3   0.865840 0.180180 0.569883 -0.019531
C39   C     C_3   0.845117 0.174087 0.413772 -0.351249
C40   C     C_3   0.130598 0.291758 0.135787 -0.000095
C41   C     C_3   0.063344 0.166590 0.133283 -0.383132
C42   C     C_3   0.903410 0.703504 0.938944 -0.003215
C43   C     C_3   0.946151 0.831445 0.890637 -0.379648
C44   C     C_3   0.718500 0.887395 0.300747 -0.005725
C45   C     C_R   0.939305 0.460511 0.618092 0.039347
C46   C     C_3   0.813168 0.794713 0.279417 -0.375504
C47   C     C_3   0.265364 0.156632 0.667676 -0.003819
C48   C     C_3   0.151628 0.128621 0.746809 -0.412391
C49   C     C_R   0.061544 0.531915 0.379863 0.033877
C50   C     C_3   0.571387 0.041766 0.596492 -0.112680
C51   C     C_3   0.414326 0.957548 0.405616 -0.108391
C52   C     C_3   0.597560 0.961589 0.469546 0.241377
Cu1   Cu    Cu3+1 0.500030 0.499990 0.643150 0.968472
Cu2   Cu    Cu3+1 0.499970 0.500010 0.356850 0.963188
H1    H     H_    0.212235 0.705233 0.892144 0.115985
H2    H     H_    0.863286 0.500409 0.084936 0.134479
H3    H     H_    0.889266 0.558465 0.292324 0.107260
H4    H     H_    0.111788 0.423401 0.702508 0.101839
H5    H     H_    0.640468 0.071618 0.670073 0.229442
H6    H     H_    0.346668 0.927306 0.330378 0.226213
H7    H     H_    0.433021 0.921407 0.732632 0.102181
H8    H     H_    0.549024 0.079592 0.269146 0.091625
H9    H     H_    0.171031 0.944397 0.031455 0.116527
H10   H     H_    0.289344 0.902749 0.914179 0.122999
H11   H     H_    0.312988 0.121617 0.984147 0.084585
H12   H     H_    0.789125 0.289157 0.104852 0.108099
H13   H     H_    0.311844 0.079779 0.164873 0.148671
H14   H     H_    0.431599 0.035031 0.055473 0.155494
H15   H     H_    0.672331 0.101777 0.080831 0.114346
H16   H     H_    0.815557 0.065726 0.009941 0.114237
H17   H     H_    0.573080 0.949702 0.924402 0.150377
H18   H     H_    0.709533 0.922686 0.836911 0.164452
H19   H     H_    0.690475 0.875948 0.015352 0.076970
H20   H     H_    0.033985 0.783161 0.390504 0.103832
H21   H     H_    0.134327 0.915902 0.380561 0.167971
H22   H     H_    0.218898 0.843723 0.616063 0.185832
H23   H     H_    0.400741 0.670194 0.900334 0.120767
H24   H     H_    0.066165 0.887753 0.618633 0.109100
H25   H     H_    0.101220 0.727201 0.619796 0.171911
H26   H     H_    0.861347 0.085122 0.614408 0.163012
H27   H     H_    0.956151 0.221694 0.584051 0.112329
H28   H     H_    0.749839 0.160143 0.389727 0.180955
H29   H     H_    0.876503 0.262062 0.364272 0.156366
H30   H     H_    0.894548 0.096434 0.370418 0.112082
H31   H     H_    0.189025 0.296240 0.229494 0.154844
H32   H     H_    0.185166 0.299392 0.039633 0.102685
H33   H     H_    0.058294 0.129547 0.025791 0.108239
H34   H     H_    0.600956 0.330767 0.099674 0.114697
H35   H     H_    0.106694 0.099361 0.202169 0.107423
H36   H     H_    0.971374 0.175313 0.168851 0.161957
H37   H     H_    0.942811 0.687597 0.043039 0.124056
H38   H     H_    0.805765 0.702815 0.946616 0.111414
H39   H     H_    0.899880 0.856876 0.793166 0.157315
H40   H     H_    0.929786 0.900177 0.973073 0.081334
H41   H     H_    0.042253 0.833281 0.869551 0.141453
H42   H     H_    0.743461 0.972321 0.242167 0.108413
H43   H     H_    0.634159 0.847063 0.257153 0.153083
H44   H     H_    0.831254 0.747815 0.379539 0.186683
H45   H     H_    0.579776 0.691159 0.093698 0.095713
H46   H     H_    0.782561 0.724228 0.202191 0.082448
H47   H     H_    0.895026 0.842304 0.239758 0.089155
H48   H     H_    0.263159 0.252169 0.625961 0.161585
H49   H     H_    0.340748 0.151477 0.742215 0.134313
H50   H     H_    0.161882 0.048249 0.815783 0.117957
H51   H     H_    0.127034 0.210239 0.808664 0.093991
H52   H     H_    0.079997 0.102246 0.673572 0.155381
H53   H     H_    0.419569 0.309084 0.905747 0.093740
H54   H     H_    0.685538 0.545620 0.895010 0.123839
H55   H     H_    0.314063 0.455747 0.104011 0.109381
H56   H     H_    0.127830 0.495425 0.911380 0.156223
N1    N     N_3   0.500090 0.499970 0.858290 -0.249175
N2    N     N_3   0.499910 0.500030 0.141710 -0.248015
O1    O     O_R   0.500060 0.316850 0.620870 -0.490575
O2    O     O_3   0.699668 0.160297 0.880154 -0.564531
O3    O     O_3   0.215353 0.748398 0.367486 -0.553498
O4    O     O_3   0.777664 0.250534 0.631051 -0.548668
O5    O     O_3   0.048204 0.385678 0.142111 -0.574971
O6    O     O_3   0.940994 0.615671 0.841748 -0.565366
O7    O     O_3   0.710348 0.916729 0.443345 -0.575655
O8    O     O_3   0.270829 0.074121 0.554649 -0.589262
O9    O     O_R   0.499940 0.683150 0.379130 -0.479871
O10   O     O_R   0.500000 0.316860 0.379090 -0.527241
O11   O     O_R   0.500000 0.683140 0.620910 -0.520600
O12   O     O_R   0.319670 0.500010 0.620890 -0.535296
O13   O     O_R   0.680330 0.499990 0.379110 -0.524430
O14   O     O_R   0.319620 0.500010 0.379110 -0.496292
O15   O     O_R   0.680380 0.499990 0.620890 -0.477625
O16   O     O_3   0.301384 0.834516 0.114909 -0.565478

loop_
_geom_bond_atom_site_label_1
_geom_bond_atom_site_label_2
_ccdc_geom_bond_type
C9    N1    S    
C22   O5    S    
C41   H35   S    
C8    C13   S    
C23   C45   A    
C30   C45   A    
C2    C4    S    
C29   C49   A    
Cu1   Cu2   S    
C7    C11   S    
C37   H25   S    
C10   H34   S    
C33   O2    S    
C7    H45   S    
C50   H5    S    
C23   C29   A    
C36   C37   S    
C19   C21   A    
C24   C26   A    
C39   H30   S    
C13   N2    S    
C38   C39   S    
C27   H1    S    
C48   H50   S    
C43   H40   S    
C7    N2    S    
C42   H37   S    
C40   H32   S    
C9    C13   S    
C1    O10   A    
C13   H55   S    
C3    C12   S    
Cu1   O15   S    
C33   C35   S    
C48   H52   S    
C12   O9    A    
C48   H51   S    
Cu1   O1    S    
C22   C25   A    
C43   H41   S    
C10   N2    S    
C6    C51   S    
C42   H38   S    
C33   H15   S    
C32   H14   S    
Cu1   N1    S    
C16   C27   A    
C15   C23   S    
C40   O5    S    
C46   H44   S    
C35   H17   S    
C47   H48   S    
C15   O15   A    
C1    O1    A    
C31   O16   S    
C46   H47   S    
C44   C46   S    
C17   O2    S    
C21   C45   S    
C41   H33   S    
Cu2   O13   S    
C47   H49   S    
C30   C34   A    
C11   N1    S    
C31   H9    S    
C14   O12   A    
C4    C6    S    
Cu1   O11   S    
C8    N1    S    
C2    O8    S    
C42   O6    S    
C44   O7    S    
C4    C50   S    
C40   H31   S    
C28   H12   S    
C20   C49   S    
C44   H42   S    
C36   H21   S    
C38   O4    S    
C44   H43   S    
C50   C52   S    
C47   C48   S    
Cu2   N2    S    
C9    H23   S    
C16   O16   S    
C36   H20   S    
C33   H16   S    
C32   H13   S    
C25   H56   S    
C16   C18   A    
C40   C41   S    
Cu2   O9    S    
C29   H3    S    
C35   H18   S    
C38   H27   S    
C5    C50   S    
C2    C5    S    
C42   C43   S    
C17   C19   A    
C8    H53   S    
C7    C9    S    
C46   H46   S    
C35   H19   S    
C34   C49   A    
C3    C51   S    
C17   C28   A    
C24   O6    S    
C31   H10   S    
C37   H22   S    
C31   C32   S    
C39   H28   S    
C20   C22   A    
C3    C5    S    
Cu1   O12   S    
C26   H2    S    
C18   O3    S    
C14   C34   S    
C3    C52   S    
C25   C27   A    
C37   H24   S    
C26   C28   A    
C2    C51   S    
C14   O14   A    
C1    C4    S    
C6    H8    S    
C39   H29   S    
Cu2   O14   S    
C12   O11   A    
C38   H26   S    
C19   O4    S    
C30   H4    S    
C43   H39   S    
C41   H36   S    
C18   C20   A    
Cu2   O10   S    
C10   C11   S    
C52   O7    S    
C8    C10   S    
C15   O13   A    
C21   C24   A    
C11   H54   S    
C47   O8    S    
C51   H6    S    
C6    C52   S    
C36   O3    S    
C5    H7    S    
C32   H11   S    
