data_mof_unit_46124.cif
_audit_creation_date              2012-12-11T15:32:31-0500
_audit_creation_method            fapswitch 2.2
_symmetry_space_group_name_H-M    P1
_symmetry_Int_Tables_number       1
_space_group_crystal_system       triclinic
_cell_length_a                    6.951201
_cell_length_b                    20.432518
_cell_length_c                    24.404684
_cell_angle_alpha                 89.609021
_cell_angle_beta                  90.494445
_cell_angle_gamma                 89.495239
_cell_volume                      3465.86435015

loop_
_atom_site_label
_atom_site_type_symbol
_atom_type_description
_atom_site_fract_x
_atom_site_fract_y
_atom_site_fract_z
_atom_type_partial_charge
O1    O     O_R   0.507320 0.423560 0.460500 -0.535269
O2    O     O_R   0.170760 0.556250 0.437010 -0.537325
O3    O     O_R   0.004030 0.576440 0.539500 -0.536102
C1    C     C_R   0.338794 0.576501 0.421110 0.724267
O4    O     O_R   0.177370 0.422820 0.454110 -0.537743
O5    O     O_R   0.010680 0.442050 0.556720 -0.535200
C2    C     C_R   0.346153 0.398778 0.443530 0.694836
O6    O     O_R   0.500680 0.557950 0.443280 -0.535597
O7    O     O_3   0.340380 0.506470 0.533650 -0.366671
V1    V     V_3+5 0.064130 0.498800 0.493760 1.426975
O8    O     O_R   0.681160 0.443750 0.562990 -0.537409
C3    C     C_R   0.850890 0.423637 0.578867 0.727227
O9    O     O_R   0.674560 0.577180 0.545890 -0.537635
C4    C     C_R   0.842740 0.601144 0.556553 0.692577
V2    V     V_3+5 0.564560 0.501200 0.506240 1.428485
O10   O     O_3   0.838180 0.493530 0.466350 -0.367155
C5    C     C_R   0.976099 0.837994 0.911294 -0.101773
C6    C     C_R   0.847604 0.662107 0.588527 -0.042881
C7    C     C_R   0.038470 0.721248 0.906624 0.412091
C8    C     C_R   0.032321 0.779398 0.936404 -0.254467
C9    C     C_R   0.929230 0.839014 0.855204 -0.216064
C10   C     C_R   0.941435 0.781275 0.822834 0.052199
C11   C     C_R   0.997731 0.722139 0.849779 0.046490
C12   C     C_R   0.902464 0.780272 0.764769 0.045442
C13   C     C_R   0.920237 0.720362 0.734838 0.064453
C14   C     C_R   0.976532 0.663344 0.763919 -0.191586
C15   C     C_R   0.013746 0.664343 0.819823 -0.174110
C16   C     C_R   0.847133 0.837317 0.735695 -0.199837
C17   C     C_R   0.809496 0.836937 0.679657 0.141454
C18   C     C_R   0.824832 0.778569 0.649763 0.081382
C19   C     C_R   0.880850 0.719356 0.676875 0.056874
C20   C     C_R   0.783050 0.778224 0.593160 -0.112418
C21   C     C_R   0.792780 0.720678 0.563195 -0.176102
C22   C     C_R   0.892537 0.661325 0.644752 -0.193964
H1    H     H_    0.056462 0.618815 0.839652 0.162672
H2    H     H_    0.931200 0.614379 0.662057 0.091023
H3    H     H_    0.755910 0.721776 0.519956 0.107899
H4    H     H_    0.072474 0.778742 0.979423 0.120669
H5    H     H_    0.889109 0.885976 0.838193 0.112358
H6    H     H_    0.994176 0.616467 0.744724 0.120052
H7    H     H_    0.830981 0.883917 0.755371 0.150595
H8    H     H_    0.739742 0.822172 0.571349 0.161820
C23   C     C_3   0.949137 0.310270 0.767965 -0.138891
C24   C     C_3   0.091987 0.251565 0.770266 -0.141549
H9    H     H_    0.240617 0.252819 0.787244 0.110467
H10   H     H_    0.979471 0.360437 0.782712 0.110030
H11   H     H_    0.141090 0.221299 0.677717 0.120739
C25   C     C_1   0.960737 0.121691 0.875180 -0.185276
C26   C     C_1   0.863528 0.378047 0.624650 -0.190330
C27   C     C_3   0.786650 0.265463 0.789226 -0.143898
C28   C     C_3   0.929277 0.207385 0.790918 0.161887
C29   C     C_3   0.732194 0.247916 0.729389 -0.136958
C30   C     C_3   0.894909 0.292101 0.708742 0.163116
C31   C     C_3   0.875046 0.189204 0.731694 -0.118820
C32   C     C_3   0.037534 0.234019 0.710428 -0.132068
C33   C     C_1   0.947524 0.160133 0.837094 -0.052964
C34   C     C_1   0.876702 0.339467 0.662642 -0.057282
H12   H     H_    0.844716 0.139032 0.716951 0.138972
H13   H     H_    0.583566 0.246661 0.712410 0.114784
H14   H     H_    0.683092 0.278183 0.821936 0.108450
C35   C     C_3   0.464154 0.717737 0.205042 -0.191421
C36   C     C_3   0.274494 0.707264 0.237075 -0.110566
H15   H     H_    0.160794 0.671621 0.226385 0.113969
H16   H     H_    0.506371 0.691011 0.167505 0.124830
H17   H     H_    0.107843 0.808887 0.231944 0.155905
C37   C     C_1   0.348816 0.622351 0.375290 -0.199279
C38   C     C_1   0.475337 0.878205 0.125063 -0.180121
C39   C     C_3   0.579363 0.717892 0.259918 -0.233341
C40   C     C_3   0.389149 0.708356 0.291462 0.111823
C41   C     C_3   0.546379 0.792485 0.263431 0.490125
C42   C     C_3   0.434675 0.792517 0.209106 0.114659
C43   C     C_3   0.358760 0.783284 0.295722 -0.216676
C44   C     C_3   0.245313 0.782597 0.240572 -0.196893
C45   C     C_1   0.364481 0.661020 0.337412 -0.045939
C46   C     C_1   0.459598 0.839775 0.163097 -0.002333
H18   H     H_    0.317162 0.810246 0.333189 0.127463
H19   H     H_    0.716771 0.691287 0.267954 0.111637
C47   C     C_R   0.472685 0.161791 0.088983 -0.045672
C48   C     C_R   0.351643 0.337693 0.411671 -0.045408
C49   C     C_R   0.538639 0.277427 0.095124 -0.163864
C50   C     C_R   0.528477 0.220413 0.064455 -0.169588
C51   C     C_R   0.427560 0.160439 0.145065 -0.206824
C52   C     C_R   0.440301 0.217912 0.177775 0.100693
C53   C     C_R   0.496699 0.276656 0.151281 0.141894
C54   C     C_R   0.402088 0.219175 0.235636 0.018601
C55   C     C_R   0.421152 0.278990 0.265632 0.059244
C56   C     C_R   0.477304 0.335701 0.236716 -0.173685
C57   C     C_R   0.513573 0.334374 0.180919 -0.203393
C58   C     C_R   0.346070 0.162555 0.264393 -0.197127
C59   C     C_R   0.309084 0.163187 0.320281 0.146316
C60   C     C_R   0.326093 0.221414 0.350287 0.080696
C61   C     C_R   0.382897 0.280214 0.323448 0.059184
C62   C     C_R   0.284957 0.222068 0.406713 -0.110885
C63   C     C_R   0.295865 0.279540 0.436726 -0.171672
C64   C     C_R   0.396238 0.338115 0.355652 -0.195756
H20   H     H_    0.556814 0.379274 0.160729 0.120497
H21   H     H_    0.435568 0.384748 0.338515 0.091373
H22   H     H_    0.258964 0.278742 0.479780 0.113462
H23   H     H_    0.582461 0.322256 0.074971 0.112713
H24   H     H_    0.565773 0.221886 0.021446 0.105827
H25   H     H_    0.388339 0.113570 0.161803 0.103782
H26   H     H_    0.495534 0.382476 0.255943 0.120091
H27   H     H_    0.328620 0.116174 0.244499 0.153500
H28   H     H_    0.240993 0.178460 0.428311 0.164222
O11   O     O_R   0.323550 0.942140 0.056770 -0.535919
O12   O     O_R   0.647080 0.077200 0.045890 -0.537213
O13   O     O_R   0.813610 0.057920 0.943260 -0.536169
C65   C     C_R   0.478313 0.101183 0.056569 0.697203
O14   O     O_R   0.653470 0.943760 0.063000 -0.534873
O15   O     O_R   0.820050 0.923540 0.960490 -0.537937
C66   C     C_R   0.485403 0.923709 0.079023 0.723454
O16   O     O_R   0.317110 0.076520 0.039540 -0.536957
O17   O     O_3   0.483830 0.993580 0.966380 -0.367096
V3    V     V_3+5 0.760140 0.001190 0.006240 1.438889
O18   O     O_R   0.149510 0.922740 0.954070 -0.537106
C67   C     C_R   0.981266 0.898842 0.943393 0.720450
O19   O     O_R   0.143120 0.056170 0.936970 -0.537722
C68   C     C_R   0.973394 0.076257 0.921068 0.724141
V4    V     V_3+5 0.259690 0.998700 0.993700 1.437268
O20   O     O_3   0.986130 0.006420 0.033620 -0.366256
O21   O     O_3   0.686694 0.840155 0.274703 -0.550949
C69   C     C_3   0.782650 0.824467 0.324290 0.052881
H29   H     H_    0.874585 0.780110 0.319173 0.119492
H30   H     H_    0.679321 0.816121 0.358229 0.123425
C70   C     C_3   0.911522 0.881122 0.340341 -0.613719
H31   H     H_    0.823087 0.925826 0.347140 0.247346
H32   H     H_    0.991212 0.868758 0.378717 0.175120
H33   H     H_    0.016709 0.891100 0.307399 0.225785
I1    I     I_    0.225119 0.072047 0.355423 -0.410641
I2    I     I_    0.727568 0.928712 0.644035 -0.403334
O22   O     O_3   0.099302 0.664133 0.932423 -0.558295
C71   C     C_3   0.944491 0.638490 0.962597 0.083203
H34   H     H_    0.816754 0.630298 0.935616 0.123911
H35   H     H_    0.903796 0.671921 0.996526 0.120891
C72   C     C_3   0.004901 0.572999 0.987553 -0.710683
H36   H     H_    0.130605 0.579558 0.015319 0.222926
H37   H     H_    0.884197 0.552308 0.011418 0.174318
H38   H     H_    0.044268 0.538205 0.954636 0.219157

loop_
_geom_bond_atom_site_label_1
_geom_bond_atom_site_label_2
_ccdc_geom_bond_type
C13   C19   A    
C72   H38   S    
C42   C46   S    
C56   C57   A    
C57   H20   S    
C62   C63   A    
C40   C43   S    
C4    C6    S    
O2    C1    A    
C7    C8    A    
C41   O21   S    
C1    O6    A    
C3    C26   S    
C26   C34   T    
C72   H36   S    
C54   C55   A    
C24   H9    S    
C14   C15   A    
C36   H15   S    
O12   V3    S    
C2    C48   S    
C16   C17   A    
O19   V4    S    
O5    C3    A    
C18   C19   A    
C49   C50   A    
C63   H22   S    
O18   C67   A    
C37   C45   T    
C16   H7    S    
C5    C8    A    
H17   C44   S    
C47   C65   S    
C28   C33   S    
O17   V4    S    
C59   I1    S    
O8    V2    S    
C23   C30   S    
C55   C61   A    
C17   I2    S    
C71   H34   S    
C70   H33   S    
C27   C29   S    
C36   C44   S    
C41   C42   S    
O1    V2    S    
C11   C15   A    
C18   C20   A    
O7    V1    S    
O15   V3    S    
O13   C68   A    
C43   H18   S    
C35   C42   S    
O11   C66   A    
C72   H37   S    
C9    C10   A    
C58   H27   S    
C62   H28   S    
C23   H10   S    
C29   C31   S    
C30   C32   S    
C7    O22   S    
C49   C53   A    
C53   C57   A    
C12   C13   A    
C48   C63   A    
C60   C61   A    
O4    C2    A    
C54   C58   A    
C55   C56   A    
C39   C40   S    
C25   C68   S    
C15   H1    S    
C13   C14   A    
C61   C64   A    
C21   H3    S    
C65   O16   A    
C36   C40   S    
C35   H16   S    
C7    C11   A    
C23   C24   S    
O13   V3    S    
C48   C64   A    
C17   C18   A    
C29   H13   S    
C60   C62   A    
C56   H26   S    
C8    H4    S    
C47   C51   A    
C52   C53   A    
C9    H5    S    
V4    O20   S    
C27   C28   S    
C19   C22   A    
C40   C45   S    
C6    C22   A    
O21   C69   S    
O3    C4    A    
O14   V3    S    
C24   C28   S    
C38   C66   S    
C52   C54   A    
O6    V2    S    
O18   V4    S    
O9    V2    S    
C49   H23   S    
C70   H31   S    
C10   C12   A    
C38   C46   T    
C69   H30   S    
O22   C71   S    
O2    V1    S    
O15   C67   A    
C29   C30   S    
H11   C32   S    
O17   V3    S    
C31   H12   S    
C39   H19   S    
C25   C33   T    
C35   C39   S    
C31   C32   S    
C30   C34   S    
O1    C2    A    
C12   C16   A    
C43   C44   S    
O5    V1    S    
O16   V4    S    
O8    C3    A    
C64   H21   S    
C23   C27   S    
C69   H29   S    
C50   H24   S    
C28   C31   S    
C27   H14   S    
C20   C21   A    
C69   C70   S    
O14   C66   A    
O7    V2    S    
O4    V1    S    
O3    V1    S    
V1    O10   S    
O19   C68   A    
C1    C37   S    
C24   C32   S    
C14   H6    S    
C59   C60   A    
O12   C65   A    
C71   C72   S    
C51   H25   S    
C22   H2    S    
C47   C50   A    
C35   C36   S    
C6    C21   A    
C5    C9    A    
C71   H35   S    
C51   C52   A    
C42   C44   S    
C70   H32   S    
C39   C41   S    
C20   H8    S    
C10   C11   A    
O11   V4    S    
C41   C43   S    
C58   C59   A    
O9    C4    A    
V3    O20   S    
V2    O10   S    
C5    C67   S    
