data_mof_unit_10281.cif
_audit_creation_date              2012-12-10T16:56:37-0500
_audit_creation_method            fapswitch 2.2
_symmetry_space_group_name_H-M    P1
_symmetry_Int_Tables_number       1
_space_group_crystal_system       triclinic
_cell_length_a                    10.738397
_cell_length_b                    10.931612
_cell_length_c                    9.691127
_cell_angle_alpha                 89.989728
_cell_angle_beta                  89.922723
_cell_angle_gamma                 90.324071
_cell_volume                      1137.60266291

loop_
_atom_site_label
_atom_site_type_symbol
_atom_type_description
_atom_site_fract_x
_atom_site_fract_y
_atom_site_fract_z
_atom_type_partial_charge
C1    C     C_R   0.502145 0.265377 0.500029 0.894349
C2    C     C_3   0.878118 0.493948 0.500714 0.071427
C3    C     C_3   0.931050 0.622602 0.468726 -0.385621
C4    C     C_3   0.926847 0.402640 0.390251 -0.360167
C5    C     C_2   0.502170 0.933090 0.386706 -0.152073
C6    C     C_2   0.491762 0.866615 0.502352 -0.307530
C7    C     C_2   0.496692 0.067022 0.386782 -0.152545
C8    C     C_2   0.508429 0.133429 0.502269 -0.263529
C9    C     C_2   0.424091 0.433395 0.922266 -0.049416
C10   C     C_2   0.426400 0.430866 0.077970 -0.065399
C11   C     C_R   0.260067 0.493047 0.500309 0.823721
C12   C     C_R   0.498351 0.734651 0.500092 0.845143
C13   C     C_R   0.740142 0.497570 0.500030 0.770444
C14   C     C_3   0.069370 0.440005 0.643143 0.320266
C15   C     C_3   0.926455 0.453895 0.644927 -0.385599
C16   C     C_3   0.074331 0.620985 0.478589 -0.462762
C17   C     C_3   0.070432 0.407259 0.383152 -0.332454
C18   C     C_3   0.121961 0.488470 0.501708 0.009621
Cu1   Cu    Cu3+1 0.500030 0.500020 0.638630 0.972102
Cu2   Cu    Cu3+1 0.499970 0.499980 0.361370 0.942492
H1    H     H_    0.107394 0.497948 0.727816 0.094722
H2    H     H_    0.888901 0.425386 0.286637 0.181197
H3    H     H_    0.114576 0.660137 0.382157 0.195196
H4    H     H_    0.902656 0.651428 0.363231 0.184627
H5    H     H_    0.513281 0.888482 0.287318 0.167780
H6    H     H_    0.475486 0.907561 0.602326 0.156196
H7    H     H_    0.484625 0.111701 0.287582 0.165715
H8    H     H_    0.525406 0.092466 0.602051 0.149207
H9    H     H_    0.355821 0.375845 0.871105 0.208653
H10   H     H_    0.565791 0.551051 0.893819 0.191864
H11   H     H_    0.362474 0.368631 0.129475 0.158610
H12   H     H_    0.557089 0.560245 0.105923 0.191910
H13   H     H_    0.879125 0.367721 0.677218 0.218969
H14   H     H_    0.901091 0.523975 0.723374 0.144936
H15   H     H_    0.104963 0.680649 0.565383 0.171734
H16   H     H_    0.893225 0.690899 0.542716 0.169087
H17   H     H_    0.109073 0.313308 0.388481 0.214225
H18   H     H_    0.894993 0.308309 0.415683 0.197912
N1    N     N_2   0.498630 0.498660 0.846910 -0.289931
N2    N     N_2   0.498590 0.498630 0.153040 -0.285736
O1    O     O_R   0.500020 0.321960 0.617040 -0.547966
O2    O     O_R   0.499980 0.321920 0.382900 -0.587405
O3    O     O_R   0.317710 0.500000 0.617070 -0.563160
O4    O     O_R   0.317670 0.499960 0.382930 -0.587546
O5    O     O_R   0.500020 0.678080 0.617100 -0.580511
O6    O     O_R   0.499980 0.678040 0.382960 -0.576878
O7    O     O_R   0.682330 0.500040 0.617070 -0.589573
O8    O     O_R   0.682290 0.500000 0.382930 -0.585816
S1    S     S_3+6 0.110761 0.283593 0.684677 -0.049398
O9    O     O_2   0.027675 0.194792 0.609560 -0.314653
O10   O     O_2   0.243641 0.257310 0.647670 -0.325697
O11   O     O_3   0.091822 0.263785 0.855488 -0.560502
H19   H     H_    0.119323 0.178954 0.873613 0.372720
H20   H     H_    0.099188 0.445807 0.281571 0.177043

loop_
_geom_bond_atom_site_label_1
_geom_bond_atom_site_label_2
_ccdc_geom_bond_type
C5    H5    S    
C13   O8    A    
C2    C4    S    
Cu1   O5    S    
C11   C18   S    
C11   O3    A    
C1    C8    S    
C4    H2    S    
C9    C10   S    
C14   C18   S    
C15   H14   S    
Cu2   O2    S    
Cu1   Cu2   S    
C9    H9    S    
S1    O11   S    
C17   C18   S    
C7    C8    D    
C17   H17   S    
C2    C15   S    
C3    H4    S    
C6    H6    S    
Cu1   N1    S    
C3    H16   S    
C8    H8    S    
C4    C17   S    
C10   H11   S    
C14   H1    S    
C16   C18   S    
Cu2   O4    S    
C4    H18   S    
H10   N1    S    
C2    C3    S    
C16   H3    S    
H12   N2    S    
C16   H15   S    
C6    C12   S    
C5    C6    D    
Cu2   N2    S    
Cu1   O7    S    
C14   S1    S    
C1    O2    A    
C11   O4    A    
C7    H7    S    
O11   H19   S    
C10   N2    D    
S1    O9    D    
C1    O1    A    
C5    C7    S    
C2    C13   S    
C14   C15   S    
Cu2   O8    S    
C13   O7    A    
C17   H20   S    
C15   H13   S    
C9    N1    D    
Cu2   O6    S    
C3    C16   S    
Cu1   O1    S    
Cu1   O3    S    
C12   O5    A    
S1    O10   D    
C12   O6    A    
