data_mof_unit_16406.cif
_audit_creation_date              2012-12-11T20:37:21-0500
_audit_creation_method            fapswitch 2.2
_symmetry_space_group_name_H-M    P1
_symmetry_Int_Tables_number       1
_space_group_crystal_system       triclinic
_cell_length_a                    8.238061
_cell_length_b                    18.84676
_cell_length_c                    22.842292
_cell_angle_alpha                 97.272567
_cell_angle_beta                  89.821126
_cell_angle_gamma                 93.515977
_cell_volume                      3511.32013804

loop_
_atom_site_label
_atom_site_type_symbol
_atom_type_description
_atom_site_fract_x
_atom_site_fract_y
_atom_site_fract_z
_atom_type_partial_charge
Ba1   Ba    Ba6+2 0.849480 0.533290 0.473010 1.662986
Ba2   Ba    Ba6+2 0.340340 0.466770 0.527000 1.660790
C1    C     C_3   0.604566 0.791563 0.313945 -0.353161
C2    C     C_R   0.058492 0.560594 0.944106 -0.008911
C3    C     C_R   0.015855 0.556509 0.883569 0.589900
C4    C     C_3   0.110178 0.732810 0.320899 0.401083
C5    C     C_R   0.015729 0.428227 0.873421 0.609170
C6    C     C_R   0.055667 0.430005 0.934116 -0.082278
C7    C     C_R   0.077425 0.497015 0.969513 -0.107742
C8    C     C_R   0.081251 0.626916 0.980045 -0.069762
C9    C     C_R   0.122040 0.630318 0.039814 -0.078505
C10   C     C_R   0.141473 0.567512 0.065849 -0.007325
C11   C     C_R   0.118756 0.500619 0.030556 -0.056266
C12   C     C_3   0.590824 0.718607 0.335890 0.355063
C13   C     C_R   0.073303 0.366634 0.960631 0.425554
C14   C     C_R   0.116528 0.371082 0.020464 -0.122654
C15   C     C_R   0.138182 0.437403 0.056085 -0.084664
C16   C     C_3   0.044661 0.762749 0.267180 0.288079
C17   C     C_R   0.180076 0.441743 0.116633 0.603570
C18   C     C_R   0.183411 0.570115 0.126302 0.587585
C19   C     C_2   0.807194 0.446159 0.767465 -0.090944
C20   C     C_3   0.776600 0.426680 0.701934 -0.064974
C21   C     C_1   0.003209 0.513003 0.685827 0.037526
C22   C     C_2   0.046437 0.520729 0.742665 -0.078765
C23   C     C_3   0.507693 0.361211 0.347073 0.293874
C24   C     C_2   0.943072 0.486309 0.787061 0.220155
C25   C     C_R   0.401787 0.543557 0.232769 -0.105011
C26   C     C_R   0.447256 0.546754 0.292307 -0.032752
C27   C     C_R   0.191282 0.485597 0.314021 0.041637
C28   C     C_3   0.194120 0.683125 0.598363 0.310782
C29   C     C_R   0.145552 0.480917 0.254089 -0.076147
C30   C     C_R   0.249239 0.511225 0.213019 0.225967
C31   C     C_2   0.874657 0.472865 0.664111 -0.273203
C32   C     C_2   0.406699 0.698733 0.475364 -0.252197
C33   C     C_3   0.321286 0.745234 0.437925 -0.064791
C34   C     C_3   0.500659 0.341473 0.280458 -0.362937
C35   C     C_2   0.360374 0.824483 0.454969 -0.121587
C36   C     C_2   0.490341 0.848028 0.489896 -0.069185
C37   C     C_2   0.581804 0.794091 0.517093 -0.129315
C38   C     C_1   0.530987 0.725338 0.509451 0.060583
C39   C     C_R   0.650985 0.066738 0.509506 0.460959
C40   C     C_3   0.209211 0.764229 0.613170 -0.363763
C41   C     C_R   0.545326 0.925580 0.498628 0.464327
C42   C     C_R   0.614400 0.191955 0.487863 -0.124627
C43   C     C_R   0.664759 0.264527 0.491723 0.040693
C44   C     C_R   0.905160 0.243514 0.545561 -0.011824
C45   C     C_3   0.020630 0.265815 0.679930 0.280554
C46   C     C_R   0.856440 0.170166 0.541904 -0.145677
C47   C     C_R   0.707625 0.143877 0.514033 -0.059397
C48   C     C_R   0.804804 0.290398 0.523048 -0.267328
C49   C     C_3   0.001047 0.315800 0.401193 0.306795
C50   C     C_3   0.985857 0.234868 0.384745 -0.378046
C51   C     C_3   0.684757 0.621398 0.650292 0.298133
C52   C     C_3   0.688080 0.638711 0.717152 -0.348832
C53   C     C_3   0.902853 0.267806 0.938279 0.222052
C54   C     C_3   0.158946 0.877495 0.261609 0.185951
C55   C     C_3   0.063099 0.246265 0.740307 -0.275925
C56   C     C_3   0.542601 0.277599 0.664699 0.422934
C57   C     C_3   0.513066 0.209327 0.693192 -0.351090
C58   C     C_R   0.340072 0.519779 0.332515 -0.299192
H1    H     H_    0.629737 0.725614 0.382902 0.059432
H2    H     H_    0.807683 0.608361 0.634803 0.001926
H3    H     H_    0.598087 0.574414 0.638361 0.079348
H4    H     H_    0.729765 0.816056 0.321216 0.185421
H5    H     H_    0.779502 0.683543 0.730629 0.134761
H6    H     H_    0.720463 0.591144 0.737594 0.073773
H7    H     H_    0.566326 0.654165 0.733337 0.133344
H8    H     H_    0.461627 0.697983 0.331599 -0.080304
H9    H     H_    0.519293 0.827546 0.338682 0.062406
H10   H     H_    0.383872 0.373576 0.362823 0.019655
H11   H     H_    0.592162 0.409456 0.357154 0.056237
H12   H     H_    0.298934 0.779793 0.649412 0.121251
H13   H     H_    0.415063 0.293946 0.268846 0.139316
H14   H     H_    0.458030 0.386853 0.259292 0.075292
H15   H     H_    0.623474 0.329097 0.263376 0.127642
H16   H     H_    0.573995 0.786082 0.266201 0.118842
H17   H     H_    0.125686 0.749401 0.228629 0.012880
H18   H     H_    0.978372 0.320976 0.685446 0.020588
H19   H     H_    0.921971 0.226772 0.661221 -0.019387
H20   H     H_    0.162944 0.283438 0.760703 0.183119
H21   H     H_    0.954404 0.249714 0.769150 0.116237
H22   H     H_    0.102331 0.190534 0.736086 0.088748
H23   H     H_    0.250242 0.789336 0.573924 0.076497
H24   H     H_    0.676534 0.287670 0.661740 -0.144681
H25   H     H_    0.490841 0.268848 0.619306 0.076544
H26   H     H_    0.574105 0.164911 0.667022 0.068699
H27   H     H_    0.381143 0.194309 0.694794 0.144853
H28   H     H_    0.121909 0.674131 0.309486 -0.049625
H29   H     H_    0.563510 0.217285 0.738749 0.109291
H30   H     H_    0.132988 0.321767 0.038881 0.134699
H31   H     H_    0.138429 0.682571 0.065652 0.115121
H32   H     H_    0.484806 0.565422 0.201860 0.091253
H33   H     H_    0.067493 0.676687 0.962024 0.120814
H34   H     H_    0.089337 0.784350 0.627108 0.137051
H35   H     H_    0.158664 0.550944 0.757192 0.106897
H36   H     H_    0.730790 0.419936 0.798161 0.091829
H37   H     H_    0.030518 0.453766 0.239385 0.102003
H38   H     H_    0.376079 0.522423 0.378286 0.077086
H39   H     H_    0.231930 0.760016 0.330578 -0.092019
H40   H     H_    0.852196 0.462954 0.616914 0.077577
H41   H     H_    0.292447 0.861518 0.433436 0.105029
H42   H     H_    0.688760 0.811681 0.543985 0.107893
H43   H     H_    0.504439 0.173181 0.463386 0.105709
H44   H     H_    0.934867 0.134159 0.559849 0.098669
H45   H     H_    0.881396 0.335014 0.414887 0.001744
H46   H     H_    0.379938 0.641305 0.466283 0.070294
H47   H     H_    0.842784 0.346693 0.525543 0.056153
H48   H     H_    0.924887 0.735237 0.254641 0.102047
H49   H     H_    0.314881 0.663719 0.586473 -0.002021
H50   H     H_    0.109716 0.669156 0.560390 0.084936
H51   H     H_    0.803817 0.301903 0.927742 0.034016
H52   H     H_    0.892136 0.255876 0.984651 0.007992
H53   H     H_    0.886397 0.216195 0.909040 0.071700
H54   H     H_    0.167413 0.869995 0.212631 0.036845
H55   H     H_    0.273943 0.863780 0.281625 0.018833
H56   H     H_    0.088712 0.328814 0.438262 0.073998
H57   H     H_    0.142860 0.935084 0.275960 0.080800
H58   H     H_    0.892855 0.220299 0.349474 0.132774
H59   H     H_    0.949379 0.208046 0.423556 0.067909
H60   H     H_    0.104627 0.215392 0.368714 0.129114
N1    N     N_R   0.993307 0.490760 0.848987 -0.430848
N2    N     N_R   0.202257 0.507611 0.151141 -0.424426
N3    N     N_R   0.509542 0.043230 0.481025 -0.244275
N4    N     N_R   0.458088 0.974362 0.475621 -0.244504
N5    N     N_R   0.686457 0.948980 0.527582 -0.237568
N6    N     N_R   0.738173 0.018098 0.532959 -0.241051
O1    O     O_2   0.898140 0.461210 0.359840 -0.457101
O2    O     O_2   0.240161 0.247684 0.533599 -0.481517
O3    O     O_3   0.159091 0.262276 0.644069 -0.577234
O4    O     O_3   0.138540 0.461940 0.430900 -0.493606
O5    O     O_3   0.557600 0.585010 0.531050 -0.493910
O6    O     O_2   0.379790 0.327560 0.468300 -0.457579
O7    O     O_3   0.562506 0.303311 0.372989 -0.638746
O8    O     O_2   0.454615 0.474480 0.709084 -0.481687
O9    O     O_3   0.467929 0.334520 0.698389 -0.566674
O10   O     O_2   0.996830 0.611483 0.861909 -0.594372
O11   O     O_2   0.001755 0.370813 0.842000 -0.581196
O12   O     O_3   0.637114 0.681281 0.625709 -0.632345
O13   O     O_2   0.198530 0.386818 0.138471 -0.596633
O14   O     O_2   0.202311 0.628084 0.156897 -0.621581
O15   O     O_3   0.654260 0.589640 0.397760 -0.480795
O16   O     O_2   0.786533 0.541911 0.293739 -0.477736
O17   O     O_3   0.054208 0.346958 0.351673 -0.631222
O18   O     O_3   0.691733 0.671952 0.302390 -0.589271
O19   O     O_2   0.809910 0.672460 0.531740 -0.456041
O20   O     O_3   0.065030 0.625960 0.427320 -0.474913
O21   O     O_2   0.006014 0.754174 0.484857 -0.478099
O22   O     O_3   0.057578 0.299800 0.927581 -0.605387
O23   O     O_3   0.005378 0.746079 0.369393 -0.563896
O24   O     O_3   0.023490 0.837039 0.280548 -0.637176
O25   O     O_2   0.291560 0.538810 0.640200 -0.455408
O26   O     O_3   0.051160 0.538120 0.569110 -0.498291
O27   O     O_3   0.535440 0.410410 0.602240 -0.475408
O28   O     O_3   0.135804 0.653161 0.647880 -0.629513
O29   O     O_3   0.632100 0.415050 0.468960 -0.479534
O30   O     O_3   0.124670 0.374100 0.572690 -0.468172
P1    P     P_3+3 0.069200 0.440380 0.368230 0.996483
P2    P     P_3+3 0.634560 0.662100 0.548650 0.985746
P3    P     P_3+3 0.099053 0.719025 0.430984 0.977415
P4    P     P_3+3 0.120500 0.559680 0.631780 0.994178
P5    P     P_3+3 0.105969 0.280812 0.573791 0.965892
P6    P     P_3+3 0.645910 0.585786 0.320684 0.976080
P7    P     P_3+3 0.562596 0.325510 0.449751 0.950070
P8    P     P_3+3 0.557937 0.414558 0.678818 0.975080

loop_
_geom_bond_atom_site_label_1
_geom_bond_atom_site_label_2
_ccdc_geom_bond_type
C42   C47   A    
C3    O10   D    
C19   C24   D    
O26   P4    S    
C17   N2    Am   
C14   H30   S    
Ba2   O29   S    
C53   H52   S    
O9    P8    S    
Ba1   O19   S    
C45   H19   S    
O21   P3    D    
C41   N5    A    
C26   P6    S    
N3    N4    A    
C52   H5    S    
C1    H4    S    
C45   O3    S    
O4    P1    S    
C32   C38   D    
C38   P2    S    
Ba1   P2    S    
C1    H9    S    
C22   C24   S    
C32   C33   S    
C58   H38   S    
C36   C37   S    
C13   C14   A    
C46   H44   S    
C3    N1    Am   
C4    H28   S    
Ba1   O26   S    
Ba1   Ba2   S    
C57   H29   S    
Ba1   O29   S    
C7    C11   A    
Ba2   O4    S    
C4    O23   S    
C6    C7    A    
C21   C31   D    
C44   P5    S    
Ba2   O6    S    
C21   C22   D    
C23   H11   S    
C24   N1    S    
C23   O7    S    
O1    P1    D    
C18   N2    Am   
C53   H51   S    
C16   H48   S    
O15   P6    S    
C19   C20   S    
C27   C29   A    
C55   H20   S    
Ba1   O20   S    
C54   H57   S    
C5    N1    Am   
O7    P7    S    
C39   C47   S    
C42   H43   S    
O17   P1    S    
C12   O18   S    
C26   C58   A    
Ba2   O26   S    
C4    C16   S    
C44   C46   A    
O27   P8    S    
C49   C50   S    
C32   H46   S    
C30   N2    S    
C5    C6    A    
Ba1   O4    S    
C34   H13   S    
C22   H35   S    
C37   C38   D    
C5    O11   D    
C14   C15   A    
C27   P1    S    
O20   P3    S    
C53   H53   S    
C8    H33   S    
O29   P7    S    
C56   C57   S    
C51   C52   S    
C12   H1    S    
C51   O12   S    
O5    P2    S    
O28   P4    S    
C35   C36   D    
C34   H15   S    
C56   H24   S    
C45   C55   S    
C20   P8    S    
C51   H2    S    
O12   P2    S    
C29   C30   A    
C27   C58   A    
C49   H45   S    
C21   P4    S    
C10   C18   A    
C40   H12   S    
Ba2   O5    S    
O3    P5    S    
C25   H32   S    
C1    H16   S    
O23   P3    S    
C1    C12   S    
C34   H14   S    
C50   H60   S    
Ba2   P4    S    
C46   C47   A    
C28   H50   S    
O30   P5    S    
C6    C13   A    
N5    N6    A    
C55   H21   S    
C54   O24   S    
C56   H25   S    
C42   C43   A    
C33   C35   S    
C37   H42   S    
Ba2   O25   S    
C20   C31   S    
C28   H49   S    
Ba2   O30   S    
O18   P6    S    
C25   C30   A    
C40   H34   S    
C39   N6    A    
C40   H23   S    
Ba1   O1    S    
C2    C3    A    
Ba1   O5    S    
O16   P6    D    
C9    C10   A    
C13   O22   S    
C52   H6    S    
C19   H36   S    
C49   O17   S    
C56   O9    S    
Ba2   O27   S    
C44   C48   A    
C49   H56   S    
C11   C15   A    
C31   H40   S    
C4    H39   S    
C39   N3    A    
C54   H54   S    
Ba1   P1    S    
C43   P7    S    
C57   H26   S    
C36   C41   S    
C52   H7    S    
O25   P4    D    
C35   H41   S    
O19   P2    D    
C51   H3    S    
C18   O14   D    
C53   O22   S    
C48   H47   S    
C43   C48   A    
C16   H17   S    
O2    P5    D    
C15   C17   A    
C54   H55   S    
O8    P8    D    
C29   H37   S    
C57   H27   S    
O6    P7    D    
C33   P3    S    
Ba1   O15   S    
C8    C9    A    
C23   C34   S    
C50   H59   S    
C9    H31   S    
C28   O28   S    
C10   C11   A    
C17   O13   D    
C25   C26   A    
C12   H8    S    
C55   H22   S    
C28   C40   S    
C23   H10   S    
C45   H18   S    
C2    C7    A    
C16   O24   S    
C2    C8    A    
C41   N4    A    
C50   H58   S    
