data_mof_unit_55385.cif
_audit_creation_date              2012-12-10T18:37:19-0500
_audit_creation_method            fapswitch 2.2
_symmetry_space_group_name_H-M    P1
_symmetry_Int_Tables_number       1
_space_group_crystal_system       triclinic
_cell_length_a                    15.16407
_cell_length_b                    13.903611
_cell_length_c                    10.751477
_cell_angle_alpha                 89.859694
_cell_angle_beta                  91.809965
_cell_angle_gamma                 89.605334
_cell_volume                      2265.59845185

loop_
_atom_site_label
_atom_site_type_symbol
_atom_type_description
_atom_site_fract_x
_atom_site_fract_y
_atom_site_fract_z
_atom_type_partial_charge
C1    C     C_R   0.329695 0.500285 0.504693 0.891590
C2    C     C_3   0.594179 0.502491 0.932101 0.703061
C3    C     C_R   0.091668 0.584588 0.491975 -0.253636
C4    C     C_R   0.095623 0.417686 0.554322 -0.248928
C5    C     C_R   0.183471 0.586761 0.493499 0.396961
C6    C     C_R   0.187399 0.415920 0.547649 0.420959
C7    C     C_R   0.232629 0.500873 0.514636 -0.220797
C8    C     C_R   0.047309 0.500435 0.522083 -0.035066
C9    C     C_R   0.904840 0.419136 0.472311 -0.169579
C10   C     C_R   0.902931 0.578735 0.563232 -0.177688
C11   C     C_R   0.813133 0.418968 0.466936 -0.197704
C12   C     C_R   0.811327 0.579081 0.556265 -0.203293
C13   C     C_R   0.766027 0.499293 0.507885 -0.015511
C14   C     C_R   0.950418 0.499141 0.520236 0.169042
C15   C     C_R   0.543511 0.110158 0.604835 -0.284787
C16   C     C_R   0.567978 0.888385 0.576259 -0.284375
C17   C     C_R   0.495434 0.500167 0.259954 0.922568
C18   C     C_R   0.539908 0.211640 0.598889 0.014686
C19   C     C_R   0.563317 0.786872 0.571309 0.008922
C20   C     C_R   0.465064 0.205449 0.402885 0.541310
C21   C     C_R   0.438429 0.796385 0.434220 0.567199
C22   C     C_R   0.472287 0.104990 0.402859 -0.266596
C23   C     C_R   0.439123 0.896779 0.442124 -0.259560
C24   C     C_R   0.508407 0.054535 0.506142 0.074360
C25   C     C_R   0.505576 0.945567 0.509577 0.072457
C26   C     C_R   0.669885 0.499728 0.501792 0.795375
C27   C     C_R   0.497511 0.499892 0.739769 0.973479
C28   C     C_3   0.449277 0.594314 0.067873 0.198123
C29   C     C_3   0.447104 0.408020 0.069119 0.195419
C30   C     C_3   0.443767 0.590183 0.923513 0.157631
C31   C     C_3   0.449047 0.406762 0.924298 0.132929
C32   C     C_3   0.590589 0.499365 0.079037 -0.702476
C33   C     C_3   0.493453 0.500354 0.121898 -0.130811
C34   C     C_3   0.496036 0.499448 0.877723 -0.081291
Cu1   Cu    Cu3+1 0.499990 0.596430 0.500000 0.962935
Cu2   Cu    Cu3+1 0.499990 0.403570 0.500000 0.973422
H1    H     H_    0.494234 0.654940 0.092294 0.146902
H2    H     H_    0.486948 0.344986 0.101952 0.159396
H3    H     H_    0.779144 0.356883 0.428756 0.151406
H4    H     H_    0.775953 0.641194 0.590165 0.146668
H5    H     H_    0.572579 0.076031 0.687001 0.138840
H6    H     H_    0.620875 0.921293 0.630549 0.140144
H7    H     H_    0.568750 0.252578 0.674900 0.141955
H8    H     H_    0.611484 0.744506 0.624103 0.144247
H9    H     H_    0.446954 0.067124 0.321725 0.159421
H10   H     H_    0.386820 0.936002 0.393174 0.148355
H11   H     H_    0.475750 0.656547 0.888002 0.124037
H12   H     H_    0.488061 0.342911 0.895548 0.076204
H13   H     H_    0.624209 0.563858 0.118645 0.195895
H14   H     H_    0.626917 0.439273 0.124817 0.178801
H15   H     H_    0.055351 0.649718 0.467853 0.157772
H16   H     H_    0.061899 0.354569 0.586828 0.149677
H17   H     H_    0.940087 0.357509 0.436877 0.126254
H18   H     H_    0.936568 0.640519 0.602714 0.126064
N1    N     N_R   0.500020 0.258690 0.500000 -0.223173
N2    N     N_R   0.500020 0.741310 0.500000 -0.235153
O1    O     O_R   0.371450 0.581430 0.500010 -0.576549
O2    O     O_R   0.371450 0.418570 0.500010 -0.586925
O3    O     O_R   0.499980 0.581440 0.317690 -0.607282
O4    O     O_R   0.499980 0.418560 0.317690 -0.579406
O5    O     O_R   0.628540 0.581440 0.499990 -0.598955
O6    O     O_R   0.628540 0.418560 0.499990 -0.586829
O7    O     O_R   0.500010 0.581440 0.682310 -0.596176
O8    O     O_R   0.500010 0.418560 0.682310 -0.582521
O9    O     O_3   0.419475 0.247030 0.304297 -0.727445
H19   H     H_    0.388900 0.304139 0.336299 0.367889
O10   O     O_3   0.373813 0.757536 0.357765 -0.697662
H20   H     H_    0.388837 0.690380 0.341761 0.407814
O11   O     O_3   0.368926 0.618205 0.123058 -0.707157
H21   H     H_    0.321617 0.576445 0.089816 0.372056
O12   O     O_3   0.362939 0.394106 0.118472 -0.709774
H22   H     H_    0.317252 0.426753 0.066079 0.372003
O13   O     O_3   0.356026 0.589004 0.876547 -0.684434
H23   H     H_    0.333662 0.656279 0.878413 0.325228
O14   O     O_3   0.364379 0.398390 0.867764 -0.645958
H24   H     H_    0.346422 0.330228 0.876826 0.345578
O15   O     O_3   0.627935 0.594201 0.897917 -0.649831
C35   C     C_3   0.721241 0.598164 0.905481 0.123576
H25   H     H_    0.749489 0.557651 0.826793 0.185356
H26   H     H_    0.747987 0.568268 0.995063 0.137002
C36   C     C_3   0.749618 0.702979 0.895533 -0.381169
H27   H     H_    0.723987 0.733758 0.805890 0.212076
H28   H     H_    0.721255 0.744908 0.972774 0.225956
C37   C     C_3   0.849902 0.711890 0.901982 -0.923340
H29   H     H_    0.876823 0.683695 0.992286 0.262140
H30   H     H_    0.868357 0.788712 0.893518 0.259387
H31   H     H_    0.879579 0.671192 0.824828 0.255068
O16   O     O_3   0.645351 0.429331 0.871552 -0.644031
C38   C     C_3   0.664375 0.342179 0.935560 0.020792
H32   H     H_    0.662471 0.283921 0.865104 0.158217
H33   H     H_    0.614978 0.320991 0.003500 0.110583
C39   C     C_3   0.757972 0.344050 0.993597 -0.340242
H34   H     H_    0.806108 0.354121 0.918853 0.222865
H35   H     H_    0.765388 0.404976 0.059374 0.205244
C40   C     C_3   0.779656 0.250780 0.063435 -0.908588
H36   H     H_    0.733510 0.240663 0.140578 0.256151
H37   H     H_    0.847995 0.253941 0.103402 0.255869
H38   H     H_    0.774737 0.188425 0.999235 0.253804
O17   O     O_3   0.223744 0.673652 0.470989 -0.559082
C41   C     C_3   0.230811 0.727006 0.583209 0.124615
H39   H     H_    0.299951 0.721685 0.620191 0.180570
H40   H     H_    0.186948 0.701531 0.658108 0.111205
C42   C     C_3   0.208272 0.832526 0.556340 -0.340347
H41   H     H_    0.246660 0.858731 0.477000 0.259093
H42   H     H_    0.136972 0.839131 0.530259 0.207690
C43   C     C_3   0.228821 0.895340 0.669705 -0.938812
H43   H     H_    0.191297 0.870384 0.750637 0.261771
H44   H     H_    0.209749 0.970981 0.648900 0.268037
H45   H     H_    0.300588 0.892758 0.693848 0.262690
O18   O     O_3   0.232691 0.334505 0.588861 -0.577978
C44   C     C_3   0.234852 0.264803 0.493075 0.102548
H46   H     H_    0.301660 0.232053 0.497769 0.181367
H47   H     H_    0.225023 0.295215 0.397257 0.128449
C45   C     C_3   0.168487 0.184429 0.514865 -0.386465
H48   H     H_    0.175265 0.158899 0.612770 0.235247
H49   H     H_    0.100295 0.211812 0.497855 0.203523
C46   C     C_3   0.183647 0.099807 0.427587 -0.900618
H50   H     H_    0.176977 0.123675 0.329044 0.267907
H51   H     H_    0.133932 0.043272 0.443923 0.256227
H52   H     H_    0.250519 0.068409 0.444889 0.257937

loop_
_geom_bond_atom_site_label_1
_geom_bond_atom_site_label_2
_ccdc_geom_bond_type
C19   N2    A    
C15   C18   A    
O13   H23   S    
C40   H36   S    
C37   H31   S    
C4    C8    A    
C36   H27   S    
C40   H38   S    
C44   H47   S    
O15   C35   S    
C4    H16   S    
C2    C32   S    
C26   O5    A    
C37   H30   S    
Cu2   O2    S    
C46   H51   S    
C35   H26   S    
C43   H43   S    
C29   C33   S    
Cu1   O3    S    
O18   C44   S    
C41   H39   S    
C5    O17   S    
C29   H2    S    
C2    O16   S    
C38   H33   S    
O16   C38   S    
C2    C34   S    
C23   C25   A    
C23   H10   S    
C21   O10   S    
C6    O18   S    
C17   C33   S    
C20   N1    A    
Cu2   O6    S    
C39   H35   S    
C36   H28   S    
C45   H48   S    
C27   C34   S    
C30   C34   S    
O10   H20   S    
C20   O9    S    
C24   C25   S    
C15   H5    S    
C4    C6    A    
C3    C8    A    
C10   C14   A    
C46   H52   S    
C5    C7    A    
C9    C14   A    
C3    H15   S    
C35   H25   S    
C3    C5    A    
C41   C42   S    
Cu1   Cu2   S    
C42   C43   S    
C12   H4    S    
O14   H24   S    
C1    O1    A    
C30   H11   S    
C31   O14   S    
O17   C41   S    
C28   O11   S    
C41   H40   S    
C31   C34   S    
C42   H42   S    
C37   H29   S    
C38   C39   S    
C11   H3    S    
C9    C11   A    
C32   H14   S    
C10   C12   A    
C18   N1    A    
C17   O3    A    
C15   C24   A    
C20   C22   A    
C28   C33   S    
C31   H12   S    
C21   C23   A    
C22   C24   A    
C13   C26   S    
C9    H17   S    
C16   H6    S    
C36   C37   S    
C19   H8    S    
C16   C25   A    
C30   O13   S    
C8    C14   S    
C44   H46   S    
Cu1   N2    S    
C1    C7    S    
Cu2   O4    S    
C21   N2    A    
C45   H49   S    
C40   H37   S    
C6    C7    A    
Cu1   O1    S    
C32   C33   S    
C28   C30   S    
C26   O6    A    
O12   H22   S    
C29   C31   S    
Cu2   N1    S    
C46   H50   S    
C11   C13   A    
C35   C36   S    
C43   H44   S    
C28   H1    S    
Cu1   O5    S    
C16   C19   A    
C39   H34   S    
C44   C45   S    
C39   C40   S    
O11   H21   S    
C10   H18   S    
C32   H13   S    
C45   C46   S    
C27   O8    A    
C17   O4    A    
C1    O2    A    
C22   H9    S    
C12   C13   A    
O9    H19   S    
C18   H7    S    
C42   H41   S    
C2    O15   S    
C27   O7    A    
Cu1   O7    S    
C38   H32   S    
Cu2   O8    S    
C29   O12   S    
C43   H45   S    
