data_mof_unit_6785.cif
_audit_creation_date              2012-12-10T18:33:32-0500
_audit_creation_method            fapswitch 2.2
_symmetry_space_group_name_H-M    P1
_symmetry_Int_Tables_number       1
_space_group_crystal_system       triclinic
_cell_length_a                    8.77568
_cell_length_b                    15.221698
_cell_length_c                    13.851985
_cell_angle_alpha                 91.178075
_cell_angle_beta                  97.337527
_cell_angle_gamma                 89.377205
_cell_volume                      1834.75465303

loop_
_atom_site_label
_atom_site_type_symbol
_atom_type_description
_atom_site_fract_x
_atom_site_fract_y
_atom_site_fract_z
_atom_type_partial_charge
C1    C     C_R   0.507900 0.329906 0.499203 0.830053
C2    C     C_R   0.493254 0.670211 0.500660 0.835394
C3    C     C_R   0.633361 0.518706 0.118697 -0.281396
C4    C     C_R   0.429908 0.432353 0.884813 -0.257943
C5    C     C_R   0.629980 0.520937 0.219855 0.079401
C6    C     C_R   0.428409 0.434550 0.783386 0.051083
C7    C     C_R   0.370734 0.477027 0.198281 -0.004580
C8    C     C_R   0.572814 0.565186 0.797911 0.031426
C9    C     C_R   0.366379 0.477641 0.096201 0.335549
C10   C     C_R   0.571588 0.568168 0.899730 0.308063
C11   C     C_R   0.500674 0.497591 0.054472 0.024370
C12   C     C_R   0.501415 0.499424 0.945372 0.024109
C13   C     C_R   0.204313 0.498134 0.475740 0.859441
C14   C     C_R   0.795604 0.501308 0.524209 0.853938
C15   C     C_2   0.041546 0.482842 0.465669 -0.289545
C16   C     C_2   0.958148 0.516353 0.534197 -0.276877
C17   C     C_R   0.558093 0.098196 0.588658 -0.006137
C18   C     C_R   0.456239 0.901228 0.407856 -0.004439
C19   C     C_R   0.544687 0.189729 0.585904 -0.225581
C20   C     C_R   0.466128 0.809755 0.412207 -0.224919
C21   C     C_R   0.527273 0.233582 0.497266 -0.123340
C22   C     C_R   0.477925 0.766852 0.501409 -0.124428
C23   C     C_R   0.539610 0.184230 0.410598 -0.000075
C24   C     C_R   0.465205 0.817560 0.586856 0.017593
C25   C     C_R   0.543632 0.092902 0.414177 -0.133377
C26   C     C_R   0.464046 0.908876 0.581921 -0.138946
C27   C     C_R   0.527649 0.048347 0.500089 0.045185
C28   C     C_R   0.484240 0.952139 0.495874 0.047422
Cu1   Cu    Cu3+1 0.500000 0.499990 0.596430 1.005573
Cu2   Cu    Cu3+1 0.500000 0.500010 0.403570 1.005426
H1    H     H_    0.557242 0.227295 0.653761 0.191160
H2    H     H_    0.454885 0.771549 0.344789 0.194451
H3    H     H_    0.563635 0.057525 0.348787 0.153919
H4    H     H_    0.443402 0.945506 0.646465 0.150944
H5    H     H_    0.739901 0.533540 0.091112 0.196375
H6    H     H_    0.376484 0.377589 0.915613 0.206649
H7    H     H_    0.732912 0.539175 0.266909 0.159242
H8    H     H_    0.370787 0.382948 0.738408 0.150227
H9    H     H_    0.268736 0.458522 0.228460 0.196517
H10   H     H_    0.631336 0.616081 0.764022 0.175738
N1    N     N_R   0.500000 0.500020 0.258690 -0.201525
N2    N     N_R   0.500000 0.499980 0.741310 -0.202254
O1    O     O_R   0.500010 0.371450 0.581430 -0.604931
O2    O     O_R   0.499990 0.628550 0.418570 -0.596249
O3    O     O_R   0.500010 0.371460 0.418560 -0.549786
O4    O     O_R   0.499990 0.628540 0.581440 -0.566886
O5    O     O_R   0.274840 0.499990 0.562640 -0.565752
O6    O     O_R   0.725160 0.500010 0.437360 -0.585238
O7    O     O_R   0.274840 0.500000 0.399770 -0.580151
O8    O     O_R   0.725160 0.500000 0.600230 -0.555195
C29   C     C_2   0.982530 0.414671 0.392028 0.884146
O9    O     O_2   0.913448 0.351263 0.416720 -0.545554
O10   O     O_R   0.009611 0.422135 0.295326 -0.774547
H11   H     H_    0.964209 0.371793 0.252340 0.355340
C30   C     C_2   0.015648 0.585757 0.606481 0.894927
O11   O     O_2   0.082839 0.649202 0.580279 -0.548905
O12   O     O_R   0.986567 0.580322 0.703040 -0.761616
H12   H     H_    0.029807 0.631915 0.744851 0.332052
C31   C     C_2   0.631943 0.060509 0.681303 0.829001
O13   O     O_2   0.603297 0.091111 0.759407 -0.580450
O14   O     O_R   0.738516 0.991705 0.679163 -0.730297
H13   H     H_    0.781224 0.971697 0.746690 0.356559
C32   C     C_2   0.387589 0.937098 0.313250 0.826113
O15   O     O_2   0.289956 0.995262 0.311026 -0.543930
O16   O     O_R   0.429721 0.901793 0.226399 -0.778318
H14   H     H_    0.373725 0.930994 0.166773 0.345469
C33   C     C_2   0.549024 0.223146 0.314424 0.881554
O17   O     O_2   0.651881 0.274214 0.303884 -0.538423
O18   O     O_R   0.444440 0.197291 0.234471 -0.729418
H15   H     H_    0.462988 0.227406 0.172454 0.339597
C34   C     C_2   0.449561 0.779727 0.682483 0.846125
O19   O     O_2   0.537428 0.802322 0.754156 -0.612309
O20   O     O_R   0.329460 0.722330 0.691646 -0.699246
H16   H     H_    0.327679 0.702391 0.760759 0.302445
O21   O     O_3   0.231469 0.455756 0.038453 -0.580867
C35   C     C_3   0.144284 0.533148 0.018120 0.040097
H17   H     H_    0.210890 0.582932 0.983463 0.127757
H18   H     H_    0.106754 0.561845 0.085955 0.154905
C36   C     C_3   0.002116 0.510956 0.947447 -0.686071
H19   H     H_    0.929281 0.463960 0.980834 0.244707
H20   H     H_    0.934628 0.571729 0.928871 0.232687
H21   H     H_    0.036400 0.480996 0.879592 0.268225
O22   O     O_3   0.647812 0.635725 0.953270 -0.599277
C37   C     C_3   0.539594 0.698900 0.977986 0.055287
H22   H     H_    0.459143 0.670769 0.024759 0.129931
H23   H     H_    0.472154 0.725919 0.911775 0.168546
C38   C     C_3   0.624226 0.774239 0.034390 -0.656403
H24   H     H_    0.704904 0.804582 0.989446 0.260982
H25   H     H_    0.540485 0.824924 0.053307 0.220756
H26   H     H_    0.689842 0.749606 0.102529 0.238726

loop_
_geom_bond_atom_site_label_1
_geom_bond_atom_site_label_2
_ccdc_geom_bond_type
C38   H24   S    
C4    H6    S    
C1    C21   S    
C5    H7    S    
Cu1   N2    S    
O20   H16   S    
Cu2   O3    S    
C35   C36   S    
C30   O11   D    
C19   H1    S    
C32   O16   S    
O10   H11   S    
C2    O4    A    
Cu1   O5    S    
Cu2   O6    S    
C19   C21   A    
C24   C26   A    
C18   C32   S    
C15   C16   D    
C10   O22   S    
C23   C33   S    
C13   O5    A    
C1    O1    A    
C2    O2    A    
C2    C22   S    
C37   C38   S    
Cu2   N1    S    
C15   C29   S    
C4    C12   A    
C18   C20   A    
C23   C25   A    
C31   O13   D    
Cu1   O1    S    
Cu2   O2    S    
O14   H13   S    
C26   H4    S    
Cu1   O8    S    
C21   C23   A    
C31   O14   S    
C29   O9    D    
C17   C27   A    
C18   C28   A    
C35   H17   S    
C4    C6    A    
C36   H20   S    
C14   O6    A    
C33   O17   D    
C33   O18   S    
O21   C35   S    
Cu1   Cu2   S    
O22   C37   S    
C3    H5    S    
C6    H8    S    
C37   H22   S    
C9    C11   A    
C10   C12   A    
C17   C31   S    
C13   O7    A    
Cu2   O7    S    
C20   C22   A    
C30   O12   S    
C14   C16   S    
C36   H19   S    
C8    N2    A    
C34   O20   S    
C20   H2    S    
C7    C9    A    
C5    N1    A    
C35   H18   S    
C3    C5    A    
C36   H21   S    
C11   C12   S    
C25   C27   A    
C8    H10   S    
C26   C28   A    
Cu1   O4    S    
C13   C15   S    
C16   C30   S    
C34   O19   D    
C1    O3    A    
O12   H12   S    
C14   O8    A    
C17   C19   A    
C22   C24   A    
C7    N1    A    
O18   H15   S    
C3    C11   A    
C32   O15   D    
C8    C10   A    
O16   H14   S    
C6    N2    A    
C38   H26   S    
C27   C28   S    
C38   H25   S    
C7    H9    S    
C37   H23   S    
C9    O21   S    
C29   O10   S    
C24   C34   S    
C25   H3    S    
