data_mof_unit_5177.cif
_audit_creation_date              2012-12-11T15:22:22-0500
_audit_creation_method            fapswitch 2.2
_symmetry_space_group_name_H-M    P1
_symmetry_Int_Tables_number       1
_space_group_crystal_system       triclinic
_cell_length_a                    22.441998
_cell_length_b                    12.990622
_cell_length_c                    26.999338
_cell_angle_alpha                 89.870274
_cell_angle_beta                  90.70481
_cell_angle_gamma                 90.099151
_cell_volume                      7870.63873261

loop_
_atom_site_label
_atom_site_type_symbol
_atom_type_description
_atom_site_fract_x
_atom_site_fract_y
_atom_site_fract_z
_atom_type_partial_charge
Br1   Br    Br    0.641020 0.789486 0.644229 -0.399202
Br2   Br    Br    0.357960 0.784509 0.357242 -0.393720
Br3   Br    Br    0.140219 0.290043 0.644745 -0.375988
Br4   Br    Br    0.863488 0.328443 0.348037 -0.394493
C1    C     C_R   0.720718 0.345162 0.178284 0.546122
C2    C     C_R   0.480582 0.256288 0.896476 -0.111713
C3    C     C_R   0.035652 0.638031 0.561277 -0.116308
C4    C     C_R   0.496776 0.085347 0.394052 0.043261
C5    C     C_R   0.502876 0.086042 0.605985 0.043498
C6    C     C_R   0.027655 0.574810 0.404540 0.068905
C7    C     C_R   0.022670 0.629655 0.611981 0.037389
C8    C     C_R   0.736241 0.979344 0.375286 0.041441
C9    C     C_R   0.263663 0.979773 0.624707 0.043661
C10   C     C_R   0.235955 0.479287 0.375375 0.065323
C11   C     C_R   0.764120 0.479525 0.624301 0.036132
C12   C     C_R   0.728973 0.879492 0.393517 -0.116215
C13   C     C_R   0.019620 0.756455 0.103315 -0.112266
C14   C     C_R   0.269488 0.879716 0.606643 -0.114231
C15   C     C_R   0.230621 0.378958 0.393524 -0.086061
C16   C     C_R   0.780797 0.383429 0.605796 -0.117013
C17   C     C_R   0.729762 0.863328 0.444572 -0.076740
C18   C     C_R   0.268624 0.863666 0.555600 -0.074493
C19   C     C_R   0.230591 0.362697 0.444601 -0.070045
C20   C     C_R   0.781661 0.368122 0.554673 -0.079921
C21   C     C_R   0.735202 0.947722 0.476892 0.062007
C22   C     C_R   0.264472 0.948254 0.523089 0.061336
C23   C     C_R   0.233718 0.447220 0.477027 0.058057
C24   C     C_R   0.980651 0.756303 0.896441 -0.111743
C25   C     C_R   0.768304 0.450293 0.522459 0.063474
C26   C     C_R   0.741316 0.047390 0.458160 -0.094517
C27   C     C_R   0.259620 0.048066 0.541665 -0.084772
C28   C     C_R   0.237802 0.547286 0.458362 -0.085468
C29   C     C_R   0.753543 0.546798 0.541379 -0.091942
C30   C     C_R   0.742405 0.062956 0.407675 -0.093918
C31   C     C_R   0.258732 0.063584 0.592152 -0.082388
C32   C     C_R   0.239346 0.563098 0.407867 -0.074879
C33   C     C_R   0.750823 0.560942 0.591873 -0.094520
C34   C     C_R   0.787710 0.973522 0.555333 -0.167715
C35   C     C_R   0.508929 0.259050 0.051830 -0.022504
C36   C     C_R   0.213246 0.975861 0.444041 -0.161069
C37   C     C_R   0.286117 0.475026 0.555499 -0.161299
C38   C     C_R   0.708769 0.460316 0.446966 -0.163967
C39   C     C_R   0.721605 0.348107 0.321526 0.560145
C40   C     C_R   0.278181 0.348032 0.678447 0.552035
C41   C     C_R   0.221743 0.847642 0.321691 0.556539
C42   C     C_R   0.778271 0.847876 0.678356 0.551799
C43   C     C_R   0.797106 0.952930 0.604810 -0.166662
C44   C     C_R   0.203922 0.954725 0.394605 -0.158912
C45   C     C_R   0.296015 0.454282 0.604968 -0.158641
C46   C     C_R   0.491098 0.258952 0.947998 -0.022488
C47   C     C_R   0.697995 0.439181 0.397865 -0.162892
C48   C     C_R   0.703497 0.857137 0.607333 0.126760
C49   C     C_R   0.296066 0.855213 0.393213 0.128881
C50   C     C_R   0.203379 0.355826 0.607634 0.162900
C51   C     C_R   0.798889 0.372397 0.389738 0.134259
C52   C     C_R   0.694311 0.877077 0.556378 0.061635
C53   C     C_R   0.305118 0.875710 0.444101 0.061676
C54   C     C_R   0.194331 0.374306 0.556615 0.081075
C55   C     C_R   0.809771 0.392784 0.440501 0.065628
C56   C     C_R   0.738170 0.932763 0.530453 -0.027899
C57   C     C_R   0.009016 0.759046 0.051793 -0.022412
C58   C     C_R   0.261867 0.933366 0.469491 -0.029917
C59   C     C_R   0.237145 0.432146 0.530613 -0.031071
C60   C     C_R   0.763280 0.434527 0.469025 -0.030627
C61   C     C_R   0.757371 0.890235 0.630725 0.001131
C62   C     C_R   0.242861 0.889930 0.369281 0.001939
C63   C     C_R   0.256943 0.390432 0.630948 0.009595
C64   C     C_R   0.741360 0.390794 0.369283 0.001749
C65   C     C_R   0.553686 0.158850 0.321405 0.571018
C66   C     C_R   0.446257 0.159085 0.678561 0.570493
C67   C     C_R   0.056337 0.657748 0.322870 0.546696
C68   C     C_R   0.991189 0.758963 0.947960 -0.022621
C69   C     C_R   0.945880 0.659582 0.678774 0.598348
C70   C     C_R   0.731624 0.003317 0.323226 0.531461
C71   C     C_R   0.268346 0.003503 0.676777 0.533382
C72   C     C_R   0.231630 0.503179 0.323233 0.535921
C73   C     C_R   0.768642 0.504288 0.676436 0.534217
C74   C     C_R   0.513462 0.070938 0.103282 -0.109500
C75   C     C_R   0.485885 0.070720 0.897050 -0.109615
C76   C     C_R   0.013582 0.570923 0.103234 -0.109649
C77   C     C_R   0.986011 0.570741 0.897001 -0.110338
C78   C     C_R   0.504034 0.069504 0.052052 -0.028797
C79   C     C_R   0.503070 0.164393 0.025948 0.014978
C80   C     C_R   0.495321 0.069381 0.948285 -0.028859
C81   C     C_R   0.004168 0.569497 0.052002 -0.028735
C82   C     C_R   0.995458 0.569395 0.948235 -0.028954
C83   C     C_R   0.499002 0.974587 0.974236 0.025651
C84   C     C_R   0.500079 0.974659 0.026357 0.026149
C85   C     C_R   0.999155 0.474598 0.974181 0.025589
C86   C     C_R   0.000230 0.474656 0.026301 0.025934
C87   C     C_2   0.522877 0.993293 0.633492 0.612062
C88   C     C_2   0.476816 0.992369 0.366787 0.610197
C89   C     C_2   0.066365 0.578131 0.645852 0.593345
C90   C     C_R   0.496612 0.164337 0.974134 0.014988
C91   C     C_2   0.041071 0.468601 0.388840 0.597574
C92   C     C_2   0.500288 0.874716 0.947282 0.586788
C93   C     C_2   0.498642 0.874869 0.053583 0.587253
C94   C     C_2   0.000434 0.374736 0.947220 0.586994
C95   C     C_2   0.998784 0.374856 0.053520 0.587223
C96   C     C_2   0.639580 0.840510 0.530071 0.608958
C97   C     C_2   0.359166 0.837796 0.470902 0.609771
C98   C     C_2   0.140686 0.333530 0.530513 0.607416
C99   C     C_2   0.868873 0.371530 0.463790 0.615963
C100  C     C_2   0.489645 0.453253 0.947047 0.584245
C101  C     C_R   0.003187 0.664392 0.025905 0.015038
C102  C     C_2   0.510824 0.453342 0.052275 0.584463
C103  C     C_2   0.989698 0.953262 0.947019 0.584503
C104  C     C_2   0.010870 0.953339 0.052249 0.584146
C105  C     C_R   0.279300 0.345008 0.821750 0.544146
C106  C     C_R   0.996730 0.664345 0.974090 0.014962
C107  C     C_R   0.505262 0.353647 0.025683 0.033132
C108  C     C_R   0.495004 0.353601 0.973896 0.033094
C109  C     C_R   0.005333 0.853648 0.025651 0.033102
C110  C     C_R   0.995078 0.853608 0.973863 0.033051
C111  C     C_R   0.738623 0.958885 0.129476 0.014943
C112  C     C_R   0.261405 0.958738 0.870562 0.015279
C113  C     C_R   0.238617 0.458907 0.129470 0.015528
C114  C     C_R   0.761404 0.458739 0.870562 0.015163
C115  C     C_R   0.793676 0.965950 0.105623 -0.119116
C116  C     C_R   0.220719 0.845164 0.178284 0.544646
C117  C     C_R   0.206331 0.965214 0.894373 -0.118355
C118  C     C_R   0.293669 0.465965 0.105616 -0.118507
C119  C     C_R   0.706333 0.465239 0.894376 -0.118519
C120  C     C_R   0.797217 0.947719 0.054883 -0.110407
C121  C     C_R   0.202857 0.947298 0.945172 -0.110319
C122  C     C_R   0.297205 0.447755 0.054873 -0.110363
C123  C     C_R   0.702858 0.447320 0.945173 -0.110298
C124  C     C_R   0.745612 0.923617 0.027184 0.016734
C125  C     C_R   0.254552 0.924152 0.972924 0.016682
C126  C     C_R   0.245597 0.423681 0.027173 0.016667
C127  C     C_R   0.779303 0.845000 0.821753 0.544972
C128  C     C_R   0.754551 0.424145 0.972923 0.016738
C129  C     C_R   0.691271 0.911293 0.051590 -0.115609
C130  C     C_R   0.308915 0.912389 0.948577 -0.115766
C131  C     C_R   0.191256 0.411374 0.051579 -0.115677
C132  C     C_R   0.808911 0.412355 0.948573 -0.115730
C133  C     C_R   0.553410 0.157240 0.177642 0.551654
C134  C     C_R   0.446547 0.157181 0.822376 0.551831
C135  C     C_R   0.053430 0.657238 0.177629 0.545601
C136  C     C_R   0.946571 0.657185 0.822361 0.557702
C137  C     C_R   0.687907 0.927667 0.102314 -0.118921
C138  C     C_R   0.475029 0.162584 0.871623 -0.015474
C139  C     C_R   0.312212 0.928359 0.897809 -0.118980
C140  C     C_R   0.187895 0.427724 0.102305 -0.118792
C141  C     C_R   0.812207 0.428332 0.897805 -0.119053
C142  C     C_R   0.714822 0.835937 0.948804 -0.095961
C143  C     C_R   0.285541 0.837126 0.051474 -0.095877
C144  C     C_R   0.214798 0.336005 0.948794 -0.095865
C145  C     C_R   0.785530 0.337101 0.051470 -0.096026
C146  C     C_R   0.720878 0.820244 0.898198 -0.098863
C147  C     C_R   0.279452 0.821376 0.102082 -0.098465
C148  C     C_R   0.220858 0.320296 0.898190 -0.098921
C149  C     C_R   0.524788 0.162789 0.128442 -0.015698
C150  C     C_R   0.779441 0.321352 0.102078 -0.098069
C151  C     C_R   0.791462 0.961421 0.894294 -0.091059
C152  C     C_R   0.208619 0.961805 0.105628 -0.091303
C153  C     C_R   0.291454 0.461455 0.894283 -0.091385
C154  C     C_R   0.708623 0.461804 0.105627 -0.091667
C155  C     C_R   0.784879 0.977906 0.944899 -0.088887
C156  C     C_R   0.215250 0.978373 0.055007 -0.088904
C157  C     C_R   0.284868 0.477954 0.944886 -0.088854
C158  C     C_R   0.715255 0.478373 0.055007 -0.089095
C159  C     C_R   0.748185 0.912815 0.972898 0.020892
C160  C     C_R   0.975104 0.662600 0.871587 -0.015789
C161  C     C_R   0.252045 0.913593 0.027204 0.020692
C162  C     C_R   0.248167 0.412878 0.972887 0.020937
C163  C     C_R   0.752044 0.413583 0.027202 0.020646
C164  C     C_R   0.761115 0.880115 0.870930 0.017437
C165  C     C_R   0.239019 0.880731 0.129154 0.017379
C166  C     C_R   0.261105 0.380147 0.870921 0.016698
C167  C     C_R   0.739016 0.380722 0.129152 0.017346
C168  C     C_R   0.525266 0.169239 0.370350 0.005220
C169  C     C_R   0.474433 0.169786 0.629514 0.004498
C170  C     C_R   0.031951 0.663678 0.373558 -0.009719
C171  C     C_R   0.024857 0.662779 0.128408 -0.016197
C172  C     C_R   0.968995 0.673547 0.628784 0.013839
C173  C     C_R   0.537116 0.259361 0.397731 -0.142887
C174  C     C_R   0.462210 0.259578 0.601858 -0.143219
C175  C     C_R   0.020011 0.760945 0.394136 -0.145194
C176  C     C_R   0.932538 0.730367 0.595892 -0.135367
C177  C     C_R   0.526111 0.263354 0.448288 -0.118616
C178  C     C_R   0.472953 0.263363 0.551231 -0.119434
C179  C     C_R   0.007246 0.770754 0.444434 -0.123871
C180  C     C_R   0.946569 0.739134 0.546230 -0.102420
C181  C     C_R   0.731038 0.002323 0.179178 0.536344
C182  C     C_R   0.519558 0.256464 0.103348 -0.112099
C183  C     C_R   0.268937 0.002222 0.820803 0.537018
C184  C     C_R   0.231037 0.502325 0.179177 0.535387
C185  C     C_R   0.768937 0.502224 0.820804 0.537406
C186  C     C_R   0.502945 0.177383 0.472712 0.012392
C187  C     C_R   0.496153 0.177478 0.527031 0.012053
C188  C     C_R   0.006272 0.683392 0.474842 0.008493
C189  C     C_R   0.997111 0.690374 0.528399 0.009985
C190  C     C_R   0.486963 0.089994 0.445173 -0.108974
C191  C     C_R   0.512382 0.090431 0.554824 -0.107337
C192  C     C_R   0.014063 0.586325 0.454271 -0.074796
Cr1   Cr    Cr6+3 0.756570 0.170940 0.251190 1.083872
Cr2   Cr    Cr6+3 0.374010 0.036240 0.749520 1.060307
Cr3   Cr    Cr6+3 0.125990 0.536240 0.250480 1.073211
Cr4   Cr    Cr6+3 0.874010 0.536240 0.749520 1.060307
Cr5   Cr    Cr6+3 0.243430 0.170940 0.748810 1.086701
Cr6   Cr    Cr6+3 0.256570 0.670940 0.251190 1.084043
Cr7   Cr    Cr6+3 0.743430 0.670940 0.748810 1.082801
Cr8   Cr    Cr6+3 0.623740 0.299110 0.249580 1.039327
Cr9   Cr    Cr6+3 0.376260 0.299110 0.750420 1.039881
Cr10  Cr    Cr6+3 0.123740 0.799110 0.249580 1.035218
Cr11  Cr    Cr6+3 0.876260 0.799110 0.750420 1.045381
Cr12  Cr    Cr6+3 0.625990 0.036240 0.250480 1.060661
H1    H     H_    0.481580 0.999088 0.877058 0.170790
H2    H     H_    0.349515 0.895707 0.969085 0.162060
H3    H     H_    0.150708 0.393948 0.031134 0.162343
H4    H     H_    0.849510 0.395645 0.969078 0.162016
H5    H     H_    0.644600 0.922785 0.119466 0.146827
H6    H     H_    0.355534 0.923960 0.880678 0.146527
H7    H     H_    0.144588 0.422851 0.119458 0.146890
H8    H     H_    0.855527 0.423913 0.880672 0.146519
H9    H     H_    0.558780 0.324997 0.380860 0.142349
H10   H     H_    0.440442 0.325008 0.618580 0.146059
H11   H     H_    0.022928 0.830073 0.371793 0.143459
H12   H     H_    0.517421 0.999334 0.123479 0.171032
H13   H     H_    0.891291 0.764532 0.608312 0.127792
H14   H     H_    0.532716 0.025672 0.536502 0.177816
H15   H     H_    0.466581 0.025182 0.463667 0.177988
H16   H     H_    0.075544 0.602639 0.546841 0.173662
H17   H     H_    0.011738 0.518921 0.477851 0.152212
H18   H     H_    0.538678 0.331849 0.468723 0.126938
H19   H     H_    0.460188 0.331596 0.530585 0.128294
H20   H     H_    0.000265 0.846546 0.459931 0.131936
H21   H     H_    0.916203 0.778970 0.521278 0.125492
H22   H     H_    0.723300 0.815036 0.368516 0.117417
H23   H     H_    0.981726 0.499113 0.877003 0.171072
H24   H     H_    0.274145 0.815024 0.631757 0.119653
H25   H     H_    0.226883 0.314253 0.368447 0.114573
H26   H     H_    0.792581 0.321007 0.630688 0.119566
H27   H     H_    0.821172 0.017213 0.535651 0.139264
H28   H     H_    0.180329 0.021270 0.463265 0.151547
H29   H     H_    0.318853 0.520302 0.535794 0.150345
H30   H     H_    0.673015 0.492768 0.468582 0.148114
H31   H     H_    0.837914 0.981081 0.621856 0.156907
H32   H     H_    0.163749 0.984316 0.377113 0.154736
H33   H     H_    0.336544 0.483602 0.622017 0.153409
H34   H     H_    0.017561 0.499315 0.123424 0.171322
H35   H     H_    0.653860 0.455611 0.383231 0.152517
H36   H     H_    0.726108 0.785642 0.458887 0.113911
H37   H     H_    0.271264 0.785878 0.541441 0.115035
H38   H     H_    0.228445 0.284776 0.458839 0.109085
H39   H     H_    0.792153 0.292632 0.540255 0.114266
H40   H     H_    0.745331 0.113061 0.482686 0.114959
H41   H     H_    0.256589 0.113903 0.517033 0.115865
H42   H     H_    0.240044 0.613053 0.482958 0.116650
H43   H     H_    0.743407 0.610890 0.516926 0.122220
H44   H     H_    0.746418 0.141016 0.393783 0.138940
H45   H     H_    0.822364 0.009119 0.873947 0.150355
H46   H     H_    0.255871 0.141690 0.605937 0.137837
H47   H     H_    0.241626 0.641347 0.394003 0.139022
H48   H     H_    0.740299 0.636901 0.605672 0.157229
H49   H     H_    0.473795 0.326371 0.875535 0.172077
H50   H     H_    0.526696 0.326549 0.124088 0.172053
H51   H     H_    0.973834 0.826386 0.875507 0.172348
H52   H     H_    0.026726 0.826541 0.124063 0.171663
H53   H     H_    0.833402 0.989842 0.125713 0.152844
H54   H     H_    0.166546 0.988458 0.874197 0.154120
H55   H     H_    0.333399 0.489834 0.125707 0.153439
H56   H     H_    0.177610 0.009153 0.125847 0.150098
H57   H     H_    0.666550 0.488506 0.874202 0.153677
H58   H     H_    0.686326 0.784370 0.969405 0.141210
H59   H     H_    0.314135 0.785842 0.031010 0.142205
H60   H     H_    0.186295 0.284451 0.969397 0.141335
H61   H     H_    0.814117 0.285807 0.031005 0.142159
H62   H     H_    0.697187 0.756396 0.881276 0.155813
H63   H     H_    0.303240 0.757778 0.119147 0.156275
H64   H     H_    0.197163 0.256449 0.881270 0.156110
H65   H     H_    0.803221 0.257744 0.119142 0.156685
H66   H     H_    0.840051 0.954796 0.037133 0.159733
H67   H     H_    0.322360 0.509141 0.873934 0.150309
H68   H     H_    0.160016 0.953900 0.962916 0.160027
H69   H     H_    0.340040 0.454822 0.037123 0.159805
H70   H     H_    0.660020 0.453941 0.962919 0.159977
H71   H     H_    0.809675 0.039872 0.962333 0.137438
H72   H     H_    0.190375 0.040056 0.037400 0.137743
H73   H     H_    0.309668 0.539917 0.962319 0.137428
H74   H     H_    0.690388 0.540067 0.037401 0.137715
H75   H     H_    0.557300 0.934208 0.696868 0.366096
H76   H     H_    0.442250 0.932788 0.303669 0.365073
H77   H     H_    0.092870 0.544778 0.715801 0.352069
H78   H     H_    0.677618 0.509160 0.125848 0.150286
H79   H     H_    0.010464 0.324385 0.378146 0.358742
H80   H     H_    0.462847 0.735262 0.936241 0.355916
H81   H     H_    0.536026 0.735677 0.065148 0.355371
H82   H     H_    0.962965 0.235313 0.936154 0.356036
H83   H     H_    0.036142 0.235634 0.065062 0.355417
H84   H     H_    0.573932 0.871876 0.480546 0.358690
H85   H     H_    0.425157 0.868211 0.520240 0.359271
H86   H     H_    0.072785 0.360333 0.482870 0.350798
H87   H     H_    0.932702 0.417075 0.512243 0.341022
H88   H     H_    0.438097 0.547852 0.905613 0.331427
H89   H     H_    0.650726 0.893839 0.031147 0.162320
H90   H     H_    0.562585 0.548050 0.093421 0.331224
H91   H     H_    0.938124 0.047853 0.905604 0.331598
H92   H     H_    0.062597 0.048058 0.093417 0.331052
O1    O     O_R   0.769900 0.064540 0.196060 -0.513755
O2    O     O_R   0.433710 0.069580 0.694600 -0.469510
O3    O     O_R   0.066290 0.569580 0.305400 -0.467665
O4    O     O_R   0.933710 0.569580 0.694600 -0.464821
O5    O     O_R   0.680760 0.993330 0.302620 -0.496266
O6    O     O_R   0.319240 0.993330 0.697380 -0.498488
O7    O     O_R   0.180760 0.493330 0.302620 -0.468215
O8    O     O_R   0.819240 0.493330 0.697380 -0.502294
O9    O     O_3   0.668770 0.168760 0.250420 -0.265604
O10   O     O_3   0.331230 0.168760 0.749580 -0.265928
O11   O     O_3   0.168770 0.668760 0.250420 -0.266059
O12   O     O_R   0.230100 0.064540 0.803940 -0.512198
O13   O     O_3   0.831230 0.668760 0.749580 -0.269276
O14   O     O_R   0.750800 0.274080 0.199250 -0.495595
O15   O     O_R   0.249200 0.274080 0.800750 -0.497346
O16   O     O_R   0.250800 0.774080 0.199250 -0.498226
O17   O     O_R   0.749200 0.774080 0.800750 -0.497285
O18   O     O_R   0.669990 0.371670 0.194150 -0.508285
O19   O     O_R   0.330010 0.371670 0.805850 -0.507939
O20   O     O_R   0.169990 0.871670 0.194150 -0.508617
O21   O     O_R   0.830010 0.871670 0.805850 -0.508283
O22   O     O_R   0.574600 0.238480 0.197800 -0.495804
O23   O     O_R   0.269900 0.564540 0.196060 -0.513709
O24   O     O_R   0.425400 0.238480 0.802200 -0.495728
O25   O     O_R   0.074600 0.738480 0.197800 -0.496683
O26   O     O_R   0.925400 0.738480 0.802200 -0.494546
O27   O     O_R   0.566130 0.068680 0.194240 -0.514315
O28   O     O_R   0.433870 0.068680 0.805760 -0.514144
O29   O     O_R   0.066130 0.568680 0.194240 -0.518084
O30   O     O_R   0.933870 0.568680 0.805760 -0.511619
O31   O     O_R   0.680610 0.992490 0.199570 -0.508300
O32   O     O_R   0.319390 0.992490 0.800430 -0.508318
O33   O     O_R   0.180610 0.492490 0.199570 -0.509759
O34   O     O_R   0.730100 0.564540 0.803940 -0.512039
O35   O     O_R   0.819390 0.492490 0.800430 -0.508433
O36   O     O_R   0.770060 0.065440 0.307230 -0.493911
O37   O     O_R   0.229940 0.065440 0.692770 -0.484094
O38   O     O_R   0.270060 0.565440 0.307230 -0.490329
O39   O     O_R   0.729940 0.565440 0.692770 -0.485669
O40   O     O_R   0.750960 0.274920 0.302300 -0.458735
O41   O     O_R   0.249040 0.274920 0.697700 -0.460583
O42   O     O_R   0.250960 0.774920 0.302300 -0.458786
O43   O     O_R   0.749040 0.774920 0.697700 -0.459379
O44   O     O_R   0.670160 0.372580 0.305320 -0.529744
O45   O     O_R   0.574760 0.239320 0.300850 -0.512213
O46   O     O_R   0.329840 0.372580 0.694680 -0.529331
O47   O     O_R   0.170160 0.872580 0.305320 -0.526861
O48   O     O_R   0.829840 0.872580 0.694680 -0.529535
O49   O     O_2   0.519224 0.908522 0.614071 -0.465946
O50   O     O_R   0.546736 0.003001 0.681363 -0.669073
O51   O     O_2   0.480003 0.907768 0.386597 -0.467027
O52   O     O_R   0.453296 0.001677 0.318772 -0.670817
O53   O     O_2   0.109507 0.534018 0.628697 -0.502488
O54   O     O_R   0.059878 0.582343 0.697253 -0.680796
O55   O     O_2   0.092328 0.443744 0.379988 -0.492916
O56   O     O_R   0.425240 0.239320 0.699150 -0.511369
O57   O     O_R   0.995667 0.395067 0.387958 -0.634007
O58   O     O_2   0.539862 0.857703 0.917665 -0.508241
O59   O     O_R   0.456899 0.799960 0.956491 -0.685184
O60   O     O_2   0.458934 0.857746 0.083129 -0.509465
O61   O     O_R   0.542069 0.800337 0.044724 -0.685012
O62   O     O_2   0.040019 0.357710 0.917615 -0.507798
O63   O     O_R   0.957022 0.300008 0.956407 -0.685097
O64   O     O_2   0.959082 0.357743 0.083073 -0.508493
O65   O     O_R   0.042192 0.300299 0.044643 -0.685088
O66   O     O_2   0.621426 0.752704 0.536362 -0.468037
O67   O     O_R   0.074760 0.739320 0.300850 -0.508861
O68   O     O_R   0.610007 0.905675 0.496644 -0.704251
O69   O     O_2   0.375959 0.749075 0.465518 -0.467679
O70   O     O_R   0.389627 0.902866 0.503760 -0.705958
O71   O     O_2   0.126112 0.243441 0.535743 -0.491380
O72   O     O_R   0.107730 0.397556 0.498903 -0.695073
O73   O     O_2   0.894851 0.290996 0.455174 -0.466706
O74   O     O_R   0.893948 0.442439 0.496935 -0.694582
O75   O     O_2   0.531341 0.513994 0.947358 -0.502509
O76   O     O_R   0.436483 0.477969 0.922321 -0.716071
O77   O     O_2   0.469226 0.514038 0.051853 -0.502396
O78   O     O_R   0.925240 0.739320 0.699150 -0.506842
O79   O     O_R   0.564062 0.478149 0.076882 -0.716496
O80   O     O_2   0.031387 0.014018 0.947324 -0.502235
O81   O     O_R   0.936524 0.977964 0.922308 -0.716130
O82   O     O_2   0.969264 0.014020 0.051817 -0.502564
O83   O     O_R   0.064092 0.978163 0.076875 -0.716564
O84   O     O_R   0.566290 0.069580 0.305400 -0.468772

loop_
_geom_bond_atom_site_label_1
_geom_bond_atom_site_label_2
_ccdc_geom_bond_type
C168  C173  A    
C6    C170  A    
C101  C106  A    
C111  C137  A    
H92   O83   S    
C130  H2    S    
C134  O24   A    
Cr2   O2    S    
C26   H40   S    
C9    C14   A    
C181  O1    A    
H82   O63   S    
C82   C106  A    
C96   O68   S    
C51   C55   A    
Cr7   O34   S    
C178  H19   S    
C99   O74   S    
C180  C189  A    
C25   C29   A    
C42   O43   A    
C13   C57   A    
C130  C139  A    
C142  C146  A    
C8    C12   A    
C39   C64   S    
H84   O68   S    
C31   H46   S    
C4    C88   S    
C21   C56   S    
C57   C101  A    
C77   C82   A    
C7    C89   S    
C35   C107  A    
C25   C60   S    
Cr7   O13   S    
C37   C45   A    
C11   C16   A    
C41   O47   A    
C32   H47   S    
C112  C117  A    
Cr3   O11   S    
H81   O61   S    
C42   C61   S    
C34   H27   S    
C184  O23   A    
C65   C168  S    
C10   C72   S    
C104  C109  S    
C150  H65   S    
C15   C19   A    
Cr10  O67   S    
C148  C166  A    
C177  C186  A    
C74   C78   A    
C24   H51   S    
C146  C164  A    
C69   O4    A    
C133  C149  S    
C13   H52   S    
C174  C178  A    
C70   O5    A    
Cr5   O37   S    
C42   O48   A    
C37   C59   A    
C95   O65   S    
C38   C60   A    
C36   C44   A    
Cr12  O84   S    
C175  H11   S    
C10   C15   A    
Cr2   O10   S    
C173  H9    S    
Br2   C49   S    
C45   H33   S    
C81   C86   A    
C5    C191  A    
C74   C149  A    
Cr12  O5    S    
C19   H38   S    
C70   O36   A    
C39   O40   A    
Cr1   O14   S    
Br3   C50   S    
C66   O56   A    
C123  H70   S    
C183  O12   A    
Cr4   O13   S    
C145  H61   S    
C75   C138  A    
C121  C125  A    
Cr3   O33   S    
Cr10  O20   S    
C77   H23   S    
C136  O26   A    
C71   O37   A    
H75   O50   S    
C88   O51   D    
C48   C61   A    
C176  C180  A    
C186  C187  S    
C87   O49   D    
C155  H71   S    
C107  C108  A    
C156  H72   S    
C146  H62   S    
Cr9   O10   S    
C38   H30   S    
Cr1   O40   S    
C7    C172  A    
C185  O35   A    
C2    H49   S    
H79   O57   S    
C180  H21   S    
C9    C31   A    
C10   C32   A    
C75   C80   A    
C114  C185  S    
C116  C165  S    
C73   O8    A    
C40   O46   A    
C27   H41   S    
C119  H57   S    
Cr6   O23   S    
C11   C33   A    
C143  C161  A    
C132  H4    S    
C9    C71   S    
C76   H34   S    
C134  O28   A    
C5    C169  A    
C136  O30   A    
Cr11  O26   S    
C102  C107  S    
C112  C183  S    
C93   O60   D    
C98   O72   S    
C26   C30   A    
C151  C155  A    
C152  C156  A    
C113  C140  A    
C69   O78   A    
C92   O59   S    
C100  C108  S    
C71   O6    A    
C46   C90   A    
H85   O70   S    
Cr12  O27   S    
C89   O54   S    
C100  O76   S    
Cr9   O19   S    
C143  C147  A    
C113  C118  A    
C117  C121  A    
C95   O64   D    
C6    C192  A    
C117  H54   S    
C141  H8    S    
C97   O69   D    
C119  C123  A    
Cr8   O45   S    
C128  C132  A    
C33   H48   S    
C2    C46   A    
C34   C56   A    
Cr9   O24   S    
C111  C115  A    
C17   H36   S    
Cr11  O78   S    
C91   O55   D    
Cr9   O46   S    
Cr4   O8    S    
C86   C95   S    
Cr4   O30   S    
Cr10  O11   S    
C135  O29   A    
C17   C21   A    
C192  H17   S    
C14   C18   A    
C114  C141  A    
C47   H35   S    
C144  C148  A    
C76   C171  A    
C113  C184  S    
C67   O67   A    
C102  O79   S    
C13   C171  A    
C28   C32   A    
Cr10  O25   S    
C136  C160  S    
H87   O74   S    
C53   C97   S    
Cr11  O21   S    
C67   C170  S    
C85   C94   S    
C55   C99   S    
C84   C93   S    
Cr5   O41   S    
C99   O73   D    
C169  C174  A    
C78   C84   A    
Cr7   O43   S    
C77   C160  A    
C150  C167  A    
Cr6   O16   S    
C187  C191  A    
Cr8   O18   S    
C94   O63   S    
C4    C168  A    
C172  C176  A    
Cr2   O6    S    
C40   C63   S    
C44   C62   A    
C190  H15   S    
C131  H3    S    
C83   C84   A    
C135  O25   A    
C8    C70   S    
C144  C162  A    
C126  C131  A    
C145  C163  A    
C128  C163  S    
C179  C188  A    
C181  O31   A    
C51   C64   A    
C37   H29   S    
C12   C17   A    
C105  O19   A    
C188  C192  A    
C67   O3    A    
C111  C181  S    
C157  H73   S    
C118  H55   S    
C149  C182  A    
C122  C126  A    
C68   C110  A    
Cr3   O29   S    
C20   C25   A    
C74   H12   S    
C35   C182  A    
C183  O32   A    
C4    C190  A    
C54   C98   S    
C2    C138  A    
Cr11  O13   S    
H83   O65   S    
C120  C124  A    
Cr5   O10   S    
C66   O2    A    
C5    C87   S    
C24   C68   A    
C102  O77   D    
C44   H32   S    
C1    O18   A    
C104  O83   S    
C122  H69   S    
C134  C138  S    
C49   C53   A    
C79   C90   A    
C29   C33   A    
C52   C56   A    
C145  C150  A    
C103  C110  S    
C76   C81   A    
C92   O58   D    
C153  C166  A    
C18   H37   S    
C126  C162  S    
C151  C164  A    
C176  H13   S    
C80   C90   A    
C156  C161  A    
Cr8   O22   S    
Cr6   O38   S    
C127  O17   A    
Br4   C51   S    
C27   C31   A    
C184  O33   A    
C178  C187  A    
C8    C30   A    
Cr8   O9    S    
C153  C157  A    
C88   O52   S    
C109  C110  A    
C21   C26   A    
C75   H1    S    
C23   C28   A    
C174  H10   S    
C65   O84   A    
C82   C85   A    
C147  C165  A    
C179  H20   S    
C153  H67   S    
C191  H14   S    
C177  H18   S    
C43   H31   S    
C129  C137  A    
C125  C161  S    
C185  O34   A    
H76   O52   S    
C93   O61   S    
C144  H60   S    
C69   C172  S    
C35   C79   A    
C3    H16   S    
Cr11  O48   S    
Cr1   O1    S    
C103  O80   D    
C65   O45   A    
C12   H22   S    
Cr3   O3    S    
C114  C119  A    
Cr4   O4    S    
Cr2   O32   S    
Br1   C48   S    
C125  C130  A    
Cr12  O31   S    
C78   C79   A    
C18   C22   A    
C72   O38   A    
Cr5   O12   S    
C129  H89   S    
Cr6   O11   S    
C85   C86   A    
C133  O27   A    
C121  H68   S    
C89   O53   D    
Cr10  O47   S    
C135  C171  S    
C80   C83   A    
C36   H28   S    
H91   O81   S    
C36   C58   A    
C53   C58   A    
C11   C73   S    
C115  C120  A    
C3    C7    A    
Cr7   O39   S    
C55   C60   A    
H77   O54   S    
C6    C91   S    
Cr7   O17   S    
C148  H64   S    
C116  O16   A    
C173  C177  A    
C154  C167  A    
C40   O41   A    
C28   H42   S    
C152  C165  A    
H86   O72   S    
C29   H43   S    
Cr3   O7    S    
C142  H58   S    
C123  C128  A    
Cr1   O36   S    
Cr2   O28   S    
Cr5   O15   S    
C120  H66   S    
C16   C20   A    
C19   C23   A    
C3    C189  A    
C157  C162  A    
C94   O62   D    
C38   C47   A    
C72   O7    A    
C41   O42   A    
C22   C27   A    
C152  H56   S    
C105  O15   A    
C87   O50   S    
C81   C101  A    
C15   H25   S    
H90   O79   S    
Cr4   O35   S    
C175  C179  A    
C158  H74   S    
C68   C106  A    
Cr9   O56   S    
C143  H59   S    
C137  H5    S    
C186  C190  A    
C133  O22   A    
C50   C63   A    
C104  O82   D    
C124  C159  S    
C91   O57   S    
Cr1   O9    S    
C118  C122  A    
C96   O66   D    
C112  C139  A    
Cr8   O44   S    
C83   C92   S    
C46   C108  A    
C1    C167  S    
H80   O59   S    
Cr12  O9    S    
C49   C62   A    
C34   C43   A    
C127  O21   A    
C23   C59   S    
C1    O14   A    
C139  H6    S    
C39   O44   A    
C131  C140  A    
H88   O76   S    
C127  C164  S    
C16   H26   S    
C57   C109  A    
C155  C159  A    
C52   C96   S    
C105  C166  S    
C24   C160  A    
C50   C54   A    
C54   C59   A    
C154  H78   S    
C98   O71   D    
C45   C63   A    
C132  C141  A    
C20   H39   S    
C140  H7    S    
C142  C159  A    
C100  O75   D    
C188  C189  S    
C22   C58   S    
C14   H24   S    
C124  C129  A    
Cr6   O42   S    
C97   O70   S    
C151  H45   S    
C147  H63   S    
C115  H53   S    
C182  H50   S    
C47   C64   A    
C116  O20   A    
C66   C169  S    
C154  C158  A    
C158  C163  A    
C103  O81   S    
C41   C62   S    
C73   O39   A    
C30   H44   S    
C170  C175  A    
C43   C61   A    
C48   C52   A    
