data_mof_unit_53595.cif
_audit_creation_date              2013-03-05T15:52:55-0500
_audit_creation_method            fapswitch 2.2
_symmetry_space_group_name_H-M    P1
_symmetry_Int_Tables_number       1
_space_group_crystal_system       triclinic
_cell_length_a                    15.02453
_cell_length_b                    10.510108
_cell_length_c                    10.060184
_cell_angle_alpha                 85.200077
_cell_angle_beta                  90.963603
_cell_angle_gamma                 92.575277
_cell_volume                      1581.29186972

loop_
_atom_site_label
_atom_site_type_symbol
_atom_site_description
_atom_site_fract_x
_atom_site_fract_y
_atom_site_fract_z
_atom_type_partial_charge
O1    O     O_R   0.500000 0.316780 0.614690 -0.684940
O2    O     O_R   0.499990 0.316750 0.385360 -0.597269
C1    C     C_R   0.513639 0.261747 0.505799 0.936295
O3    O     O_R   0.367850 0.499980 0.614680 -0.654664
O4    O     O_R   0.367840 0.499960 0.385350 -0.600428
C2    C     C_R   0.327373 0.500130 0.497618 0.882195
Zn1   Zn    Zn3+2 0.500010 0.500020 0.653130 0.972081
Zn2   Zn    Zn3+2 0.499990 0.499980 0.346870 1.061976
O5    O     O_R   0.500010 0.683250 0.614640 -0.581549
O6    O     O_R   0.500000 0.683220 0.385310 -0.544539
O7    O     O_R   0.632160 0.500040 0.614650 -0.637938
O8    O     O_R   0.632150 0.500020 0.385320 -0.582825
C3    C     C_R   0.493206 0.740816 0.495272 0.899345
C4    C     C_R   0.672375 0.501712 0.500984 0.908833
C5    C     C_R   0.814750 0.604458 0.424803 -0.068484
C6    C     C_R   0.768114 0.506636 0.502957 -0.195083
C7    C     C_R   0.812745 0.409941 0.578041 -0.041660
C8    C     C_R   0.902936 0.395676 0.551513 0.051095
C9    C     C_R   0.952417 0.502243 0.490142 0.037101
C10   C     C_R   0.908451 0.611608 0.433922 0.057469
C11   C     C_R   0.944921 0.278502 0.581983 -0.017621
C12   C     C_R   0.037054 0.276556 0.574996 -0.242463
C13   C     C_R   0.088747 0.386589 0.532232 0.041684
C14   C     C_R   0.045818 0.498977 0.484677 0.080500
C15   C     C_R   0.095674 0.606168 0.426660 0.074556
C16   C     C_R   0.051253 0.713679 0.373175 -0.209859
C17   C     C_R   0.960028 0.721179 0.384130 -0.022039
C18   C     C_R   0.182032 0.384401 0.528559 -0.085473
C19   C     C_R   0.231181 0.497646 0.487415 -0.149896
C20   C     C_R   0.189033 0.604947 0.425561 -0.103700
H1    H     H_    0.067112 0.185956 0.599150 0.172440
H2    H     H_    0.087241 0.796850 0.327585 0.188678
C21   C     C_R   0.519427 0.082645 0.761731 -0.118128
H3    H     H_    0.561436 0.164862 0.783632 0.152119
C22   C     C_R   0.482467 0.005206 0.867567 -0.104744
H4    H     H_    0.497403 0.030683 0.967246 0.153112
C23   C     C_R   0.421849 0.904057 0.843166 -0.087848
C24   C     C_R   0.408481 0.870232 0.711420 -0.056427
C25   C     C_R   0.463659 0.932193 0.609124 0.055585
C26   C     C_R   0.506045 0.049758 0.630376 0.086197
C27   C     C_R   0.536954 0.127935 0.519142 -0.149237
C28   C     C_R   0.558276 0.072935 0.402153 -0.100170
C29   C     C_R   0.520725 0.952859 0.381951 -0.031696
C30   C     C_R   0.482020 0.878011 0.488958 -0.226405
H5    H     H_    0.626055 0.590703 0.121185 0.171706
C31   C     C_R   0.354653 0.390118 0.144893 -0.178621
H6    H     H_    0.361467 0.350331 0.245746 0.218684
C32   C     C_R   0.271909 0.377532 0.081096 -0.012456
C33   C     C_R   0.268779 0.392258 0.942196 -0.044788
H7    H     H_    0.207282 0.366208 0.891122 0.179095
C34   C     C_R   0.349022 0.394238 0.873202 0.012957
C35   C     C_R   0.426982 0.447916 0.931913 0.094894
C36   C     C_R   0.428233 0.446812 0.075121 0.193711
N1    N     N_R   0.499150 0.498800 0.142780 -0.107288
C37   C     C_R   0.569668 0.549017 0.069482 -0.030602
C38   C     C_R   0.570066 0.550132 0.927450 -0.017617
N2    N     N_R   0.499120 0.498720 0.857170 -0.167119
C39   C     C_2   0.765928 0.692172 0.327822 0.968175
O9    O     O_2   0.703882 0.751488 0.364607 -0.601391
O10   O     O_R   0.792267 0.707480 0.194579 -0.777767
H8    H     H_    0.754749 0.769885 0.138375 0.354872
C40   C     C_2   0.374765 0.832265 0.955416 1.041957
O11   O     O_2   0.408804 0.740052 0.013672 -0.526728
O12   O     O_R   0.289382 0.863644 0.990870 -0.703943
H9    H     H_    0.266353 0.939000 0.933046 0.346142
C41   C     C_2   0.336318 0.775652 0.676929 0.499416
H10   H     H_    0.330573 0.748545 0.576788 0.048827
O13   O     O_2   0.282284 0.727723 0.757637 -0.542884
C42   C     C_2   0.483504 0.938132 0.249267 0.895002
O14   O     O_2   0.519744 0.873812 0.172194 -0.598037
O15   O     O_R   0.408998 0.008519 0.211849 -0.806098
H11   H     H_    0.390935 0.007290 0.115427 0.350731
C43   C     C_2   0.191529 0.337209 0.159096 0.478771
H12   H     H_    0.196600 0.318174 0.266180 0.103159
O16   O     O_2   0.118636 0.325315 0.104910 -0.527670
C44   C     C_2   0.355456 0.277333 0.804877 0.333103
H13   H     H_    0.366086 0.280240 0.700753 0.170780
O17   O     O_2   0.339730 0.173467 0.865418 -0.627048
C45   C     C_2   0.766033 0.328269 0.686076 0.508081
H14   H     H_    0.698145 0.291955 0.671930 0.053559
O18   O     O_2   0.803436 0.302094 0.792942 -0.513898
C46   C     C_2   0.648919 0.610205 0.859053 0.967897
O19   O     O_2   0.722561 0.569796 0.886896 -0.576897
O20   O     O_R   0.640482 0.717575 0.769023 -0.751575
H15   H     H_    0.699624 0.750738 0.729746 0.354780
C47   C     C_2   0.894636 0.153368 0.604435 0.986451
O21   O     O_2   0.923542 0.069041 0.682435 -0.562272
O22   O     O_R   0.815199 0.131047 0.533825 -0.772266
H16   H     H_    0.784305 0.045902 0.563382 0.378594
C48   C     C_2   0.227461 0.261736 0.556166 0.310893
H17   H     H_    0.209152 0.196450 0.641456 0.115921
O23   O     O_2   0.285295 0.231601 0.482406 -0.593045
C49   C     C_2   0.242036 0.714235 0.357037 0.860710
O24   O     O_2   0.287820 0.697077 0.261440 -0.518151
O25   O     O_R   0.236561 0.837281 0.398895 -0.816841
H18   H     H_    0.273961 0.903514 0.343170 0.389837
C50   C     C_2   0.925304 0.850802 0.357633 0.472710
H19   H     H_    0.952767 0.915606 0.277458 0.097353
O26   O     O_2   0.870456 0.889412 0.430868 -0.540754
C51   C     C_2   0.616064 0.141561 0.297687 0.513214
H20   H     H_    0.618265 0.108355 0.198578 0.062384
O27   O     O_2   0.665007 0.232457 0.323226 -0.534787

loop_
_geom_bond_atom_site_label_1
_geom_bond_atom_site_label_2
_geom_bond_distance
_ccdc_geom_bond_type
C41   O13   1.220271 D    
C37   C38   1.428045 A    
C16   H2    1.079633 S    
C49   O24   1.221909 D    
C8    C11   1.417262 A    
C43   H12   1.081158 S    
O25   H18   1.012298 S    
C50   H19   1.085697 S    
C36   N1    1.372101 A    
Zn1   O7    2.029245 S    
C16   C17   1.383176 A    
C40   O11   1.218083 D    
C18   C19   1.407869 A    
C22   C23   1.403224 A    
C23   C24   1.409563 A    
C44   O17   1.220178 D    
C20   C49   1.494148 S    
C24   C25   1.427753 A    
O7    C4    1.300733 A    
C47   O22   1.399389 S    
C39   O10   1.398332 S    
C5    C6    1.408791 A    
C7    C45   1.491983 S    
C38   N2    1.383802 A    
C8    C9    1.418885 A    
C27   C28   1.401825 A    
C42   O15   1.398471 S    
O5    C3    1.303232 A    
C40   O12   1.398122 S    
N1    C37   1.362258 A    
C1    C27   1.459357 S    
C24   C41   1.494073 S    
C6    C7    1.403126 A    
C33   C34   1.399698 A    
C13   C14   1.415505 A    
C41   H10   1.070721 S    
C49   O25   1.399430 S    
C11   C12   1.388376 A    
C43   O16   1.221155 D    
O3    Zn1   2.016559 S    
C50   O26   1.219450 D    
C7    C8    1.402504 A    
C44   H13   1.059972 S    
C5    C10   1.408300 A    
C31   C32   1.395546 A    
C21   C26   1.402634 A    
C12   H1    1.079795 S    
C34   C35   1.418524 A    
C14   C15   1.414137 A    
O3    C2    1.316218 A    
C35   N2    1.390485 A    
Zn2   N1    2.054081 S    
C25   C26   1.395324 A    
C45   O18   1.221222 D    
C47   O21   1.223364 D    
C39   O9    1.223538 D    
O10   H8    1.013946 S    
O1    C1    1.304157 A    
C22   H4    1.076851 S    
C29   C30   1.397902 A    
C19   C20   1.411923 A    
C28   C51   1.492012 S    
C48   O23   1.221363 D    
Zn2   O8    2.016561 S    
C51   O27   1.221068 D    
C21   H3    1.082487 S    
C31   H6    1.069633 S    
C13   C18   1.403948 A    
O20   H15   1.013962 S    
C32   C33   1.393208 A    
O8    C4    1.303222 A    
C33   H7    1.085130 S    
C46   O20   1.395619 S    
C5    C39   1.491975 S    
C4    C6    1.436894 S    
C28   C29   1.388297 A    
C35   C36   1.439586 A    
C15   C20   1.403538 A    
Zn1   O5    1.932283 S    
C11   C47   1.489367 S    
C26   C27   1.404398 A    
O1    Zn1   1.995782 S    
C32   C43   1.477851 S    
O2    Zn2   1.932283 S    
O6    C3    1.312268 A    
O4    Zn2   2.029245 S    
C38   C46   1.470767 S    
C25   C30   1.415042 A    
C10   C17   1.419139 A    
O12   H9    1.012982 S    
C9    C10   1.422790 A    
O2    C1    1.315055 A    
C15   C16   1.402031 A    
O15   H11   1.003837 S    
C48   H17   1.084048 S    
O4    C2    1.291828 A    
C31   C36   1.402418 A    
C51   H20   1.085073 S    
C21   C22   1.392372 A    
C9    C14   1.407370 A    
C42   O14   1.220507 D    
C17   C50   1.482454 S    
C45   H14   1.084215 S    
C2    C19   1.446370 S    
O22   H16   1.013638 S    
H5    C37   1.081754 S    
Zn2   O6    1.995782 S    
C46   O19   1.222681 D    
C34   C44   1.464831 S    
C23   C40   1.476920 S    
C12   C13   1.404613 A    
C18   C48   1.489257 S    
C29   C42   1.456072 S    
Zn1   N2    2.051846 S    
C3    C30   1.455170 S    
