data_mof_unit_17225.cif
_audit_creation_date              2012-12-11T15:49:33-0500
_audit_creation_method            fapswitch 2.2
_symmetry_space_group_name_H-M    P1
_symmetry_Int_Tables_number       1
_space_group_crystal_system       triclinic
_cell_length_a                    8.225766
_cell_length_b                    19.032158
_cell_length_c                    27.043539
_cell_angle_alpha                 95.473065
_cell_angle_beta                  92.525006
_cell_angle_gamma                 85.355828
_cell_volume                      4197.82053466

loop_
_atom_site_label
_atom_site_type_symbol
_atom_type_description
_atom_site_fract_x
_atom_site_fract_y
_atom_site_fract_z
_atom_type_partial_charge
Ba1   Ba    Ba6+2 0.854000 0.466860 0.523710 1.632866
Ba2   Ba    Ba6+2 0.335820 0.533080 0.476290 1.631724
C1    C     C_3   0.591517 0.215393 0.650532 -0.254490
C2    C     C_3   0.617542 0.288083 0.633496 0.361309
C3    C     C_3   0.505963 0.640477 0.626611 0.300453
C4    C     C_3   0.477478 0.667592 0.680542 -0.375909
C5    C     C_3   0.064363 0.684923 0.339071 0.342078
C6    C     C_3   0.079595 0.705387 0.286581 -0.320275
C7    C     C_3   0.524874 0.722792 0.361590 0.366222
C8    C     C_3   0.484856 0.794784 0.342116 -0.372461
C9    C     C_R   0.016737 0.448463 0.179435 0.597167
C10   C     C_R   0.915033 0.569734 0.177315 0.572792
C11   C     C_2   0.761647 0.546391 0.271931 -0.084670
C12   C     C_3   0.141111 0.309876 0.660200 0.298144
C13   C     C_3   0.743809 0.570514 0.326260 -0.046788
C14   C     C_1   0.983341 0.490194 0.343284 0.036062
C15   C     C_2   0.024415 0.486340 0.295651 -0.107518
C16   C     C_2   0.905669 0.513951 0.256332 0.193125
C17   C     C_R   0.023491 0.505262 0.101860 -0.079611
C18   C     C_R   0.057171 0.445396 0.128609 -0.035704
C19   C     C_R   0.129405 0.383426 0.103834 -0.061523
C20   C     C_R   0.951591 0.567620 0.126596 -0.024182
C21   C     C_2   0.850960 0.527194 0.360259 -0.292094
C22   C     C_2   0.349226 0.480034 0.641544 -0.282289
C23   C     C_3   0.099436 0.294491 0.712065 -0.350907
C24   C     C_R   0.179504 0.438577 0.974964 0.019825
C25   C     C_R   0.056571 0.560777 0.972212 0.020421
C26   C     C_R   0.137076 0.498713 0.948182 0.049657
C27   C     C_R   0.263520 0.378966 0.949452 -0.100613
C28   C     C_R   0.302171 0.378121 0.899672 -0.062564
C29   C     C_R   0.259021 0.436540 0.872663 -0.029863
C30   C     C_R   0.175857 0.496889 0.896803 -0.078137
C31   C     C_R   0.132146 0.555598 0.869617 -0.033626
C32   C     C_R   0.172702 0.553516 0.819093 0.589405
C33   C     C_R   0.298037 0.435784 0.822031 0.577856
C34   C     C_3   0.199053 0.316367 0.414884 0.322703
C35   C     C_2   0.453350 0.477738 0.729500 -0.081910
C36   C     C_3   0.497786 0.484074 0.676302 -0.053052
C37   C     C_1   0.209960 0.512019 0.656737 0.038028
C38   C     C_2   0.169622 0.512511 0.703985 -0.103628
C39   C     C_2   0.296806 0.493249 0.743454 0.203015
C40   C     C_R   0.137699 0.440075 0.026030 0.019827
C41   C     C_R   0.061513 0.502914 0.050376 0.049545
C42   C     C_R   0.022963 0.563577 0.023853 0.020348
C43   C     C_R   0.168933 0.380732 0.053949 -0.099564
C44   C     C_R   0.918192 0.627386 0.100308 -0.061205
C45   C     C_3   0.261602 0.241293 0.395068 -0.234506
C46   C     C_R   0.011706 0.618125 0.943373 -0.100778
C47   C     C_R   0.048991 0.615535 0.893489 -0.062807
C48   C     C_R   0.952862 0.625563 0.050333 -0.102764
C49   C     C_R   0.394344 0.298664 0.521039 -0.286949
C50   C     C_R   0.537313 0.276792 0.496458 0.068079
C51   C     C_R   0.592170 0.205081 0.491767 -0.130509
C52   C     C_R   0.498946 0.154463 0.509114 -0.017007
C53   C     C_R   0.349583 0.176812 0.531604 -0.152989
C54   C     C_R   0.298813 0.249189 0.537994 0.013347
C55   C     C_R   0.711578 0.053678 0.516828 -0.094797
C56   C     C_3   0.008145 0.681742 0.580061 0.316439
C57   C     C_R   0.762164 0.981475 0.510037 -0.096093
C58   C     C_R   0.656724 0.933071 0.486594 0.060963
C59   C     C_R   0.503923 0.958642 0.467531 -0.087168
C60   C     C_R   0.451635 0.030434 0.475535 -0.082881
C61   C     C_R   0.554105 0.078405 0.500885 0.059051
C62   C     C_R   0.843929 0.827701 0.459951 -0.148014
C63   C     C_R   0.889239 0.754991 0.457075 0.017483
C64   C     C_R   0.654805 0.735995 0.503770 0.035410
C65   C     C_R   0.609975 0.809897 0.509211 -0.021765
C66   C     C_R   0.701971 0.855636 0.484546 -0.010915
C67   C     C_3   0.002047 0.761682 0.591834 -0.398216
C68   C     C_R   0.789237 0.709592 0.476224 -0.291383
C69   C     C_3   0.673478 0.380729 0.376055 0.295041
C70   C     C_3   0.676827 0.362345 0.320130 -0.369148
H1    H     H_    0.711078 0.282233 0.604593 0.081508
H2    H     H_    0.349033 0.245618 0.365493 0.121351
H3    H     H_    0.330236 0.214456 0.424902 0.051456
H4    H     H_    0.884548 0.665896 0.569537 0.002894
H5    H     H_    0.089760 0.666787 0.548606 0.072708
H6    H     H_    0.918914 0.778317 0.622772 0.123979
H7    H     H_    0.957384 0.788859 0.558878 0.061078
H8    H     H_    0.126147 0.777919 0.602853 0.113732
H9    H     H_    0.795529 0.395234 0.389965 0.015303
H10   H     H_    0.582479 0.426317 0.383768 0.081626
H11   H     H_    0.772535 0.318934 0.311225 0.127008
H12   H     H_    0.703657 0.409217 0.301463 0.073571
H13   H     H_    0.556295 0.345232 0.305783 0.129812
H14   H     H_    0.500683 0.309086 0.616564 -0.070618
H15   H     H_    0.501590 0.189777 0.624372 0.070765
H16   H     H_    0.387950 0.625087 0.609224 0.032592
H17   H     H_    0.596046 0.593676 0.625322 0.039016
H18   H     H_    0.393440 0.716422 0.682195 0.136185
H19   H     H_    0.421606 0.627389 0.699964 0.078153
H20   H     H_    0.595209 0.679709 0.699895 0.124178
H21   H     H_    0.538428 0.221845 0.687960 0.135923
H22   H     H_    0.147339 0.335064 0.739811 0.127621
H23   H     H_    0.140111 0.634526 0.342946 0.090238
H24   H     H_    0.934478 0.677270 0.344578 -0.053319
H25   H     H_    0.197884 0.727990 0.282571 0.146944
H26   H     H_    0.074448 0.657603 0.260003 0.123106
H27   H     H_    0.978964 0.745129 0.277523 0.115928
H28   H     H_    0.659901 0.712442 0.362171 -0.066658
H29   H     H_    0.481842 0.725291 0.400147 0.076468
H30   H     H_    0.549918 0.835473 0.365643 0.066992
H31   H     H_    0.351839 0.809717 0.343190 0.148858
H32   H     H_    0.089208 0.364174 0.654454 0.087832
H33   H     H_    0.524366 0.793454 0.303273 0.121206
H34   H     H_    0.145163 0.464396 0.285138 0.132916
H35   H     H_    0.156213 0.336206 0.123074 0.120063
H36   H     H_    0.549862 0.466896 0.757049 0.104093
H37   H     H_    0.366918 0.330952 0.882314 0.119544
H38   H     H_    0.303627 0.331856 0.967019 0.067821
H39   H     H_    0.222524 0.330541 0.038252 0.067910
H40   H     H_    0.668551 0.564888 0.245494 0.118963
H41   H     H_    0.864397 0.676517 0.118404 0.121351
H42   H     H_    0.945307 0.666121 0.957925 0.068264
H43   H     H_    0.275410 0.307294 0.658254 -0.017992
H44   H     H_    0.011855 0.661280 0.873541 0.121120
H45   H     H_    0.044774 0.527113 0.714398 0.129099
H46   H     H_    0.924844 0.674571 0.033852 0.067963
H47   H     H_    0.836087 0.539323 0.399906 0.083397
H48   H     H_    0.355453 0.449914 0.605398 0.072309
H49   H     H_    0.881283 0.963033 0.524515 0.062359
H50   H     H_    0.793817 0.090041 0.535560 0.076622
H51   H     H_    0.702510 0.188389 0.472248 0.082515
H52   H     H_    0.422797 0.922458 0.447937 0.069883
H53   H     H_    0.965097 0.296272 0.715179 0.149401
H54   H     H_    0.331573 0.048622 0.461685 0.061096
H55   H     H_    0.920439 0.862612 0.443873 0.078313
H56   H     H_    0.274288 0.138439 0.544227 0.071139
H57   H     H_    0.824828 0.653385 0.473540 0.060652
H58   H     H_    0.352769 0.354239 0.524517 0.072639
H59   H     H_    0.154483 0.241378 0.720122 0.113349
H60   H     H_    0.305359 0.344567 0.429985 -0.002885
H61   H     H_    0.112940 0.314507 0.445065 0.038443
N1    N     N_R   0.946555 0.510407 0.203648 -0.421195
N2    N     N_R   0.254357 0.493886 0.795549 -0.423794
O1    O     O_2   0.913240 0.537010 0.617740 -0.463046
O2    O     O_3   0.631974 0.321514 0.398245 -0.644682
O3    O     O_3   0.076000 0.259259 0.625283 -0.605544
O4    O     O_2   0.276450 0.462960 0.382230 -0.461932
O5    O     O_3   0.044470 0.462980 0.442430 -0.488138
O6    O     O_3   0.519740 0.589470 0.411120 -0.475060
O7    O     O_3   0.121504 0.350365 0.375701 -0.636481
O8    O     O_3   0.632420 0.583650 0.524140 -0.469398
O9    O     O_3   0.111040 0.625070 0.435230 -0.489700
O10   O     O_2   0.227293 0.750060 0.464953 -0.494723
O11   O     O_3   0.119129 0.738837 0.373197 -0.601631
O12   O     O_3   0.145240 0.536960 0.557560 -0.489055
O13   O     O_3   0.557280 0.416300 0.475860 -0.485848
O14   O     O_2   0.376710 0.670070 0.522470 -0.465655
O15   O     O_3   0.566795 0.694548 0.602872 -0.648975
O16   O     O_2   0.414016 0.533529 0.322182 -0.498750
O17   O     O_3   0.446794 0.670532 0.330950 -0.593025
O18   O     O_2   0.041978 0.395549 0.201748 -0.599711
O19   O     O_2   0.370338 0.383102 0.801518 -0.605975
O20   O     O_2   0.855768 0.625128 0.198081 -0.621163
O21   O     O_2   0.137622 0.605474 0.796339 -0.600363
O22   O     O_3   0.669960 0.410470 0.588880 -0.481666
O23   O     O_2   0.835403 0.443720 0.672764 -0.498781
O24   O     O_3   0.065326 0.649894 0.622629 -0.628078
O25   O     O_3   0.664824 0.334769 0.674072 -0.598235
O26   O     O_2   0.812980 0.329910 0.477500 -0.462579
O27   O     O_3   0.078660 0.374870 0.564770 -0.485011
O28   O     O_2   0.961139 0.250640 0.534188 -0.500608
P1    P     P_3+3 0.082480 0.557670 0.610090 0.997690
P2    P     P_3+3 0.635220 0.340300 0.462910 0.977091
P3    P     P_3+3 0.103861 0.282547 0.565289 0.930547
P4    P     P_3+3 0.107220 0.442270 0.389900 0.994627
P5    P     P_3+3 0.086716 0.717370 0.433198 0.939505
P6    P     P_3+3 0.667140 0.419571 0.653722 0.971955
P7    P     P_3+3 0.561473 0.672101 0.538620 0.937346
P8    P     P_3+3 0.529914 0.587873 0.346805 0.946035
C71   C     C_3   0.126214 0.195063 0.373243 -0.190928
C72   C     C_3   0.027800 0.168529 0.413654 -0.204944
C73   C     C_3   0.908557 0.115777 0.391171 -0.434900
H62   H     H_    0.816647 0.142071 0.366256 0.142467
H63   H     H_    0.974834 0.070428 0.369757 0.136575
H64   H     H_    0.844353 0.094875 0.421224 0.129902
H65   H     H_    0.111506 0.142241 0.440837 0.117658
H66   H     H_    0.957841 0.213850 0.433690 0.159321
H67   H     H_    0.043127 0.224474 0.347486 0.150189
H68   H     H_    0.185505 0.148488 0.351087 0.108841
C74   C     C_3   0.750183 0.167099 0.651238 -0.183423
C75   C     C_3   0.716126 0.091224 0.659829 -0.220844
C76   C     C_3   0.872308 0.042118 0.657906 -0.419316
H69   H     H_    0.927118 0.040556 0.620961 0.130665
H70   H     H_    0.961978 0.060538 0.687249 0.139590
H71   H     H_    0.843651 0.987673 0.664094 0.125425
H72   H     H_    0.661776 0.090863 0.696710 0.128227
H73   H     H_    0.627968 0.070587 0.630696 0.129396
H74   H     H_    0.809910 0.166155 0.615062 0.135739
H75   H     H_    0.834580 0.188276 0.681192 0.147983
C77   C     C_3   0.476456 0.840327 0.544359 -0.166098
C78   C     C_3   0.549784 0.873939 0.593323 -0.220821
C79   C     C_3   0.416596 0.904715 0.628448 -0.425468
H76   H     H_    0.336575 0.945938 0.610875 0.130638
H77   H     H_    0.341786 0.862281 0.638090 0.137492
H78   H     H_    0.473441 0.929338 0.663176 0.129576
H79   H     H_    0.628636 0.833333 0.611864 0.143475
H80   H     H_    0.626272 0.917036 0.586179 0.125690
H81   H     H_    0.391995 0.879500 0.526672 0.101490
H82   H     H_    0.396554 0.799578 0.553135 0.135514

loop_
_geom_bond_atom_site_label_1
_geom_bond_atom_site_label_2
_ccdc_geom_bond_type
C25   C46   A    
C57   H49   S    
C79   H77   S    
C53   C54   A    
C7    O17   S    
O14   P7    D    
O13   P2    S    
Ba2   O9    S    
C17   C18   A    
C33   O19   D    
C41   C42   A    
C34   H61   S    
O2    P2    S    
C45   C71   S    
C56   H4    S    
C5    C6    S    
C69   O2    S    
C2    O25   S    
C72   C73   S    
C71   C72   S    
C5    H24   S    
C63   P5    S    
C35   C36   S    
C11   C16   D    
O9    P5    S    
C59   H52   S    
C3    C4    S    
Ba2   O4    S    
C62   C66   A    
C8    H31   S    
C6    H27   S    
C49   C54   A    
C11   H40   S    
C56   O24   S    
C34   H60   S    
C21   H47   S    
C28   C29   A    
C55   C57   A    
C79   H78   S    
C2    H14   S    
C52   C61   S    
C72   H66   S    
C14   P4    S    
C31   C47   A    
C78   H79   S    
C10   C20   A    
O6    P8    S    
C22   C37   D    
O16   P8    D    
C76   H69   S    
C34   C45   S    
Ba1   Ba2   S    
C34   O7    S    
C73   H62   S    
C6    H26   S    
C56   H5    S    
O22   P6    S    
C55   H50   S    
O27   P3    S    
C3    H16   S    
C25   C42   A    
C12   O3    S    
Ba1   P1    S    
C76   H70   S    
C14   C15   D    
C22   C36   S    
C77   H82   S    
C55   C61   A    
C32   N2    Am   
Ba1   O1    S    
C7    C8    S    
C5    O11   S    
C71   H67   S    
Ba2   O14   S    
C13   C21   S    
C79   H76   S    
O7    P4    S    
C67   H8    S    
Ba1   O26   S    
C57   C58   A    
C10   N1    Am   
Ba2   O8    S    
C67   H6    S    
C71   H68   S    
C49   H58   S    
C17   C41   A    
C70   H13   S    
C19   C43   A    
C38   H45   S    
C9    C18   A    
C22   H48   S    
C28   H37   S    
C1    H15   S    
C65   C66   A    
C27   H38   S    
C26   C30   A    
O28   P3    D    
C64   C65   A    
O8    P7    S    
C35   H36   S    
C51   H51   S    
C9    N1    Am   
C33   N2    Am   
C37   C38   D    
C60   H54   S    
O17   P8    S    
C65   C77   S    
Ba2   O12   S    
C4    H18   S    
C68   H57   S    
C3    O15   S    
C49   C50   A    
C58   C59   A    
C40   C43   A    
C12   H43   S    
C6    H25   S    
C75   C76   S    
C60   C61   A    
Ba1   O8    S    
C50   P2    S    
C12   H32   S    
C29   C30   A    
Ba1   P2    S    
O25   P6    S    
C62   H55   S    
C17   C20   A    
C15   C16   S    
C13   P8    S    
C1    H21   S    
C19   H35   S    
C53   H56   S    
O4    P4    D    
C74   C75   S    
C73   H64   S    
C2    H1    S    
C70   H12   S    
Ba1   O5    S    
C75   H73   S    
C46   C47   A    
C20   C44   A    
Ba1   O27   S    
C14   C21   D    
C11   C13   S    
O26   P2    D    
C29   C33   A    
C67   H7    S    
C74   H75   S    
O15   P7    S    
C10   O20   D    
C1    C2    S    
C23   H59   S    
C39   N2    S    
C50   C51   A    
C24   C40   A    
C36   P6    S    
C46   H42   S    
O1    P1    D    
C42   C48   A    
O11   P5    S    
C52   C53   A    
C38   C39   S    
C44   H41   S    
C48   H46   S    
C64   P7    S    
C45   H2    S    
C8    H33   S    
C43   H39   S    
O23   P6    D    
C51   C52   A    
C32   O21   D    
C7    H28   S    
C5    H23   S    
C44   C48   A    
C24   C26   A    
C76   H71   S    
C56   C67   S    
O3    P3    S    
Ba2   O5    S    
C30   C31   A    
C69   H10   S    
Ba1   O22   S    
C37   P1    S    
C45   H3    S    
C69   C70   S    
C78   H80   S    
C75   H72   S    
C77   C78   S    
C64   C68   A    
C72   H65   S    
O5    P4    S    
C4    H20   S    
C62   C63   A    
C23   H53   S    
C31   C32   A    
O12   P1    S    
C16   N1    S    
C77   H81   S    
C12   C23   S    
C35   C39   D    
C59   C60   A    
C1    C74   S    
C73   H63   S    
C70   H11   S    
Ba1   O12   S    
C9    O18   D    
C27   C28   A    
C23   H22   S    
C47   H44   S    
C18   C19   A    
C58   C66   S    
C24   C27   A    
C7    H29   S    
C78   C79   S    
C40   C41   A    
C54   P3    S    
C25   C26   A    
Ba2   O6    S    
O24   P1    S    
Ba1   O13   S    
C74   H74   S    
C63   C68   A    
C15   H34   S    
Ba2   O13   S    
Ba2   P4    S    
C8    H30   S    
C3    H17   S    
C4    H19   S    
C69   H9    S    
O10   P5    D    
