data_mof_unit_22707.cif
_audit_creation_date              2012-12-11T14:56:02-0500
_audit_creation_method            fapswitch 2.2
_symmetry_space_group_name_H-M    P1
_symmetry_Int_Tables_number       1
_space_group_crystal_system       triclinic
_cell_length_a                    28.160119
_cell_length_b                    17.187427
_cell_length_c                    18.073098
_cell_angle_alpha                 89.984628
_cell_angle_beta                  138.227426
_cell_angle_gamma                 90.048205
_cell_volume                      5827.28730418

loop_
_atom_site_label
_atom_site_type_symbol
_atom_type_description
_atom_site_fract_x
_atom_site_fract_y
_atom_site_fract_z
_atom_type_partial_charge
C1    C     C_R   0.666942 0.921362 0.817304 0.737177
C2    C     C_3   0.271952 0.705127 0.009784 -0.116969
C3    C     C_3   0.662421 0.743035 0.946745 -0.111332
C4    C     C_3   0.207935 0.808605 0.909525 -0.091629
C5    C     C_3   0.838272 0.244102 0.052851 -0.113476
C6    C     C_3   0.792076 0.809803 0.094028 -0.090004
C7    C     C_3   0.162132 0.243743 0.947325 -0.112074
C8    C     C_3   0.252004 0.780292 0.027049 -0.110771
C9    C     C_3   0.793600 0.271660 0.933666 -0.133302
C10   C     C_3   0.750471 0.781259 0.977725 -0.105398
C11   C     C_3   0.205237 0.271783 0.065621 -0.133719
C12   C     C_3   0.752004 0.280298 0.027042 -0.110820
C13   C     C_3   0.224963 0.348323 0.047246 -0.135814
C14   C     C_3   0.293596 0.771655 0.933669 -0.133277
C15   C     C_3   0.249777 0.280390 0.976565 -0.107103
C16   C     C_3   0.704600 0.770835 0.064659 -0.132413
C17   C     C_3   0.317877 0.819187 0.069502 0.183165
C18   C     C_3   0.728045 0.233428 0.892606 0.173130
C19   C     C_3   0.683114 0.818732 0.931514 0.183131
C20   C     C_3   0.271674 0.233926 0.109334 0.173074
C21   C     C_3   0.817878 0.319194 0.069497 0.183141
C22   C     C_3   0.228042 0.733424 0.892611 0.173161
C23   C     C_3   0.183065 0.318849 0.931499 0.183453
C24   C     C_3   0.730207 0.705483 0.993522 -0.118602
C25   C     C_3   0.771683 0.733969 0.109515 0.173129
C26   C     C_3   0.945842 0.884965 0.810577 -0.600300
C27   C     C_3   0.174246 0.034820 0.492779 -0.612612
C28   C     C_3   0.039583 0.863056 0.147467 -0.613925
C29   C     C_3   0.710893 0.998284 0.290082 -0.681501
C30   C     C_3   0.445920 0.384870 0.810770 -0.600348
C31   C     C_3   0.674257 0.534801 0.492842 -0.612547
C32   C     C_3   0.539619 0.363099 0.147564 -0.613945
C33   C     C_3   0.210891 0.498279 0.290056 -0.681556
C34   C     C_3   0.274388 0.848160 0.952837 -0.131057
C35   C     C_3   0.771954 0.205133 0.009779 -0.116903
C36   C     C_3   0.724087 0.847972 0.046891 -0.137832
C37   C     C_3   0.229289 0.205192 0.992983 -0.117227
C38   C     C_R   0.727047 0.758232 0.660365 -0.241799
C39   C     C_R   0.353591 0.182975 0.581993 -0.309077
C40   C     C_R   0.274684 0.755759 0.343638 -0.250910
C41   C     C_R   0.311855 0.104566 0.202680 0.827563
C42   C     C_R   0.640831 0.178886 0.406737 -0.297301
C43   C     C_R   0.227036 0.258218 0.660343 -0.241946
C44   C     C_R   0.853548 0.683005 0.581912 -0.309100
C45   C     C_R   0.774682 0.255761 0.343626 -0.250882
C46   C     C_R   0.140788 0.678859 0.406659 -0.297298
C47   C     C_R   0.355930 0.293805 0.667818 0.023669
C48   C     C_R   0.752454 0.632563 0.634779 -0.005658
C49   C     C_R   0.633008 0.285848 0.309800 0.028740
C50   C     C_R   0.246772 0.628741 0.362748 0.021881
C51   C     C_R   0.855875 0.793845 0.667710 0.023657
C52   C     C_R   0.334351 0.922316 0.183135 0.737445
C53   C     C_R   0.252446 0.132547 0.634767 -0.005599
C54   C     C_R   0.132967 0.785822 0.309726 0.028752
C55   C     C_R   0.746779 0.128749 0.362762 0.021847
C56   C     C_R   0.365160 0.262710 0.608336 0.678921
C57   C     C_R   0.714058 0.677812 0.641116 0.660037
C58   C     C_R   0.624344 0.257003 0.370979 0.673819
C59   C     C_R   0.288548 0.675419 0.364482 0.656061
C60   C     C_R   0.865103 0.762744 0.608226 0.678930
C61   C     C_R   0.214040 0.177800 0.641082 0.659959
C62   C     C_R   0.124288 0.756972 0.370884 0.673810
C63   C     C_R   0.687924 0.104321 0.798534 0.826785
C64   C     C_R   0.788547 0.175422 0.364474 0.656091
C65   C     C_R   0.324157 0.136190 0.603598 0.745930
C66   C     C_R   0.792498 0.784848 0.710410 0.729477
C67   C     C_R   0.673544 0.132192 0.390815 0.742481
C68   C     C_R   0.207137 0.780959 0.286455 0.732035
C69   C     C_R   0.824130 0.636218 0.603543 0.745941
C70   C     C_R   0.292497 0.284828 0.710421 0.729567
C71   C     C_R   0.173514 0.632171 0.390759 0.742493
C72   C     C_R   0.707138 0.280963 0.286456 0.732027
C73   C     C_R   0.299873 0.170961 0.640862 -0.261893
C74   C     C_R   0.166895 0.421431 0.817292 0.737324
C75   C     C_R   0.819791 0.749206 0.679201 -0.284936
C76   C     C_R   0.696689 0.166084 0.351183 -0.271714
C77   C     C_R   0.174992 0.743170 0.308629 -0.284049
C78   C     C_R   0.799859 0.670986 0.640828 -0.261898
C79   C     C_R   0.319814 0.249177 0.679255 -0.284956
C80   C     C_R   0.196671 0.666070 0.351146 -0.271725
C81   C     C_R   0.675010 0.243185 0.308666 -0.284047
C82   C     C_R   0.346468 0.083581 0.467016 -0.150197
C83   C     C_R   0.676022 0.896208 0.603541 -0.173423
C84   C     C_R   0.651913 0.082494 0.529640 -0.154140
C85   C     C_R   0.811850 0.604588 0.202743 0.827833
C86   C     C_R   0.324229 0.895373 0.397387 -0.169784
C87   C     C_R   0.846450 0.583596 0.466978 -0.150221
C88   C     C_R   0.176020 0.396203 0.603537 -0.173341
C89   C     C_R   0.151896 0.582481 0.529604 -0.154165
C90   C     C_R   0.824229 0.395373 0.397384 -0.169775
C91   C     C_R   0.405403 0.801981 0.484608 0.759886
C92   C     C_R   0.566603 0.174157 0.436915 0.791342
C93   C     C_R   0.595425 0.802141 0.517253 0.758311
C94   C     C_R   0.431293 0.176114 0.559010 0.793907
C95   C     C_R   0.905402 0.301982 0.484605 0.759886
C96   C     C_R   0.834354 0.422322 0.183136 0.737523
C97   C     C_R   0.066576 0.674135 0.436869 0.791382
C98   C     C_R   0.095419 0.302140 0.517242 0.758306
C99   C     C_R   0.931272 0.676132 0.558970 0.793855
C100  C     C_R   0.604929 0.194993 0.711410 -0.130528
C101  C     C_R   0.418319 0.830637 0.274655 -0.183137
C102  C     C_R   0.394574 0.195470 0.290292 -0.115936
C103  C     C_R   0.582603 0.830230 0.726098 -0.175257
C104  C     C_R   0.104926 0.694992 0.711415 -0.130651
C105  C     C_R   0.918318 0.330638 0.274653 -0.183118
C106  C     C_R   0.894568 0.695496 0.290389 -0.115553
C107  C     C_R   0.187923 0.604320 0.798537 0.826590
C108  C     C_R   0.082558 0.330313 0.726108 -0.175436
C109  C     C_R   0.640544 0.861430 0.829254 -0.204279
C110  C     C_R   0.323516 0.181029 0.200536 -0.237071
C111  C     C_R   0.361078 0.862494 0.171530 -0.202296
C112  C     C_R   0.675885 0.180295 0.801943 -0.234290
C113  C     C_R   0.140443 0.361586 0.829254 -0.204642
C114  C     C_R   0.823508 0.681074 0.200695 -0.237287
C115  C     C_R   0.861079 0.362499 0.171528 -0.202336
C116  C     C_R   0.175882 0.680292 0.801948 -0.234214
C117  C     C_R   0.374858 0.149187 0.535710 -0.024551
C118  C     C_3   0.774389 0.348166 0.952832 -0.131004
C119  C     C_R   0.668019 0.815694 0.594412 -0.089454
C120  C     C_R   0.622168 0.146881 0.458149 -0.028244
C121  C     C_R   0.332829 0.814651 0.407922 -0.083541
C122  C     C_R   0.874828 0.649212 0.535650 -0.024492
C123  C     C_R   0.168014 0.315688 0.594400 -0.089433
C124  C     C_R   0.122134 0.646856 0.458087 -0.028276
C125  C     C_R   0.832828 0.314652 0.407915 -0.083604
C126  C     C_3   0.707937 0.308609 0.909517 -0.091586
C127  C     C_3   0.338270 0.744096 0.052853 -0.113461
C128  C     C_3   0.292294 0.309173 0.093221 -0.090323
F1    F     F_    0.730598 0.956753 0.901396 -0.667032
F2    F     F_    0.518149 0.228582 0.361567 -0.680690
F3    F     F_    0.564241 0.732817 0.495580 -0.621124
F4    F     F_    0.477170 0.233804 0.630016 -0.681759
F5    F     F_    0.937404 0.233129 0.507611 -0.616554
F6    F     F_    0.018093 0.728524 0.361470 -0.680563
F7    F     F_    0.064229 0.232819 0.495559 -0.621110
F8    F     F_    0.977135 0.733840 0.629950 -0.681772
F9    F     F_    0.821413 0.851596 0.770579 -0.691998
F10   F     F_    0.317004 0.058397 0.584419 -0.699451
F11   F     F_    0.179874 0.848068 0.227333 -0.692469
F12   F     F_    0.248001 0.075161 0.149848 -0.646636
F13   F     F_    0.687953 0.056420 0.422497 -0.703176
F14   F     F_    0.321405 0.351577 0.770589 -0.691946
F15   F     F_    0.816985 0.558424 0.584378 -0.699451
F16   F     F_    0.679870 0.348069 0.227326 -0.692479
F17   F     F_    0.187930 0.556401 0.422451 -0.703160
F18   F     F_    0.664022 0.643534 0.626206 -0.618981
F19   F     F_    0.382202 0.311930 0.572037 -0.655106
F20   F     F_    0.340534 0.641935 0.383783 -0.614910
F21   F     F_    0.604873 0.307867 0.402098 -0.659896
F22   F     F_    0.163990 0.143525 0.626139 -0.619016
F23   F     F_    0.270977 0.957948 0.098566 -0.668098
F24   F     F_    0.882133 0.811959 0.571907 -0.655117
F25   F     F_    0.840527 0.141936 0.383764 -0.614889
F26   F     F_    0.104795 0.807832 0.401972 -0.659883
F27   F     F_    0.751999 0.075920 0.851293 -0.645974
F28   F     F_    0.230594 0.456743 0.901388 -0.666964
F29   F     F_    0.748003 0.575154 0.149902 -0.646622
F30   F     F_    0.770993 0.457976 0.098570 -0.667971
F31   F     F_    0.251999 0.575919 0.851302 -0.645939
F32   F     F_    0.437404 0.733130 0.507610 -0.616598
H1    H     H_    0.300947 0.049246 0.430785 0.200537
H2    H     H_    0.448631 0.779640 0.294703 0.194450
H3    H     H_    0.418755 0.252475 0.321295 0.210399
H4    H     H_    0.551769 0.779806 0.706179 0.195595
H5    H     H_    0.081127 0.752107 0.680728 0.212749
H6    H     H_    0.948628 0.279641 0.294698 0.194467
H7    H     H_    0.918773 0.752487 0.321429 0.210234
H8    H     H_    0.051738 0.279884 0.706228 0.195725
H9    H     H_    0.235612 0.784104 0.066968 0.162330
H10   H     H_    0.808791 0.266646 0.892162 0.150496
H11   H     H_    0.768636 0.785778 0.940474 0.163109
H12   H     H_    0.725183 0.928098 0.665238 0.237067
H13   H     H_    0.188804 0.266863 0.105337 0.148036
H14   H     H_    0.735611 0.284110 0.066958 0.162329
H15   H     H_    0.308785 0.766640 0.892162 0.150486
H16   H     H_    0.267373 0.284185 0.938418 0.162670
H17   H     H_    0.687616 0.765171 0.103505 0.148335
H18   H     H_    0.653873 0.334573 0.849954 0.168159
H19   H     H_    0.392612 0.718772 0.113290 0.145353
H20   H     H_    0.346260 0.335620 0.153841 0.168793
H21   H     H_    0.608400 0.716652 0.884764 0.148553
H22   H     H_    0.153872 0.834569 0.849963 0.168132
H23   H     H_    0.696999 0.047814 0.565074 0.211740
H24   H     H_    0.892615 0.218779 0.113289 0.145366
H25   H     H_    0.845828 0.836819 0.155222 0.168300
H26   H     H_    0.107882 0.217966 0.885842 0.148181
H27   H     H_    0.777043 0.407862 0.932630 0.151996
H28   H     H_    0.269944 0.645759 0.031657 0.165989
H29   H     H_    0.221585 0.408071 0.066351 0.148633
H30   H     H_    0.733632 0.646350 0.972985 0.166896
H31   H     H_    0.277042 0.907857 0.932635 0.151976
H32   H     H_    0.769947 0.145764 0.031653 0.166076
H33   H     H_    0.719961 0.907452 0.065612 0.148076
H34   H     H_    0.274799 0.926776 0.336253 0.235066
H35   H     H_    0.231969 0.145790 0.972073 0.167777
H36   H     H_    0.860329 0.910279 0.642926 0.225235
H37   H     H_    0.954121 0.947334 0.833717 0.230890
H38   H     H_    0.984313 0.867823 0.811443 0.235651
H39   H     H_    0.956067 0.850116 0.873172 0.244512
H40   H     H_    0.235642 0.023317 0.658348 0.207022
H41   H     H_    0.169055 0.970875 0.480154 0.240834
H42   H     H_    0.178839 0.061420 0.442284 0.231144
H43   H     H_    0.125496 0.057183 0.463794 0.256480
H44   H     H_    0.110833 0.901374 0.309682 0.212932
H45   H     H_    0.800922 0.549267 0.430733 0.200527
H46   H     H_    0.026140 0.923594 0.115588 0.235594
H47   H     H_    0.997611 0.840915 0.136704 0.228185
H48   H     H_    0.040770 0.826631 0.098057 0.244586
H49   H     H_    0.813704 0.032544 0.435735 0.240489
H50   H     H_    0.723559 0.936376 0.316435 0.238691
H51   H     H_    0.713590 0.008095 0.232477 0.214390
H52   H     H_    0.655890 0.010145 0.245974 0.250095
H53   H     H_    0.360457 0.410240 0.643129 0.225252
H54   H     H_    0.454224 0.447234 0.833945 0.230908
H55   H     H_    0.484408 0.367706 0.811678 0.235625
H56   H     H_    0.225183 0.428090 0.665232 0.237076
H57   H     H_    0.456100 0.350014 0.873318 0.244496
H58   H     H_    0.735707 0.523331 0.658443 0.206996
H59   H     H_    0.669088 0.470853 0.480249 0.240859
H60   H     H_    0.678812 0.561401 0.442299 0.231115
H61   H     H_    0.625511 0.557140 0.463887 0.256502
H62   H     H_    0.610902 0.401406 0.309790 0.212909
H63   H     H_    0.526183 0.423638 0.115692 0.235582
H64   H     H_    0.497655 0.340970 0.136825 0.228185
H65   H     H_    0.540784 0.326668 0.098130 0.244593
H66   H     H_    0.313698 0.532536 0.435724 0.240484
H67   H     H_    0.196977 0.547799 0.565028 0.211744
H68   H     H_    0.223556 0.436370 0.316404 0.238652
H69   H     H_    0.213596 0.508097 0.232462 0.214391
H70   H     H_    0.155886 0.510137 0.245939 0.250112
H71   H     H_    0.774798 0.426776 0.336248 0.235060
H72   H     H_    0.581131 0.252110 0.680719 0.212744
N1    N     N_R   0.625380 0.928280 0.709340 -0.119054
N2    N     N_R   0.613900 0.929750 0.547530 -0.096612
N3    N     N_R   0.613900 0.070250 0.547530 -0.100040
N4    N     N_R   0.386100 0.929750 0.452470 -0.096126
N5    N     N_R   0.886100 0.570250 0.452470 -0.099723
N6    N     N_R   0.113900 0.429750 0.547530 -0.096621
N7    N     N_R   0.113900 0.570250 0.547530 -0.100024
N8    N     N_R   0.886100 0.429750 0.452470 -0.096119
N9    N     N_R   0.437800 0.869550 0.507970 -0.129206
N10   N     N_R   0.562200 0.130450 0.492030 -0.139002
N11   N     N_R   0.562200 0.869550 0.492030 -0.127948
N12   N     N_R   0.374620 0.071720 0.290660 -0.139834
N13   N     N_R   0.437800 0.130450 0.507970 -0.139675
N14   N     N_R   0.937800 0.369550 0.507970 -0.129202
N15   N     N_R   0.062200 0.630450 0.492030 -0.139012
N16   N     N_R   0.062200 0.369550 0.492030 -0.127956
N17   N     N_R   0.937800 0.630450 0.507970 -0.139696
N18   N     N_R   0.573690 0.128980 0.653840 -0.097266
N19   N     N_R   0.426310 0.871020 0.346160 -0.076459
N20   N     N_R   0.426310 0.128980 0.346160 -0.096957
N21   N     N_R   0.573690 0.871020 0.653840 -0.076348
N22   N     N_R   0.073690 0.628980 0.653840 -0.097264
N23   N     N_R   0.374620 0.928280 0.290660 -0.118064
N24   N     N_R   0.926310 0.371020 0.346160 -0.076462
N25   N     N_R   0.926310 0.628980 0.346160 -0.096989
N26   N     N_R   0.073690 0.371020 0.653840 -0.076303
N27   N     N_2   0.873514 0.873340 0.701109 -0.060227
N28   N     N_2   0.236805 0.051862 0.609496 -0.053389
N29   N     N_2   0.108226 0.862086 0.263662 -0.059975
N30   N     N_2   0.761678 0.047789 0.386656 -0.047797
N31   N     N_2   0.373600 0.373289 0.701268 -0.060214
N32   N     N_2   0.736832 0.551873 0.609545 -0.053391
N33   N     N_2   0.608274 0.362116 0.263749 -0.059986
N34   N     N_R   0.625380 0.071720 0.709340 -0.139144
N35   N     N_2   0.261671 0.547780 0.386636 -0.047783
N36   N     N_R   0.125380 0.428280 0.709340 -0.119002
N37   N     N_R   0.874620 0.571720 0.290660 -0.139894
N38   N     N_R   0.874620 0.428280 0.290660 -0.118076
N39   N     N_R   0.125380 0.571720 0.709340 -0.139187
N40   N     N_R   0.386100 0.070250 0.452470 -0.099692
Ni1   Ni    Ni4+2 0.616560 0.000000 0.627280 0.263085
Ni2   Ni    Ni4+2 0.383440 0.000000 0.372720 0.263468
Ni3   Ni    Ni4+2 0.116560 0.500000 0.627280 0.263128
Ni4   Ni    Ni4+2 0.883440 0.500000 0.372720 0.263421
Ni5   Ni    Ni4+2 0.497990 0.870580 0.500000 0.323240
Ni6   Ni    Ni4+2 0.502010 0.129420 0.500000 0.231281
Ni7   Ni    Ni4+2 0.997990 0.370580 0.500000 0.323257
Ni8   Ni    Ni4+2 0.002010 0.629420 0.500000 0.231218

loop_
_geom_bond_atom_site_label_1
_geom_bond_atom_site_label_2
_ccdc_geom_bond_type
C108  C113  A    
C96   F30   S    
C35   H32   S    
C87   N5    A    
N7    Ni3   S    
C55   N30   S    
C28   H46   S    
C89   N7    A    
C7    H26   S    
C108  N26   A    
C47   C79   A    
C4    C8    S    
C33   H68   S    
N26   N36   A    
N11   Ni5   S    
C9    H10   S    
C2    C127  S    
C13   H29   S    
C48   C57   A    
C8    H9    S    
H66   N35   S    
N39   Ni3   S    
C40   C121  S    
C6    H25   S    
C40   C59   A    
C103  H4    S    
C32   H64   S    
N2    Ni1   S    
C14   C34   S    
C15   H16   S    
H53   N31   S    
C27   H43   S    
C50   C59   A    
N18   Ni6   S    
C82   N40   A    
C85   C114  A    
C52   N23   A    
C51   C75   A    
C20   C128  S    
C97   C124  A    
C100  N18   A    
C19   C36   S    
C95   N14   A    
C94   C117  A    
C7    C23   S    
C33   N35   S    
C6    C25   S    
C12   C126  S    
C66   C75   A    
N34   Ni1   S    
C96   N38   A    
C28   N29   S    
C27   H42   S    
N22   N39   A    
C95   F5    S    
C104  N22   A    
C105  H6    S    
C13   C23   S    
N7    N15   A    
C30   N31   S    
C60   F24   S    
C83   C119  A    
N15   Ni8   S    
C26   H37   S    
N20   Ni6   S    
C36   H33   S    
C87   H45   S    
N16   Ni7   S    
C42   C58   A    
N24   Ni7   S    
C1    C109  A    
C30   H55   S    
C104  C116  A    
C13   C128  S    
C74   N36   A    
C15   C37   S    
C26   N27   S    
C38   C66   A    
C45   C125  S    
C102  H3    S    
C41   F12   S    
C2    C22   S    
C106  N25   A    
C96   C115  A    
H40   N28   S    
N13   Ni6   S    
C128  H20   S    
C7    C11   S    
C93   C119  A    
C55   C76   A    
C18   C35   S    
C5    H24   S    
C48   C78   A    
C72   C81   A    
C58   F21   S    
C21   C115  S    
N2    N11   A    
C54   C77   A    
C59   F20   S    
C22   C116  S    
C103  C109  A    
C108  H8    S    
C88   N6    A    
C63   N34   A    
C53   N28   S    
C31   H61   S    
C57   F18   S    
C55   C64   A    
C45   C72   A    
N12   Ni2   S    
C9    C118  S    
C39   C65   A    
C46   C124  S    
C69   C78   A    
C101  N19   A    
C85   F29   S    
C97   F6    S    
C89   H67   S    
C88   C123  A    
C33   H69   S    
C17   C111  S    
C71   C80   A    
N5    N17   A    
C29   H51   S    
C31   H59   S    
C19   C109  S    
C7    C37   S    
C98   C123  A    
C18   C112  S    
C4    C34   S    
C11   C20   S    
C70   F14   S    
C46   C71   A    
N23   Ni2   S    
C107  N39   A    
C106  C114  A    
C91   N9    A    
C29   H50   S    
C84   N3    A    
C24   C25   S    
N18   N34   A    
C21   C118  S    
C93   N11   A    
C65   C73   A    
C1    N1    A    
C98   N16   A    
H44   N29   S    
H62   N33   S    
C17   C127  S    
C18   C126  S    
C41   N12   A    
C52   C111  A    
C10   C24   S    
C10   H11   S    
C39   C117  S    
C74   C113  A    
N24   N38   A    
C98   F7    S    
N8    N14   A    
C86   N4    A    
C49   C58   A    
N8    Ni4   S    
C31   N32   S    
H49   N30   S    
N4    N9    A    
H36   N27   S    
C92   F2    S    
C99   N17   A    
N19   Ni5   S    
N3    N10   A    
C5    C9    S    
C14   H15   S    
C27   N28   S    
N9    Ni5   S    
C23   C113  S    
C38   C57   A    
C4    C22   S    
C16   C25   S    
C95   C125  A    
N19   N23   A    
C39   C56   A    
C83   N2    A    
C100  H72   S    
C10   C19   S    
C84   C120  A    
N1    Ni1   S    
C83   H12   S    
N38   Ni4   S    
C86   C121  A    
C27   H41   S    
C29   N30   S    
C73   C79   A    
C74   F28   S    
C44   C69   A    
N4    Ni2   S    
C12   C35   S    
C3    C19   S    
C26   H39   S    
C3    H21   S    
C30   H54   S    
C101  H2    S    
C91   F32   S    
N36   Ni3   S    
N21   Ni5   S    
C64   F25   S    
C99   C122  A    
C20   C110  S    
N13   N40   A    
N14   Ni7   S    
C104  H5    S    
C71   F17   S    
C2    H28   S    
C46   C62   A    
C100  C112  A    
C43   C70   A    
C49   N33   S    
C41   C110  A    
C30   H57   S    
C91   C121  A    
C42   C67   A    
C28   H48   S    
C102  N20   A    
C90   H71   S    
C102  C110  A    
N5    Ni4   S    
N25   N37   A    
C17   C34   S    
C65   F10   S    
C53   C61   A    
C33   H70   S    
C67   F13   S    
C43   C123  S    
C32   H63   S    
C16   H17   S    
C43   C61   A    
C29   H52   S    
C38   C119  S    
C31   H60   S    
C61   F22   S    
C77   C80   A    
C68   C77   A    
C72   F16   S    
C51   N27   S    
C50   N35   S    
C34   H31   S    
C99   F8    S    
C11   H13   S    
N12   N20   A    
N37   Ni4   S    
C70   C79   A    
C63   C112  A    
C54   N29   S    
C88   H56   S    
C90   N8    A    
C105  C115  A    
C84   H23   S    
C2    C8    S    
H58   N32   S    
C3    C24   S    
C50   C80   A    
C76   C81   A    
C97   N15   A    
C87   C122  A    
C107  F31   S    
C118  H27   S    
C67   C76   A    
C82   H1    S    
N1    N21   A    
C69   F15   S    
C54   C62   A    
C49   C81   A    
C45   C64   A    
C1    F1    S    
C8    C17   S    
C105  N24   A    
N17   Ni8   S    
C32   N33   S    
C15   C128  S    
C47   N31   S    
C106  H7    S    
C89   C124  A    
C56   F19   S    
N22   Ni8   S    
C6    C36   S    
C92   C120  A    
C127  H19   S    
C44   C122  S    
C25   C114  S    
C16   C36   S    
C20   C37   S    
C11   C13   S    
C14   C22   S    
C66   F9    S    
C44   C60   A    
C52   F23   S    
C103  N21   A    
C53   C73   A    
C5    C35   S    
C101  C111  A    
C15   C23   S    
C90   C125  A    
C48   N32   S    
C94   N13   A    
C126  H18   S    
C85   N37   A    
C37   H35   S    
N3    Ni1   S    
C26   H38   S    
C75   C78   A    
C94   F4    S    
C107  C116  A    
C6    C10   S    
C14   C127  S    
C63   F27   S    
C12   C21   S    
C62   F26   S    
C9    C18   S    
C5    C21   S    
C32   H65   S    
N25   Ni8   S    
N40   Ni2   S    
C40   C68   A    
N6    N16   A    
N26   Ni7   S    
C12   H14   S    
C28   H47   S    
N10   Ni6   S    
C68   F11   S    
C24   H30   S    
C51   C60   A    
C118  C126  S    
C82   C117  A    
C4    H22   S    
C93   F3    S    
C92   N10   A    
C86   H34   S    
C3    C16   S    
N6    Ni3   S    
C47   C56   A    
C42   C120  S    
