data_mof_unit_64070.cif
_audit_creation_date              2012-12-10T18:02:01-0500
_audit_creation_method            fapswitch 2.2
_symmetry_space_group_name_H-M    P1
_symmetry_Int_Tables_number       1
_space_group_crystal_system       triclinic
_cell_length_a                    21.742009
_cell_length_b                    21.742037
_cell_length_c                    47.208373
_cell_angle_alpha                 89.999458
_cell_angle_beta                  89.999426
_cell_angle_gamma                 89.998959
_cell_volume                      22316.1326687

loop_
_atom_site_label
_atom_site_type_symbol
_atom_type_description
_atom_site_fract_x
_atom_site_fract_y
_atom_site_fract_z
_atom_type_partial_charge
C1    C     C_R   0.999987 0.881433 0.999952 0.798309
C2    C     C_R   0.118567 0.999988 0.999951 0.798309
C3    C     C_R   0.000013 0.118567 0.999951 0.798308
C4    C     C_R   0.881433 0.000012 0.999952 0.798309
C5    C     C_R   0.499989 0.381432 0.499952 0.798307
C6    C     C_R   0.618568 0.499989 0.499951 0.798308
C7    C     C_R   0.500013 0.618567 0.499952 0.798313
C8    C     C_R   0.381432 0.500010 0.499952 0.798309
C9    C     C_R   0.685342 0.999352 0.999482 -0.101512
C10   C     C_R   0.000648 0.685343 0.999481 -0.101518
C11   C     C_R   0.314658 0.000647 0.999482 -0.101504
C12   C     C_R   0.999352 0.314657 0.999480 -0.101520
C13   C     C_R   0.185341 0.499351 0.499486 -0.101470
C14   C     C_R   0.500650 0.185341 0.499487 -0.101489
C15   C     C_R   0.814658 0.500649 0.499486 -0.101485
C16   C     C_R   0.499349 0.814658 0.499487 -0.101512
C17   C     C_R   0.719607 0.048130 0.010019 0.129883
C18   C     C_R   0.951865 0.719608 0.010013 0.129887
C19   C     C_R   0.280393 0.951874 0.010023 0.129880
C20   C     C_R   0.048135 0.280392 0.010012 0.129886
C21   C     C_R   0.219607 0.548099 0.510051 0.129858
C22   C     C_R   0.451898 0.219607 0.510049 0.129858
C23   C     C_R   0.780393 0.451892 0.510043 0.129868
C24   C     C_R   0.548116 0.780392 0.510033 0.129884
C25   C     C_3   0.715795 0.110268 0.023240 -0.448995
C26   C     C_3   0.889721 0.715794 0.023229 -0.448989
C27   C     C_3   0.284204 0.889741 0.023251 -0.449016
C28   C     C_3   0.110279 0.284204 0.023228 -0.448990
C29   C     C_3   0.215799 0.610208 0.523302 -0.449023
C30   C     C_3   0.389781 0.215798 0.523291 -0.448974
C31   C     C_3   0.784201 0.389773 0.523284 -0.448988
C32   C     C_3   0.610250 0.784205 0.523259 -0.448923
C33   C     C_3   0.786673 0.109340 0.023692 -0.490455
C34   C     C_3   0.890647 0.786673 0.023681 -0.490482
C35   C     C_3   0.213325 0.890671 0.023702 -0.490445
C36   C     C_3   0.109353 0.213326 0.023679 -0.490482
C37   C     C_3   0.286677 0.609277 0.523751 -0.490368
C38   C     C_3   0.390708 0.286676 0.523739 -0.490372
C39   C     C_3   0.713323 0.390701 0.523732 -0.490391
C40   C     C_3   0.609327 0.713326 0.523707 -0.490426
C41   C     C_R   0.983912 0.554071 0.100624 0.087562
C42   C     C_R   0.445918 0.983952 0.100626 0.087570
C43   C     C_R   0.016085 0.445923 0.100624 0.087563
C44   C     C_R   0.554085 0.016046 0.100624 0.087566
C45   C     C_R   0.484224 0.054163 0.600614 0.087407
C46   C     C_R   0.945854 0.484172 0.600618 0.087440
C47   C     C_R   0.515785 0.945838 0.600617 0.087395
C48   C     C_R   0.054151 0.515825 0.600617 0.087447
C49   C     C_R   0.500001 0.000000 0.945364 0.800346
C50   C     C_R   0.000000 0.500000 0.945364 0.800336
C51   C     C_R   0.000000 0.500000 0.445364 0.800303
C52   C     C_R   0.500000 0.000000 0.445364 0.800307
C53   C     C_R   0.618800 0.000051 0.999835 0.805788
C54   C     C_R   0.999948 0.618800 0.999834 0.805787
C55   C     C_R   0.381200 0.999949 0.999835 0.805790
C56   C     C_R   0.000052 0.381200 0.999834 0.805785
C57   C     C_R   0.118800 0.500051 0.499837 0.805809
C58   C     C_R   0.499949 0.118800 0.499837 0.805826
C59   C     C_R   0.881200 0.499949 0.499837 0.805810
C60   C     C_R   0.500051 0.881200 0.499836 0.805804
C61   C     C_R   0.500000 1.000000 0.054312 0.813377
C62   C     C_R   1.000000 0.499999 0.054312 0.813418
C63   C     C_R   1.000000 0.500000 0.554311 0.813394
C64   C     C_R   0.500000 0.999996 0.554310 0.813426
C65   C     C_R   0.054027 0.490034 0.190123 0.538788
C66   C     C_R   0.509976 0.054027 0.190124 0.538790
C67   C     C_R   0.945970 0.509958 0.190124 0.538789
C68   C     C_R   0.490028 0.945975 0.190125 0.538788
C69   C     C_R   0.553920 0.989410 0.690121 0.538764
C70   C     C_R   0.010511 0.553924 0.690123 0.538762
C71   C     C_R   0.446108 0.010617 0.690122 0.538755
C72   C     C_R   0.989503 0.446073 0.690124 0.538761
C73   C     C_R   0.944940 0.510490 0.219911 -0.019204
C74   C     C_R   0.489496 0.944946 0.219912 -0.019214
C75   C     C_R   0.055057 0.489503 0.219910 -0.019204
C76   C     C_R   0.510506 0.055058 0.219911 -0.019214
C77   C     C_R   0.445092 0.011194 0.719908 -0.019137
C78   C     C_R   0.988947 0.445053 0.719911 -0.019150
C79   C     C_R   0.554939 0.988845 0.719908 -0.019131
C80   C     C_R   0.011063 0.554946 0.719909 -0.019148
C81   C     C_R   0.500013 0.000008 0.854297 0.356780
C82   C     C_R   0.999997 0.500005 0.854297 0.356931
C83   C     C_R   0.000001 0.500001 0.354297 0.357141
C84   C     C_R   0.500001 0.000003 0.354297 0.357259
C85   C     C_R   0.999999 0.499997 0.234859 -0.017268
C86   C     C_R   0.500001 0.000002 0.234860 -0.017258
C87   C     C_R   0.500017 0.000023 0.734857 -0.017295
C88   C     C_R   0.000003 0.500000 0.734858 -0.017286
C89   C     C_R   0.890275 0.521049 0.235052 -0.162224
C90   C     C_R   0.478921 0.890286 0.235053 -0.162228
C91   C     C_R   0.109722 0.478942 0.235051 -0.162224
C92   C     C_R   0.521079 0.109718 0.235051 -0.162228
C93   C     C_R   0.390567 0.022453 0.735049 -0.162234
C94   C     C_R   0.977814 0.390504 0.735052 -0.162237
C95   C     C_R   0.609464 0.977583 0.735048 -0.162236
C96   C     C_R   0.022194 0.609497 0.735049 -0.162236
C97   C     C_R   0.390610 0.022705 0.764639 -0.161363
C98   C     C_R   0.977564 0.390546 0.764641 -0.161371
C99   C     C_R   0.609423 0.977330 0.764637 -0.161365
C100  C     C_R   0.022438 0.609458 0.764638 -0.161370
C101  C     C_R   0.890312 0.521288 0.264642 -0.161348
C102  C     C_R   0.478681 0.890323 0.264643 -0.161353
C103  C     C_R   0.109686 0.478706 0.264641 -0.161349
C104  C     C_R   0.521320 0.109682 0.264641 -0.161353
C105  C     C_R   0.445140 0.011518 0.779776 -0.016664
C106  C     C_R   0.988625 0.445100 0.779778 -0.016686
C107  C     C_R   0.554894 0.988520 0.779776 -0.016661
C108  C     C_R   0.011374 0.554905 0.779777 -0.016687
C109  C     C_R   0.944979 0.510797 0.279779 -0.016724
C110  C     C_R   0.489187 0.944986 0.279780 -0.016744
C111  C     C_R   0.055019 0.489200 0.279779 -0.016724
C112  C     C_R   0.510814 0.055019 0.279779 -0.016743
C113  C     C_R   0.500017 0.000023 0.764826 -0.016065
C114  C     C_R   0.000001 0.500002 0.764828 -0.016051
C115  C     C_R   0.999999 0.499998 0.264829 -0.016042
C116  C     C_R   0.500000 0.000003 0.264830 -0.016030
C117  C     C_R   0.446262 0.011361 0.809562 0.532939
C118  C     C_R   0.988764 0.446227 0.809564 0.532957
C119  C     C_R   0.553768 0.988664 0.809561 0.532949
C120  C     C_R   0.011229 0.553781 0.809563 0.532958
C121  C     C_R   0.946107 0.510666 0.309565 0.532977
C122  C     C_R   0.489315 0.946114 0.309566 0.532985
C123  C     C_R   0.053893 0.489334 0.309565 0.532975
C124  C     C_R   0.510687 0.053891 0.309565 0.532986
C125  C     C_R   0.506893 0.944752 0.869243 -0.104803
C126  C     C_R   0.055259 0.506835 0.869243 -0.104877
C127  C     C_R   0.493128 0.055261 0.869245 -0.104819
C128  C     C_R   0.944737 0.493173 0.869244 -0.104868
C129  C     C_R   0.007175 0.444783 0.369243 -0.104945
C130  C     C_R   0.555237 0.007026 0.369241 -0.104991
C131  C     C_R   0.992826 0.555218 0.369243 -0.104939
C132  C     C_R   0.444764 0.992978 0.369242 -0.104992
C133  C     C_R   0.506724 0.944666 0.898852 -0.211252
C134  C     C_R   0.055344 0.506667 0.898851 -0.211205
C135  C     C_R   0.493288 0.055342 0.898853 -0.211245
C136  C     C_R   0.944654 0.493337 0.898852 -0.211203
C137  C     C_R   0.007003 0.444698 0.398852 -0.211139
C138  C     C_R   0.555323 0.006854 0.398851 -0.211107
C139  C     C_R   0.992997 0.555304 0.398852 -0.211138
C140  C     C_R   0.444678 0.993148 0.398851 -0.211101
C141  C     C_R   0.500003 0.000002 0.913997 -0.039732
C142  C     C_R   1.000000 0.500001 0.913996 -0.039734
C143  C     C_R   0.000000 0.500001 0.413996 -0.039681
C144  C     C_R   0.500001 0.000001 0.413996 -0.039705
C145  C     C_R   0.984224 0.553303 0.130349 -0.130737
C146  C     C_R   0.446684 0.984267 0.130350 -0.130739
C147  C     C_R   0.015773 0.446691 0.130349 -0.130738
C148  C     C_R   0.553320 0.015732 0.130349 -0.130741
C149  C     C_R   0.484567 0.053410 0.630338 -0.130630
C150  C     C_R   0.946614 0.484509 0.630343 -0.130653
C151  C     C_R   0.515448 0.946600 0.630341 -0.130655
C152  C     C_R   0.053395 0.515486 0.630341 -0.130639
C153  C     C_R   0.999999 0.499998 0.085535 -0.062341
C154  C     C_R   0.500001 0.999999 0.085536 -0.062324
C155  C     C_R   0.500000 0.999998 0.585529 -0.062324
C156  C     C_R   0.000001 0.499999 0.585531 -0.062344
C157  C     C_R   0.999998 0.499996 0.145267 0.281937
C158  C     C_R   0.500002 0.000000 0.145269 0.281969
C159  C     C_R   0.500009 0.000007 0.645261 0.281600
C160  C     C_R   0.000005 0.499997 0.645263 0.281634
C161  C     C_R   0.781630 0.047301 0.010638 0.110075
C162  C     C_R   0.952692 0.781631 0.010632 0.110060
C163  C     C_R   0.218369 0.952704 0.010642 0.110084
C164  C     C_R   0.047308 0.218368 0.010631 0.110060
C165  C     C_R   0.281630 0.547268 0.510668 0.110134
C166  C     C_R   0.452727 0.281631 0.510665 0.110121
C167  C     C_R   0.718369 0.452722 0.510659 0.110127
C168  C     C_R   0.547291 0.718369 0.510649 0.110105
C169  C     C_R   0.815471 0.998779 0.999860 -0.073043
C170  C     C_R   0.001220 0.815471 0.999860 -0.073030
C171  C     C_R   0.184530 0.001221 0.999859 -0.073052
C172  C     C_R   0.998780 0.184529 0.999859 -0.073029
C173  C     C_R   0.315470 0.498776 0.499860 -0.073106
C174  C     C_R   0.501223 0.315470 0.499861 -0.073103
C175  C     C_R   0.684530 0.501223 0.499860 -0.073090
C176  C     C_R   0.498779 0.684530 0.499861 -0.073077
C177  C     C_R   0.783035 0.948461 0.988477 -0.212397
C178  C     C_R   0.051546 0.783034 0.988483 -0.212397
C179  C     C_R   0.216966 0.051534 0.988471 -0.212399
C180  C     C_R   0.948454 0.216966 0.988483 -0.212396
C181  C     C_R   0.283032 0.448486 0.488452 -0.212423
C182  C     C_R   0.551521 0.283032 0.488459 -0.212427
C183  C     C_R   0.716968 0.551523 0.488461 -0.212420
C184  C     C_R   0.448464 0.716967 0.488476 -0.212429
C185  C     C_R   0.718186 0.948351 0.988632 -0.195921
C186  C     C_R   0.051657 0.718186 0.988637 -0.195904
C187  C     C_R   0.281815 0.051644 0.988626 -0.195922
C188  C     C_R   0.948344 0.281815 0.988637 -0.195902
C189  C     C_R   0.218183 0.448376 0.488608 -0.195973
C190  C     C_R   0.551632 0.218183 0.488615 -0.195967
C191  C     C_R   0.781816 0.551633 0.488617 -0.195971
C192  C     C_R   0.448352 0.781816 0.488631 -0.195960
Cu1   Cu    Cu3+1 0.000000 0.000000 0.028100 0.953454
Cu2   Cu    Cu3+1 0.500000 0.500000 0.528100 0.953416
Cu3   Cu    Cu3+1 0.000000 0.000000 0.971820 0.978076
Cu4   Cu    Cu3+1 0.500000 0.500000 0.471820 0.978092
Cu5   Cu    Cu3+1 0.500040 0.061910 0.999920 0.946690
Cu6   Cu    Cu3+1 0.938090 0.500040 0.999920 0.946688
Cu7   Cu    Cu3+1 0.499960 0.938090 0.999920 0.946692
Cu8   Cu    Cu3+1 0.061910 0.499960 0.999920 0.946689
Cu9   Cu    Cu3+1 0.000040 0.561910 0.499920 0.946694
Cu10  Cu    Cu3+1 0.438090 0.000040 0.499920 0.946687
Cu11  Cu    Cu3+1 0.999960 0.438090 0.499920 0.946694
Cu12  Cu    Cu3+1 0.561910 0.999960 0.499920 0.946677
H1    H     H_    0.972765 0.594572 0.142086 0.151365
H2    H     H_    0.405405 0.972841 0.142088 0.151340
H3    H     H_    0.027232 0.405421 0.142086 0.151364
H4    H     H_    0.594599 0.027158 0.142086 0.151341
H5    H     H_    0.473372 0.094759 0.642070 0.151642
H6    H     H_    0.905279 0.473274 0.642077 0.151607
H7    H     H_    0.526651 0.905257 0.642076 0.151649
H8    H     H_    0.094731 0.526722 0.642074 0.151613
H9    H     H_    0.347759 0.031621 0.775594 0.189469
H10   H     H_    0.968745 0.347677 0.775597 0.189472
H11   H     H_    0.652272 0.968405 0.775592 0.189468
H12   H     H_    0.031254 0.652328 0.775593 0.189472
H13   H     H_    0.847351 0.529652 0.275597 0.189469
H14   H     H_    0.470303 0.847366 0.275599 0.189473
H15   H     H_    0.152648 0.470341 0.275596 0.189469
H16   H     H_    0.529697 0.152639 0.275596 0.189472
H17   H     H_    0.512145 0.901810 0.857881 0.141560
H18   H     H_    0.098205 0.512048 0.857880 0.141458
H19   H     H_    0.487878 0.098205 0.857884 0.141555
H20   H     H_    0.901790 0.487960 0.857882 0.141460
H21   H     H_    0.012660 0.401872 0.357880 0.141316
H22   H     H_    0.598163 0.012395 0.357877 0.141242
H23   H     H_    0.987341 0.598130 0.357879 0.141317
H24   H     H_    0.401838 0.987609 0.357878 0.141243
H25   H     H_    0.512093 0.901300 0.909855 0.162263
H26   H     H_    0.098714 0.511996 0.909854 0.162261
H27   H     H_    0.487915 0.098705 0.909857 0.162264
H28   H     H_    0.901285 0.488007 0.909856 0.162263
H29   H     H_    0.012604 0.401363 0.409856 0.162194
H30   H     H_    0.598674 0.012334 0.409854 0.162209
H31   H     H_    0.987397 0.598638 0.409856 0.162194
H32   H     H_    0.401328 0.987668 0.409855 0.162212
H33   H     H_    0.807592 0.909384 0.979828 0.143498
H34   H     H_    0.090628 0.807592 0.979839 0.143489
H35   H     H_    0.192409 0.090607 0.979817 0.143507
H36   H     H_    0.909373 0.192409 0.979839 0.143487
H37   H     H_    0.307588 0.409431 0.479780 0.143566
H38   H     H_    0.590580 0.307588 0.479793 0.143557
H39   H     H_    0.692412 0.590585 0.479796 0.143540
H40   H     H_    0.409391 0.692411 0.479822 0.143534
H41   H     H_    0.694037 0.909030 0.979996 0.166373
H42   H     H_    0.090984 0.694037 0.980005 0.166376
H43   H     H_    0.305965 0.090961 0.979986 0.166368
H44   H     H_    0.909017 0.305964 0.980005 0.166377
H45   H     H_    0.194032 0.409079 0.479950 0.166338
H46   H     H_    0.590936 0.194033 0.479962 0.166354
H47   H     H_    0.805967 0.590939 0.479966 0.166345
H48   H     H_    0.409035 0.805965 0.479991 0.166370
H49   H     H_    0.696278 0.145160 0.008568 0.208240
H50   H     H_    0.854836 0.696276 0.008554 0.208238
H51   H     H_    0.303721 0.854843 0.008582 0.208243
H52   H     H_    0.145164 0.303723 0.008553 0.208239
H53   H     H_    0.196280 0.645133 0.508647 0.208257
H54   H     H_    0.354866 0.196276 0.508633 0.208245
H55   H     H_    0.803723 0.354860 0.508623 0.208251
H56   H     H_    0.645146 0.803728 0.508591 0.208236
H57   H     H_    0.694920 0.109002 0.044700 0.195003
H58   H     H_    0.890978 0.694920 0.044689 0.195012
H59   H     H_    0.305077 0.891016 0.044711 0.195005
H60   H     H_    0.109021 0.305077 0.044688 0.195013
H61   H     H_    0.194930 0.608895 0.544763 0.194952
H62   H     H_    0.391081 0.194930 0.544753 0.194935
H63   H     H_    0.805069 0.391069 0.544745 0.194948
H64   H     H_    0.608974 0.805072 0.544721 0.194940
H65   H     H_    0.808030 0.143378 0.009132 0.194599
H66   H     H_    0.856615 0.808029 0.009117 0.194609
H67   H     H_    0.191968 0.856626 0.009146 0.194600
H68   H     H_    0.143385 0.191971 0.009116 0.194612
H69   H     H_    0.308032 0.643347 0.509206 0.194596
H70   H     H_    0.356647 0.308029 0.509189 0.194604
H71   H     H_    0.691970 0.356642 0.509181 0.194603
H72   H     H_    0.643371 0.691977 0.509147 0.194599
H73   H     H_    0.806511 0.107527 0.045374 0.209275
H74   H     H_    0.892449 0.806511 0.045363 0.209274
H75   H     H_    0.193487 0.892492 0.045385 0.209276
H76   H     H_    0.107550 0.193486 0.045362 0.209274
H77   H     H_    0.306519 0.607417 0.545431 0.209276
H78   H     H_    0.392553 0.306520 0.545420 0.209278
H79   H     H_    0.693479 0.392543 0.545413 0.209273
H80   H     H_    0.607511 0.693481 0.545388 0.209276
H81   H     H_    0.847279 0.529241 0.224099 0.189328
H82   H     H_    0.470718 0.847293 0.224099 0.189332
H83   H     H_    0.152718 0.470748 0.224097 0.189328
H84   H     H_    0.529284 0.152711 0.224097 0.189331
H85   H     H_    0.347677 0.031187 0.724096 0.189325
H86   H     H_    0.969175 0.347596 0.724099 0.189332
H87   H     H_    0.652353 0.968841 0.724094 0.189324
H88   H     H_    0.030836 0.652404 0.724095 0.189333
N1    N     N_R   0.999998 0.499996 0.175818 -0.455545
N2    N     N_R   0.500002 0.000001 0.175819 -0.455551
N3    N     N_R   0.500013 0.000012 0.675814 -0.455452
N4    N     N_R   0.000007 0.499998 0.675816 -0.455466
N5    N     N_R   0.500015 0.000011 0.823813 -0.468945
N6    N     N_R   0.999996 0.500005 0.823814 -0.468979
N7    N     N_R   0.000000 0.500000 0.323815 -0.469024
N8    N     N_R   0.500001 0.000003 0.323815 -0.469049
O1    O     O_R   0.000030 0.909910 0.023730 -0.586477
O2    O     O_R   0.090090 0.000030 0.023730 -0.586477
O3    O     O_R   0.999970 0.090090 0.023730 -0.586477
O4    O     O_R   0.909910 0.999970 0.023730 -0.586478
O5    O     O_R   0.500030 0.409910 0.523730 -0.586487
O6    O     O_R   0.590090 0.500030 0.523730 -0.586485
O7    O     O_R   0.499970 0.590090 0.523730 -0.586485
O8    O     O_R   0.409910 0.499970 0.523730 -0.586486
O9    O     O_R   0.000060 0.909970 0.976200 -0.580635
O10   O     O_R   0.090030 0.000060 0.976200 -0.580639
O11   O     O_R   0.999940 0.090030 0.976200 -0.580636
O12   O     O_R   0.909970 0.999940 0.976200 -0.580636
O13   O     O_R   0.500060 0.409970 0.476200 -0.580632
O14   O     O_R   0.590030 0.500060 0.476200 -0.580633
O15   O     O_R   0.499940 0.590030 0.476200 -0.580626
O16   O     O_R   0.409970 0.499940 0.476200 -0.580630
O17   O     O_R   0.500060 0.052300 0.958860 -0.586910
O18   O     O_R   0.947700 0.500060 0.958860 -0.586910
O19   O     O_R   0.499940 0.947700 0.958860 -0.586906
O20   O     O_R   0.052300 0.499940 0.958860 -0.586909
O21   O     O_R   0.000060 0.552300 0.458860 -0.586877
O22   O     O_R   0.447700 0.000060 0.458860 -0.586881
O23   O     O_R   0.999940 0.447700 0.458860 -0.586879
O24   O     O_R   0.552300 0.999940 0.458860 -0.586886
O25   O     O_R   0.590210 0.052300 0.999920 -0.583723
O26   O     O_R   0.947700 0.590210 0.999920 -0.583722
O27   O     O_R   0.409790 0.947700 0.999920 -0.583720
O28   O     O_R   0.052300 0.409790 0.999920 -0.583719
O29   O     O_R   0.090210 0.552300 0.499920 -0.583713
O30   O     O_R   0.447700 0.090210 0.499920 -0.583728
O31   O     O_R   0.909790 0.447700 0.499920 -0.583715
O32   O     O_R   0.552300 0.909790 0.499920 -0.583719
O33   O     O_R   0.590210 0.947930 0.999950 -0.591051
O34   O     O_R   0.052070 0.590210 0.999950 -0.591048
O35   O     O_R   0.409790 0.052070 0.999950 -0.591048
O36   O     O_R   0.947930 0.409790 0.999950 -0.591051
O37   O     O_R   0.090210 0.447930 0.499950 -0.591079
O38   O     O_R   0.552070 0.090210 0.499950 -0.591075
O39   O     O_R   0.909790 0.552070 0.499950 -0.591083
O40   O     O_R   0.447930 0.909790 0.499950 -0.591095
O41   O     O_R   0.500010 0.052300 0.040980 -0.588097
O42   O     O_R   0.947700 0.500010 0.040980 -0.588103
O43   O     O_R   0.499990 0.947700 0.040980 -0.588096
O44   O     O_R   0.052300 0.499990 0.040980 -0.588098
O45   O     O_R   0.000010 0.552300 0.540980 -0.588107
O46   O     O_R   0.447700 0.000010 0.540980 -0.588109
O47   O     O_R   0.999990 0.447700 0.540980 -0.588101
O48   O     O_R   0.552300 0.999990 0.540980 -0.588106
O49   O     O_2   0.106726 0.481227 0.175582 -0.541291
O50   O     O_2   0.518796 0.106723 0.175582 -0.541277
O51   O     O_2   0.893271 0.518764 0.175583 -0.541290
O52   O     O_2   0.481209 0.893279 0.175584 -0.541277
O53   O     O_2   0.606518 0.980004 0.675583 -0.541461
O54   O     O_2   0.019830 0.606538 0.675584 -0.541435
O55   O     O_2   0.393505 0.020008 0.675585 -0.541452
O56   O     O_2   0.980188 0.393457 0.675587 -0.541430
O57   O     O_2   0.393993 0.022012 0.824168 -0.536060
O58   O     O_2   0.978206 0.393941 0.824171 -0.536011
O59   O     O_2   0.606035 0.978001 0.824166 -0.536063
O60   O     O_2   0.021783 0.606070 0.824168 -0.536008
O61   O     O_2   0.893714 0.520673 0.324173 -0.535927
O62   O     O_2   0.479281 0.893727 0.324175 -0.535887
O63   O     O_2   0.106287 0.479329 0.324172 -0.535926
O64   O     O_2   0.520721 0.106279 0.324173 -0.535888
C193  C     C_3   0.967629 0.613528 0.085691 -0.427058
C194  C     C_3   0.025349 0.648155 0.076527 -0.813038
H89   H     H_    0.054518 0.658599 0.095237 0.260167
H90   H     H_    0.052384 0.620600 0.061160 0.259781
H91   H     H_    0.012088 0.692161 0.066281 0.242032
H92   H     H_    0.937973 0.604384 0.067044 0.211833
H93   H     H_    0.940548 0.643896 0.099964 0.208940
C195  C     C_3   0.386455 0.967709 0.085692 -0.427114
C196  C     C_3   0.351865 0.025450 0.076528 -0.813041
H94   H     H_    0.341440 0.054625 0.095239 0.260172
H95   H     H_    0.379440 0.052470 0.061163 0.259815
H96   H     H_    0.307854 0.012214 0.066282 0.242047
H97   H     H_    0.395587 0.938051 0.067044 0.211805
H98   H     H_    0.356072 0.940644 0.099963 0.208955
C197  C     C_3   0.032370 0.386467 0.085691 -0.427060
C198  C     C_3   0.974653 0.351844 0.076522 -0.813041
H99   H     H_    0.945476 0.341398 0.095230 0.260167
H100  H     H_    0.947624 0.379403 0.061154 0.259780
H101  H     H_    0.987916 0.307839 0.066276 0.242031
H102  H     H_    0.062035 0.395613 0.067046 0.211833
H103  H     H_    0.059444 0.356096 0.099965 0.208941
C199  C     C_3   0.613548 0.032289 0.085690 -0.427106
C200  C     C_3   0.648138 0.974549 0.076526 -0.813036
H104  H     H_    0.658562 0.945374 0.095236 0.260171
H105  H     H_    0.620564 0.947529 0.061161 0.259812
H106  H     H_    0.692149 0.987785 0.066279 0.242048
H107  H     H_    0.604415 0.061948 0.067041 0.211805
H108  H     H_    0.643931 0.059355 0.099960 0.208954
C201  C     C_3   0.468196 0.113679 0.585674 -0.427039
C202  C     C_3   0.526055 0.148073 0.576513 -0.812962
H109  H     H_    0.555239 0.158439 0.595227 0.260070
H110  H     H_    0.553008 0.120390 0.561164 0.260031
H111  H     H_    0.512967 0.192108 0.566246 0.242064
H112  H     H_    0.438524 0.104637 0.567020 0.211564
H113  H     H_    0.441219 0.144156 0.599938 0.209022
C203  C     C_3   0.886347 0.468100 0.585681 -0.427056
C204  C     C_3   0.851915 0.525935 0.576517 -0.812994
H114  H     H_    0.841537 0.555120 0.595229 0.260094
H115  H     H_    0.879577 0.552897 0.561164 0.259985
H116  H     H_    0.807886 0.512815 0.566254 0.242062
H117  H     H_    0.895406 0.438426 0.567031 0.211610
H118  H     H_    0.855889 0.441111 0.599949 0.209015
C205  C     C_3   0.531842 0.886325 0.585680 -0.427001
C206  C     C_3   0.474003 0.851923 0.576498 -0.812966
H119  H     H_    0.444778 0.841568 0.595200 0.260082
H120  H     H_    0.447085 0.879593 0.561131 0.259996
H121  H     H_    0.487116 0.807882 0.566243 0.242057
H122  H     H_    0.561548 0.895373 0.567038 0.211572
H123  H     H_    0.558795 0.855846 0.599953 0.209028
C207  C     C_3   0.113654 0.531902 0.585678 -0.427075
C208  C     C_3   0.148093 0.474071 0.576515 -0.813001
H124  H     H_    0.158478 0.444891 0.595229 0.260095
H125  H     H_    0.120433 0.447102 0.561164 0.259988
H126  H     H_    0.192119 0.487195 0.566251 0.242063
H127  H     H_    0.104589 0.561572 0.567026 0.211615
H128  H     H_    0.144109 0.558899 0.599943 0.209015

loop_
_geom_bond_atom_site_label_1
_geom_bond_atom_site_label_2
_ccdc_geom_bond_type
C53   O33   A    
C89   H81   S    
C60   O40   A    
C5    C174  S    
C108  C120  A    
C91   H83   S    
C199  H107  S    
C200  H106  S    
C63   O45   A    
C79   C87   A    
C6    O6    A    
C52   C144  S    
C170  C178  A    
C177  H33   S    
C159  N3    S    
C112  C124  A    
C160  N4    S    
C95   C99   A    
C40   H72   S    
C117  N5    A    
C190  H46   S    
C52   O22   A    
C195  C196  S    
C30   C38   S    
Cu5   Cu7   S    
C94   H86   S    
C107  C113  A    
C16   C192  A    
Cu2   O7    S    
C56   O36   A    
C2    C171  S    
C97   C105  A    
C201  H113  S    
C106  C118  A    
C128  H20   S    
C38   H78   S    
C3    O11   A    
C123  O63   S    
C137  H29   S    
C166  C174  A    
C196  H96   S    
C38   H70   S    
Cu8   O34   S    
C20   C28   S    
C27   C35   S    
C21   C29   S    
C35   C163  S    
C23   C31   S    
C33   C161  S    
C24   C32   S    
C83   C131  A    
C203  H117  S    
C50   O20   A    
C64   O46   A    
C66   C76   A    
C12   C20   A    
Cu12  O32   S    
C13   C21   A    
C71   N3    A    
C2    O2    A    
C72   N4    A    
C27   H51   S    
C61   O41   A    
C23   C167  A    
C206  H120  S    
Cu4   O13   S    
C139  H31   S    
C200  H104  S    
C130  C138  A    
C110  C116  A    
C175  C183  A    
C117  O57   S    
C176  C184  A    
C124  O64   S    
C15   C191  A    
C100  H12   S    
C89   C101  A    
C123  N7    A    
C96   H88   S    
C91   C103  A    
C52   O24   A    
C82   N6    S    
C78   C94   A    
C51   C143  S    
C201  C202  S    
C98   C106  A    
C44   C154  A    
C74   C90   A    
C128  C136  A    
C17   C25   S    
C80   C88   A    
C193  C194  S    
C109  C121  A    
C197  H102  S    
C10   C18   A    
C84   C130  A    
C12   C56   S    
C34   H74   S    
C48   C156  A    
Cu2   O5    S    
C87   C113  A    
C49   O17   A    
C202  H109  S    
C92   C104  A    
C178  C186  A    
Cu7   O33   S    
Cu5   O41   S    
C130  H22   S    
C94   C98   A    
C34   H66   S    
Cu6   Cu8   S    
C182  C190  A    
C4    O12   A    
C198  H99   S    
C71   C77   A    
C55   O35   A    
C119  O59   S    
C174  C182  A    
C45   C201  S    
C204  H114  S    
C177  C185  A    
C150  H6    S    
C103  C111  A    
C42   C154  A    
C47   C205  S    
C83   C129  A    
C72   O56   S    
C50   O18   A    
C13   C57   S    
C66   N2    A    
C68   C74   A    
C59   O31   A    
C16   C60   S    
C7    O15   A    
C90   C102  A    
C72   C78   A    
C139  C143  A    
Cu9   O39   S    
C82   C126  A    
Cu4   O15   S    
C90   H82   S    
C179  H35   S    
C208  H125  S    
C95   H87   S    
C207  H128  S    
C75   C91   A    
C161  C169  A    
C7    O7    A    
Cu9   Cu11  S    
C171  C179  A    
C183  H39   S    
C71   O55   S    
C169  C177  A    
C181  H37   S    
C41   C153  A    
C184  H40   S    
C100  C108  A    
Cu5   O35   S    
C195  H97   S    
C118  N6    A    
C31   H63   S    
C32   H56   S    
Cu3   O12   S    
C104  C112  A    
C25   H49   S    
C37   C165  S    
C192  H48   S    
C84   C132  A    
C70   O54   S    
C54   O34   A    
C151  C159  A    
C49   O19   A    
Cu3   O10   S    
Cu9   O21   S    
Cu1   O2    S    
C62   O42   A    
Cu11  O47   S    
C53   O25   A    
C7    C176  S    
C145  C157  A    
C36   H68   S    
C129  C137  A    
C19   C163  A    
C194  H91   S    
C82   C128  A    
C17   C161  A    
C198  H101  S    
C207  H127  S    
C58   O38   A    
C14   C22   A    
C69   C79   A    
Cu6   O36   S    
C93   C97   A    
C186  H42   S    
C204  H116  S    
C167  C175  A    
C39   H71   S    
C168  C176  A    
C164  C172  A    
C40   H80   S    
C22   C30   S    
C81   C125  A    
C30   H54   S    
C199  H108  S    
C203  C204  S    
C200  H105  S    
C146  C158  A    
C125  H17   S    
C46   C156  A    
C107  C119  A    
C62   C153  S    
C66   O50   S    
C120  O60   S    
C138  C144  A    
Cu5   O25   S    
C48   C207  S    
Cu7   O43   S    
C96   C100  A    
C10   C186  A    
C121  O61   S    
C134  H26   S    
C98   H10   S    
C131  C139  A    
C102  H14   S    
C173  C181  A    
C14   C190  A    
C135  C141  A    
C77   C87   A    
C129  H21   S    
C31   C39   S    
C135  H27   S    
Cu10  O30   S    
Cu7   O19   S    
Cu2   O8    S    
C60   O32   A    
C197  H103  S    
C50   C142  S    
Cu10  O40   S    
Cu10  O46   S    
C83   N7    S    
C201  H112  S    
C37   H77   S    
C29   H61   S    
C18   C26   S    
C112  C116  A    
C44   C199  S    
C61   C154  S    
C197  C198  S    
C64   C155  S    
C11   C19   A    
Cu10  Cu12  S    
C118  O58   S    
C42   C195  S    
C149  H5    S    
C63   C156  S    
C132  H24   S    
Cu1   O4    S    
C57   O37   A    
C3    C172  S    
C179  C187  A    
C6    C175  S    
C180  H36   S    
C101  C109  A    
C20   C164  A    
C1    C170  S    
C21   C165  A    
C189  H45   S    
C4    O4    A    
C157  N1    S    
C194  H89   S    
C36   H76   S    
C136  C142  A    
C180  C188  A    
C181  C189  A    
C75   C85   A    
C49   C141  S    
C184  C192  A    
C67   C73   A    
C163  C171  A    
C124  N8    A    
C146  H2    S    
C172  C180  A    
C152  H8    S    
Cu4   O14   S    
C97   H9    S    
C81   C127  A    
C105  C117  A    
C35   H75   S    
C119  N5    A    
C145  H1    S    
C99   H11   S    
C14   C58   S    
C111  C123  A    
C85   C115  A    
Cu11  O31   S    
C51   O23   A    
C34   C162  S    
C70   C80   A    
C108  C114  A    
C79   C95   A    
C134  C142  A    
C25   H57   S    
C6    O14   A    
C162  C170  A    
C27   H59   S    
Cu2   O6    S    
C151  H7    S    
C202  H110  S    
Cu8   O44   S    
C47   C151  A    
C48   C152  A    
C207  C208  S    
C138  H30   S    
C9    C53   S    
C42   C146  A    
C76   C86   A    
C178  H34   S    
C11   C55   S    
C198  H100  S    
C150  C160  A    
C78   C88   A    
C38   C166  S    
C1    O9    A    
C61   O43   A    
C15   C59   S    
C140  C144  A    
C56   O28   A    
C202  H111  S    
Cu4   O16   S    
Cu7   O27   S    
C132  C140  A    
C99   C107  A    
C8    O8    A    
C133  C141  A    
C93   H85   S    
C199  C200  S    
C73   C89   A    
C73   C85   A    
C110  C122  A    
C67   O51   S    
C18   C162  A    
C5    O5    A    
C102  C110  A    
C77   C93   A    
C121  N7    A    
C122  N8    A    
C88   C114  A    
C133  H25   S    
C148  H4    S    
Cu6   O42   S    
C131  H23   S    
C41   C145  A    
C206  H119  S    
C28   C36   S    
C29   C37   S    
C140  H32   S    
C64   O48   A    
C31   H55   S    
C203  H118  S    
C43   C153  A    
C62   O44   A    
C103  H15   S    
C152  C160  A    
C54   O26   A    
C92   H84   S    
Cu9   O45   S    
C33   H73   S    
C136  H28   S    
C58   O30   A    
C195  H98   S    
C106  C114  A    
C101  H13   S    
C11   C187  A    
C205  H123  S    
C24   C168  A    
C9    C185  A    
C165  C173  A    
C12   C188  A    
C43   C197  S    
C13   C189  A    
Cu6   O18   S    
C86   C116  A    
C104  H16   S    
Cu3   O9    S    
C37   H69   S    
C26   C34   S    
C39   H79   S    
Cu1   Cu3   S    
C68   N2    A    
C105  C113  A    
C187  H43   S    
C205  C206  S    
C69   N3    A    
C32   H64   S    
C30   H62   S    
C22   C166  A    
C70   N4    A    
C80   C96   A    
Cu12  O24   S    
C127  H19   S    
Cu1   O1    S    
C15   C23   A    
C137  C143  A    
C16   C24   A    
C44   C148  A    
C1    O1    A    
C10   C54   S    
C182  H38   S    
C126  C134  A    
C3    O3    A    
C204  H115  S    
C29   H53   S    
C36   C164  S    
C4    C169  S    
C158  N2    S    
C26   H50   S    
C63   O47   A    
C193  H93   S    
C8    C173  S    
C28   H60   S    
C55   O27   A    
C69   O53   S    
Cu10  O22   S    
C81   N5    S    
Cu8   O28   S    
C191  H47   S    
C208  H124  S    
C206  H121  S    
Cu12  O38   S    
C125  C133  A    
C67   N1    A    
Cu2   Cu4   S    
C208  H126  S    
C148  C158  A    
C205  H122  S    
C74   C86   A    
C147  H3    S    
C149  C159  A    
C120  N6    A    
C68   O52   S    
Cu3   O11   S    
C193  H92   S    
C76   C92   A    
C45   C155  A    
C9    C17   A    
C46   C150  A    
C59   O39   A    
Cu5   O17   S    
C147  C157  A    
C19   C27   S    
C185  H41   S    
C51   O21   A    
C57   O29   A    
Cu11  O37   S    
C33   H65   S    
C28   H52   S    
C35   H67   S    
C183  C191  A    
C46   C203  S    
C126  H18   S    
C26   H58   S    
C5    O13   A    
C65   C75   A    
C8    O16   A    
C65   O49   S    
Cu6   O26   S    
C41   C193  S    
C196  H94   S    
Cu1   O3    S    
C47   C155  A    
Cu12  O48   S    
C122  O62   S    
C196  H95   S    
Cu8   O20   S    
C188  H44   S    
C45   C149  A    
C32   C40   S    
C39   C167  S    
C127  C135  A    
C194  H90   S    
C40   C168  S    
C43   C147  A    
C109  C115  A    
C65   N1    A    
C2    O10   A    
C25   C33   S    
C111  C115  A    
Cu9   O29   S    
C84   N8    S    
Cu11  O23   S    
