data_mof_unit_28090.cif
_audit_creation_date              2012-10-26T19:15:55-0400
_audit_creation_method            fapswitch 2.2
_symmetry_space_group_name_H-M    P1
_symmetry_Int_Tables_number       1
_space_group_crystal_system       triclinic
_cell_length_a                    7.775476
_cell_length_b                    9.096609
_cell_length_c                    17.000712
_cell_angle_alpha                 89.628605
_cell_angle_beta                  93.237103
_cell_angle_gamma                 90.016262
_cell_volume                      1200.52438809

loop_
_atom_site_label
_atom_site_type_symbol
_atom_type_description
_atom_site_fract_x
_atom_site_fract_y
_atom_site_fract_z
_atom_type_partial_charge
C1    C     C_R   0.499972 0.219981 0.500026 0.561196
C2    C     C_R   0.634619 0.502877 0.142848 0.031256
C3    C     C_R   0.512585 0.452000 0.902641 0.242701
C4    C     C_R   0.493175 0.564554 0.098235 0.175935
C5    C     C_R   0.658146 0.401376 0.865770 0.243249
C6    C     C_R   0.346788 0.613840 0.136303 0.244446
C7    C     C_R   0.666258 0.416280 0.782906 0.020929
C8    C     C_R   0.335128 0.588731 0.217578 0.066340
C9    C     C_1   0.499981 0.065358 0.500019 -0.008375
C10   C     C_1   0.500024 0.934642 0.500000 -0.010138
C11   C     C_2   0.801999 0.471584 0.108108 0.677857
C12   C     C_R   0.500030 0.780019 0.499986 0.557018
C13   C     C_2   0.202683 0.542082 0.892660 0.603642
C14   C     C_2   0.814099 0.354836 0.743020 0.581437
C15   C     C_2   0.180079 0.642220 0.255241 0.655659
C16   C     C_R   0.520259 0.494712 0.651759 0.557772
C17   C     C_R   0.479663 0.505223 0.348208 0.549395
C18   C     C_R   0.527175 0.483378 0.738631 -0.067526
C19   C     C_R   0.473081 0.519249 0.261421 -0.084621
C20   C     C_R   0.381436 0.529147 0.776860 -0.178608
C21   C     C_R   0.620190 0.477113 0.223096 -0.177670
C22   C     C_R   0.369388 0.509489 0.857678 0.014641
Cu1   Cu    Cu3+1 0.669080 0.500010 0.500000 1.088060
Cu2   Cu    Cu3+1 0.330920 0.499990 0.500000 1.084318
H1    H     H_    0.727711 0.427524 0.256808 0.203695
H2    H     H_    0.273029 0.576383 0.742708 0.209469
H3    H     H_    0.024114 0.356265 0.114517 0.379569
H4    H     H_    0.978830 0.654883 0.884911 0.375558
H5    H     H_    0.889773 0.316627 0.882730 0.364059
H6    H     H_    0.245084 0.714404 0.042878 0.370953
H7    H     H_    0.036051 0.393594 0.690786 0.340336
H8    H     H_    0.966089 0.592189 0.311367 0.335272
N1    N     N_1   0.076820 0.499970 0.500010 -0.064281
N2    N     N_1   0.923180 0.500030 0.499990 -0.065007
N3    N     N_2   0.515417 0.446793 0.985849 -0.125304
N4    N     N_2   0.491372 0.570118 0.014984 -0.207987
O1    O     O_R   0.642760 0.288400 0.500000 -0.489694
O2    O     O_R   0.912856 0.365266 0.142499 -0.644576
O3    O     O_2   0.161553 0.476161 0.951632 -0.447186
O4    O     O_R   0.089350 0.644603 0.856481 -0.655557
O5    O     O_3   0.789292 0.339432 0.913537 -0.605404
O6    O     O_3   0.210407 0.683391 0.095576 -0.605472
O7    O     O_2   0.824788 0.222055 0.733807 -0.492562
O8    O     O_R   0.941922 0.448595 0.717201 -0.654358
O9    O     O_2   0.149153 0.773955 0.256144 -0.460228
O10   O     O_R   0.066578 0.541941 0.287156 -0.653720
O11   O     O_R   0.357240 0.711600 0.500000 -0.493721
O12   O     O_R   0.357190 0.288380 0.500000 -0.494418
O13   O     O_R   0.642810 0.711620 0.500000 -0.494739
O14   O     O_R   0.658410 0.498660 0.613920 -0.457709
O15   O     O_R   0.341590 0.501340 0.386080 -0.461006
O16   O     O_R   0.372840 0.498650 0.613930 -0.519655
O17   O     O_R   0.627160 0.501350 0.386070 -0.518953
O18   O     O_2   0.845754 0.541702 0.050965 -0.396286

loop_
_geom_bond_atom_site_label_1
_geom_bond_atom_site_label_2
_ccdc_geom_bond_type
Cu2   O16   S    
C11   O2    S    
C2    C4    A    
Cu1   Cu2   S    
C4    N4    S    
C1    O12   A    
Cu1   O17   S    
C19   C21   A    
C1    O1    A    
C9    C10   T    
Cu2   N1    S    
C3    N3    S    
Cu1   O14   S    
C7    C18   A    
C17   O15   A    
Cu2   O15   S    
C12   O13   A    
C3    C5    A    
C1    C9    S    
C11   O18   D    
C20   H2    S    
C2    C21   A    
C12   O11   A    
C6    C8    A    
C2    C11   S    
C10   C12   S    
C16   C18   S    
C17   C19   S    
C16   O14   A    
C13   C22   S    
N1    N2    T    
C8    C15   S    
C18   C20   A    
C13   O3    D    
C8    C19   A    
Cu1   O13   S    
H7    O8    S    
H4    O4    S    
H3    O2    S    
C5    O5    S    
Cu2   O12   S    
C17   O17   A    
Cu1   N2    S    
C14   O8    S    
C4    C6    A    
C6    O6    S    
C5    C7    A    
C15   O9    D    
H6    O6    S    
C3    C22   A    
C21   H1    S    
C15   O10   S    
H5    O5    S    
Cu1   O1    S    
Cu2   O11   S    
H8    O10   S    
C7    C14   S    
C16   O16   A    
C20   C22   A    
C14   O7    D    
C13   O4    S    
N3    N4    D    
