data_mof_unit_52434.cif
_audit_creation_date              2012-12-11T15:43:15-0500
_audit_creation_method            fapswitch 2.2
_symmetry_space_group_name_H-M    P1
_symmetry_Int_Tables_number       1
_space_group_crystal_system       triclinic
_cell_length_a                    19.331535
_cell_length_b                    10.877105
_cell_length_c                    18.737222
_cell_angle_alpha                 90.037282
_cell_angle_beta                  89.715168
_cell_angle_gamma                 90.02052
_cell_volume                      3939.84718933

loop_
_atom_site_label
_atom_site_type_symbol
_atom_type_description
_atom_site_fract_x
_atom_site_fract_y
_atom_site_fract_z
_atom_type_partial_charge
C1    C     C_R   0.710534 0.326271 0.139208 0.562103
C2    C     C_R   0.289489 0.326238 0.860768 0.561439
C3    C     C_R   0.210533 0.826269 0.139208 0.560955
C4    C     C_R   0.789489 0.826238 0.860769 0.560532
C5    C     C_R   0.510528 0.388712 0.926588 -0.100606
C6    C     C_R   0.489502 0.388669 0.073623 -0.100737
C7    C     C_R   0.010527 0.888713 0.926589 -0.100603
C8    C     C_R   0.989499 0.888667 0.073624 -0.100615
C9    C     C_R   0.006126 0.999888 0.963612 -0.161647
C10   C     C_R   0.993927 0.999865 0.036705 -0.162162
C11   C     C_R   0.506127 0.499888 0.963610 -0.161557
C12   C     C_R   0.493928 0.499865 0.036703 -0.162044
C13   C     C_R   0.784301 0.831989 0.939316 0.001515
C14   C     C_R   0.215722 0.832072 0.060655 0.001883
C15   C     C_R   0.284302 0.331989 0.939315 0.001327
C16   C     C_R   0.715722 0.332075 0.060656 0.001591
C17   C     C_R   0.730391 0.777965 0.978493 -0.011116
C18   C     C_R   0.269551 0.777972 0.021388 -0.010900
C19   C     C_R   0.230392 0.277965 0.978492 -0.011171
C20   C     C_R   0.769551 0.277976 0.021390 -0.011154
C21   C     C_R   0.718454 0.811228 0.049658 -0.007510
C22   C     C_R   0.281487 0.811293 0.950252 -0.006968
C23   C     C_R   0.218454 0.311231 0.049655 -0.007922
C24   C     C_R   0.781488 0.311298 0.950255 -0.007154
C25   C     C_R   0.824198 0.925107 0.049415 -0.142501
C26   C     C_R   0.175855 0.925355 0.950656 -0.143301
C27   C     C_R   0.324198 0.425110 0.049412 -0.142757
C28   C     C_R   0.675857 0.425364 0.950660 -0.143300
C29   C     C_R   0.834333 0.896831 0.977626 -0.142721
C30   C     C_R   0.165730 0.897029 0.022422 -0.142374
C31   C     C_R   0.334334 0.396832 0.977624 -0.142582
C32   C     C_R   0.665731 0.397035 0.022424 -0.142271
C33   C     C_3   0.655643 0.780683 0.962060 -0.211432
C34   C     C_3   0.344308 0.780418 0.037780 -0.212230
C35   C     C_3   0.155644 0.280676 0.962057 -0.211256
C36   C     C_3   0.844308 0.280422 0.037784 -0.212099
C37   C     C_3   0.642607 0.817453 0.038940 -0.201881
C38   C     C_3   0.357348 0.817318 0.960940 -0.201140
C39   C     C_3   0.142606 0.317453 0.038936 -0.201885
C40   C     C_3   0.857349 0.317323 0.960945 -0.201209
C41   C     C_R   0.762003 0.894812 0.084216 0.017322
C42   C     C_R   0.237997 0.894970 0.915786 0.016080
C43   C     C_R   0.262002 0.394817 0.084213 0.016807
C44   C     C_R   0.737998 0.394976 0.915789 0.015872
C45   C     C_R   0.530441 0.155166 0.147239 0.553115
C46   C     C_R   0.469558 0.155216 0.852767 0.550673
C47   C     C_R   0.030440 0.655166 0.147240 0.553799
C48   C     C_R   0.969559 0.655216 0.852766 0.551695
C49   C     C_R   0.484147 0.166798 0.570321 -0.007090
C50   C     C_R   0.495636 0.161789 0.420600 0.021687
C51   C     C_R   0.975616 0.665741 0.567265 -0.005537
C52   C     C_R   0.992057 0.658989 0.418981 0.034150
C53   C     C_R   0.486231 0.057952 0.532060 -0.026667
C54   C     C_R   0.487541 0.054018 0.460250 -0.035981
C55   C     C_R   0.979245 0.555144 0.530879 -0.008600
C56   C     C_R   0.985293 0.550295 0.458776 -0.027265
C57   C     C_R   0.481745 0.274490 0.454723 0.170212
C58   C     C_R   0.477939 0.278382 0.531100 0.195593
C59   C     C_R   0.970746 0.769824 0.450656 0.171958
C60   C     C_R   0.964991 0.775248 0.526941 0.188948
C61   C     C_3   0.513144 0.930768 0.542416 0.151668
C62   C     C_3   0.512157 0.922441 0.461162 0.127801
C63   C     C_3   0.019824 0.440676 0.543880 0.148077
C64   C     C_3   0.022602 0.428619 0.463390 0.125907
C65   C     C_R   0.757622 0.901811 0.573043 0.012834
C66   C     C_R   0.240581 0.916693 0.424113 0.011992
C67   C     C_R   0.252440 0.405552 0.575349 0.028531
C68   C     C_R   0.749330 0.438854 0.417977 0.012837
C69   C     C_R   0.803421 0.979324 0.538677 0.068864
C70   C     C_R   0.183941 0.901887 0.469923 0.038366
C71   C     C_R   0.265529 0.520718 0.547141 -0.000511
C72   C     C_R   0.698118 0.500199 0.457377 0.005468
C73   C     C_R   0.801954 0.991372 0.466444 0.012141
C74   C     C_R   0.190469 0.909706 0.542660 0.003759
C75   C     C_R   0.263548 0.537252 0.474699 0.050579
C76   C     C_R   0.702722 0.509015 0.529892 0.014328
C77   C     C_R   0.717138 0.830753 0.456887 -0.107756
C78   C     C_R   0.312463 0.948550 0.526516 -0.151641
C79   C     C_R   0.228380 0.327187 0.456014 -0.142498
C80   C     C_R   0.816012 0.420600 0.526449 -0.165101
C81   C     C_R   0.716671 0.821532 0.531499 -0.139320
C82   C     C_R   0.305831 0.939293 0.452535 -0.195570
C83   C     C_R   0.229881 0.309883 0.529761 -0.138544
C84   C     C_R   0.812186 0.412264 0.451767 -0.169692
C85   C     C_3   0.816323 0.112335 0.551371 -0.270969
C86   C     C_3   0.118227 0.973650 0.470668 -0.268004
C87   C     C_3   0.325746 0.605025 0.556291 -0.267401
C88   C     C_3   0.621365 0.480641 0.462179 -0.243899
C89   C     C_R   0.742377 0.966400 0.148202 0.529215
C90   C     C_R   0.257619 0.966456 0.851796 0.528876
C91   C     C_R   0.242376 0.466403 0.148200 0.527563
C92   C     C_R   0.757620 0.466458 0.851797 0.529061
C93   C     C_3   0.814107 0.126599 0.471205 -0.259230
C94   C     C_3   0.123921 0.978304 0.550839 -0.285250
C95   C     C_3   0.324195 0.621723 0.476179 -0.261909
C96   C     C_3   0.627354 0.492289 0.542215 -0.276077
C97   C     C_R   0.755642 0.924430 0.424571 0.038133
C98   C     C_R   0.254553 0.934873 0.571963 0.007269
C99   C     C_R   0.248748 0.440500 0.428090 0.065045
C100  C     C_R   0.758033 0.458614 0.566465 0.006554
C101  C     C_R   0.729816 0.381945 0.350922 0.544626
C102  C     C_R   0.271313 0.375520 0.647108 0.557249
C103  C     C_R   0.229464 0.881409 0.351124 0.549637
C104  C     C_R   0.771477 0.875533 0.646788 0.556476
C105  C     C_R   0.530485 0.156562 0.352165 0.601817
C106  C     C_R   0.466335 0.157652 0.645355 0.568650
C107  C     C_R   0.030138 0.656179 0.352006 0.614369
C108  C     C_R   0.963108 0.657391 0.643572 0.570881
C109  C     C_R   0.741869 0.970527 0.353735 0.557731
C110  C     C_R   0.260009 0.974656 0.644742 0.539401
C111  C     C_R   0.241569 0.471247 0.353992 0.552900
C112  C     C_R   0.761093 0.479351 0.642767 0.540490
C113  C     C_R   0.499537 0.161432 0.924890 -0.026878
C114  C     C_R   0.500468 0.161369 0.075122 -0.026085
C115  C     C_R   0.999538 0.661432 0.924890 -0.026890
C116  C     C_R   0.000467 0.661369 0.075122 -0.025584
C117  C     C_R   0.502460 0.274874 0.962326 -0.021033
C118  C     C_R   0.497553 0.274846 0.037786 -0.021185
C119  C     C_R   0.002459 0.774874 0.962327 -0.021068
C120  C     C_R   0.997551 0.774845 0.037786 -0.021302
C121  C     C_R   0.496778 0.049708 0.036703 0.213689
C122  C     C_R   0.503246 0.049737 0.963213 0.213368
C123  C     C_R   0.996778 0.549707 0.036703 0.213510
C124  C     C_R   0.003246 0.549737 0.963213 0.213093
Cr1   Cr    Cr6+3 0.772010 0.169670 0.250090 1.026599
Cr2   Cr    Cr6+3 0.227990 0.169670 0.749910 1.021782
Cr3   Cr    Cr6+3 0.272010 0.669670 0.250090 1.027996
Cr4   Cr    Cr6+3 0.727990 0.669670 0.749910 1.024897
Cr5   Cr    Cr6+3 0.615000 0.323260 0.249260 1.033508
Cr6   Cr    Cr6+3 0.385000 0.323260 0.750740 1.041848
Cr7   Cr    Cr6+3 0.115000 0.823260 0.249260 1.036661
Cr8   Cr    Cr6+3 0.885000 0.823260 0.750740 1.045029
Cr9   Cr    Cr6+3 0.616710 0.010760 0.250840 1.053756
Cr10  Cr    Cr6+3 0.383290 0.010760 0.749160 1.080858
Cr11  Cr    Cr6+3 0.116710 0.510760 0.250840 1.059537
Cr12  Cr    Cr6+3 0.883290 0.510760 0.749160 1.081608
H1    H     H_    0.565307 0.928275 0.567427 0.150820
H2    H     H_    0.472999 0.856807 0.439590 0.115304
H3    H     H_    0.070325 0.458248 0.570539 0.156053
H4    H     H_    0.991131 0.351245 0.441424 0.112466
H5    H     H_    0.684898 0.770478 0.425420 0.137219
H6    H     H_    0.361503 0.974936 0.548189 0.203202
H7    H     H_    0.213227 0.252414 0.421209 0.103495
H8    H     H_    0.862237 0.391297 0.552958 0.212929
H9    H     H_    0.684492 0.752582 0.556512 0.143507
H10   H     H_    0.350722 0.948261 0.418171 0.122856
H11   H     H_    0.219080 0.219003 0.550381 0.135599
H12   H     H_    0.854842 0.372351 0.422170 0.128026
H13   H     H_    0.868438 0.129648 0.574104 0.179313
H14   H     H_    0.074789 0.918037 0.451443 0.200797
H15   H     H_    0.373342 0.558353 0.574871 0.195869
H16   H     H_    0.606213 0.386585 0.445559 0.198736
H17   H     H_    0.772734 0.158679 0.579508 0.131630
H18   H     H_    0.123572 0.065271 0.444826 0.134238
H19   H     H_    0.311648 0.689498 0.586323 0.163506
H20   H     H_    0.591656 0.556856 0.437380 0.151971
H21   H     H_    0.768277 0.179147 0.452924 0.163614
H22   H     H_    0.129342 0.073795 0.570947 0.157364
H23   H     H_    0.309163 0.713710 0.459257 0.172909
H24   H     H_    0.602241 0.576487 0.563762 0.142181
H25   H     H_    0.864695 0.153532 0.447459 0.141870
H26   H     H_    0.084638 0.922047 0.579218 0.173504
H27   H     H_    0.370288 0.585731 0.448088 0.133615
H28   H     H_    0.615314 0.405760 0.571337 0.165885
H29   H     H_    0.522540 0.393262 0.870260 0.143237
H30   H     H_    0.477469 0.393192 0.129951 0.145265
H31   H     H_    0.022539 0.893263 0.870261 0.142670
H32   H     H_    0.977466 0.893190 0.129952 0.146561
H33   H     H_    0.011508 0.086139 0.935332 0.158893
H34   H     H_    0.988547 0.086097 0.065062 0.158495
H35   H     H_    0.511509 0.586138 0.935330 0.158920
H36   H     H_    0.488549 0.586099 0.065060 0.158309
H37   H     H_    0.861268 0.984344 0.074809 0.142116
H38   H     H_    0.138812 0.984637 0.925334 0.141648
H39   H     H_    0.361268 0.484347 0.074808 0.141911
H40   H     H_    0.638815 0.484648 0.925338 0.141636
H41   H     H_    0.877589 0.937334 0.950294 0.167149
H42   H     H_    0.122504 0.937559 0.049799 0.167175
H43   H     H_    0.377590 0.437334 0.950293 0.167158
H44   H     H_    0.622506 0.437566 0.049801 0.167177
H45   H     H_    0.134626 0.189046 0.948398 0.151970
H46   H     H_    0.865200 0.188687 0.051286 0.151760
H47   H     H_    0.634624 0.689057 0.948398 0.151976
H48   H     H_    0.365200 0.688684 0.051281 0.151768
H49   H     H_    0.645142 0.854410 0.922850 0.217756
H50   H     H_    0.354928 0.853999 0.077108 0.217353
H51   H     H_    0.145142 0.354400 0.922844 0.218010
H52   H     H_    0.854927 0.354004 0.077112 0.217689
H53   H     H_    0.623304 0.913063 0.044461 0.207636
H54   H     H_    0.376753 0.912893 0.955543 0.206980
H55   H     H_    0.123302 0.413063 0.044453 0.207607
H56   H     H_    0.876753 0.412899 0.955547 0.206917
H57   H     H_    0.614490 0.746269 0.070228 0.180795
H58   H     H_    0.385375 0.746136 0.929537 0.181767
H59   H     H_    0.114489 0.246270 0.070225 0.180683
H60   H     H_    0.885377 0.246142 0.929542 0.181683
O1    O     O_R   0.787520 0.042810 0.170440 -0.531310
O2    O     O_R   0.212480 0.042810 0.829560 -0.532651
O3    O     O_R   0.287520 0.542810 0.170440 -0.532625
O4    O     O_R   0.712480 0.542810 0.829560 -0.532666
O5    O     O_R   0.556610 0.252880 0.323980 -0.458239
O6    O     O_R   0.443390 0.252880 0.676020 -0.444095
O7    O     O_R   0.056610 0.752880 0.323980 -0.459422
O8    O     O_R   0.943390 0.752880 0.676020 -0.447707
O9    O     O_R   0.545950 0.051210 0.330860 -0.493888
O10   O     O_R   0.454050 0.051210 0.669140 -0.479013
O11   O     O_R   0.045950 0.551210 0.330860 -0.489609
O12   O     O_R   0.954050 0.551210 0.669140 -0.478940
O13   O     O_R   0.681390 0.959480 0.325510 -0.482072
O14   O     O_R   0.318610 0.959480 0.674490 -0.488727
O15   O     O_R   0.181390 0.459480 0.325510 -0.481245
O16   O     O_R   0.818610 0.459480 0.674490 -0.495320
O17   O     O_3   0.667900 0.167900 0.250060 -0.288630
O18   O     O_3   0.332100 0.167900 0.749940 -0.296178
O19   O     O_3   0.167900 0.667900 0.250060 -0.286762
O20   O     O_3   0.832100 0.667900 0.749940 -0.296198
O21   O     O_R   0.765640 0.292100 0.175020 -0.492285
O22   O     O_R   0.234360 0.292100 0.824980 -0.490889
O23   O     O_R   0.265640 0.792100 0.175020 -0.493979
O24   O     O_R   0.734360 0.792100 0.824980 -0.492213
O25   O     O_R   0.670190 0.408840 0.168540 -0.518552
O26   O     O_R   0.329810 0.408840 0.831460 -0.518055
O27   O     O_R   0.170190 0.908840 0.168540 -0.520307
O28   O     O_R   0.829810 0.908840 0.831460 -0.519653
O29   O     O_R   0.556620 0.251410 0.175160 -0.540550
O30   O     O_R   0.443380 0.251410 0.824840 -0.544112
O31   O     O_R   0.056620 0.751410 0.175160 -0.540753
O32   O     O_R   0.943380 0.751410 0.824840 -0.544694
O33   O     O_R   0.545960 0.049620 0.170320 -0.446265
O34   O     O_R   0.454040 0.049620 0.829680 -0.441460
O35   O     O_R   0.045960 0.549620 0.170320 -0.446459
O36   O     O_R   0.954040 0.549620 0.829680 -0.440538
O37   O     O_R   0.681390 0.958010 0.176690 -0.498880
O38   O     O_R   0.318610 0.958010 0.823310 -0.494230
O39   O     O_R   0.181390 0.458010 0.176690 -0.499397
O40   O     O_R   0.818610 0.458010 0.823310 -0.494168
O41   O     O_R   0.787510 0.044390 0.330970 -0.513921
O42   O     O_R   0.212490 0.044390 0.669030 -0.526809
O43   O     O_R   0.287510 0.544390 0.330970 -0.519012
O44   O     O_R   0.712490 0.544390 0.669030 -0.516099
O45   O     O_R   0.765630 0.293570 0.323840 -0.504148
O46   O     O_R   0.234370 0.293570 0.676160 -0.507712
O47   O     O_R   0.265630 0.793570 0.323840 -0.498065
O48   O     O_R   0.734370 0.793570 0.676160 -0.510002
O49   O     O_R   0.670190 0.410420 0.329080 -0.511466
O50   O     O_R   0.329810 0.410420 0.670920 -0.488544
O51   O     O_R   0.170190 0.910420 0.329080 -0.510753
O52   O     O_R   0.829810 0.910420 0.670920 -0.470710
Cl1   Cl    Cl    0.484975 0.904581 0.079028 -0.648529
Cl2   Cl    Cl    0.515059 0.904624 0.920772 -0.643898
Cl3   Cl    Cl    0.984975 0.404580 0.079028 -0.647604
Cl4   Cl    Cl    0.015060 0.404625 0.920772 -0.643157
O53   O     O_3   0.474307 0.377665 0.412919 -0.714935
H61   H     H_    0.439069 0.430286 0.435733 0.318558
O54   O     O_3   0.470995 0.387649 0.568119 -0.700855
H62   H     H_    0.483920 0.457377 0.537032 0.314532
O55   O     O_3   0.959207 0.869279 0.406467 -0.715951
H63   H     H_    0.929062 0.928957 0.431084 0.330790
O56   O     O_3   0.952255 0.883942 0.562836 -0.689490
H64   H     H_    0.968129 0.954124 0.533548 0.309137
O57   O     O_3   0.980651 0.347510 0.575920 -0.729866
H65   H     H_    0.011587 0.274886 0.578381 0.315941
O58   O     O_3   0.090783 0.433247 0.439164 -0.691654
H66   H     H_    0.098187 0.354874 0.413147 0.324960
O59   O     O_3   0.464647 0.852332 0.574391 -0.713714
H67   H     H_    0.486296 0.769649 0.574452 0.312781
O60   O     O_3   0.578863 0.908235 0.433831 -0.702862
H68   H     H_    0.575693 0.843164 0.396836 0.323889

loop_
_geom_bond_atom_site_label_1
_geom_bond_atom_site_label_2
_ccdc_geom_bond_type
Cr9   O37   S    
C37   H53   S    
C55   C56   A    
C88   C96   S    
C67   C83   A    
O57   H65   S    
Cr10  O14   S    
C116  C123  A    
Cr1   O45   S    
C88   H16   S    
C14   C18   A    
C85   C93   S    
C66   C82   A    
C102  O50   A    
C73   C93   S    
C78   C98   A    
C108  O12   A    
C101  O49   A    
C6    H30   S    
Cr6   O50   S    
C64   O58   S    
Cr3   O23   S    
O58   H66   S    
C12   H36   S    
C22   C42   A    
C53   C54   A    
C15   C19   A    
Cr3   O19   S    
Cr12  O36   S    
O56   H64   S    
C8    C120  A    
C50   C54   A    
C17   C33   S    
C95   H23   S    
Cr3   O43   S    
C112  O16   A    
C60   O56   S    
C13   C29   A    
C69   C73   A    
C111  O15   A    
C5    C11   A    
Cr1   O21   S    
Cr7   O27   S    
C78   H6    S    
C6    C12   A    
O53   H61   S    
C48   O32   A    
C96   H28   S    
Cr10  O10   S    
C47   O35   A    
C26   H38   S    
C37   H57   S    
Cr9   O9    S    
C64   H4    S    
C22   C38   S    
C91   O39   A    
Cr9   O13   S    
C2    O26   A    
C97   C109  S    
C90   O38   A    
C28   C44   A    
C1    O25   A    
O55   H63   S    
C1    C16   S    
C89   O37   A    
C4    C13   S    
C34   H50   S    
C74   C94   S    
C7    H31   S    
C86   C94   S    
C82   H10   S    
Cr12  O16   S    
C114  C121  A    
C53   C61   S    
C45   C114  S    
C79   H7    S    
C113  C122  A    
C20   C24   A    
C52   C107  S    
C51   C108  S    
C104  O52   A    
C55   C63   S    
Cr11  O15   S    
C70   C74   A    
C50   C105  S    
Cr1   O17   S    
C121  Cl1   S    
C56   C64   S    
C34   H48   S    
C92   O4    A    
Cr8   O20   S    
C80   H8    S    
C5    H29   S    
Cr8   O28   S    
Cr7   O7    S    
C9    C10   A    
Cr4   O24   S    
C107  O11   A    
C44   C92   S    
C72   C76   A    
C35   H45   S    
C91   O3    A    
Cr2   O2    S    
C71   C87   S    
Cr1   O1    S    
C59   C60   A    
C94   H22   S    
C87   H15   S    
C80   C100  A    
Cr5   O17   S    
C46   O34   A    
Cr2   O18   S    
C107  O7    A    
C110  O14   A    
C45   O33   A    
C98   C110  S    
C14   C30   A    
C109  O13   A    
C63   O57   S    
C28   C32   A    
C72   C88   S    
C85   H13   S    
C67   C102  S    
C84   H12   S    
C25   C29   A    
C47   C116  S    
C93   H21   S    
C38   H54   S    
Cr11  O19   S    
Cr8   O8    S    
C45   O29   A    
C8    H32   S    
C75   C95   S    
C80   C84   A    
C68   C84   A    
C7    C119  A    
C76   C100  A    
C123  C124  A    
Cr6   O26   S    
Cr3   O47   S    
C68   C101  S    
C39   H59   S    
Cr5   O25   S    
C21   C41   A    
C27   H39   S    
Cr12  O12   S    
C5    C117  A    
C19   C23   A    
Cr8   O52   S    
Cr5   O49   S    
C54   C62   S    
C51   C55   A    
C4    O24   A    
C4    O28   A    
C27   C31   A    
C15   C31   A    
C92   O40   A    
C43   C91   S    
C49   C58   A    
C116  C120  A    
C31   H43   S    
C68   C72   A    
C42   C90   S    
C34   C38   S    
C9    H33   S    
Cr2   O46   S    
Cr11  O11   S    
C73   C97   A    
Cr4   O4    S    
Cr7   O19   S    
C123  Cl3   S    
C52   C59   A    
C95   H27   S    
C62   O60   S    
C106  O6    A    
Cr10  O38   S    
C39   H55   S    
C78   C82   A    
C105  O5    A    
C40   H56   S    
C36   C40   S    
C16   C20   A    
C99   C111  S    
C75   C99   A    
C30   H42   S    
C47   O31   A    
C58   O54   S    
C108  O8    A    
Cr7   O31   S    
C85   H17   S    
C70   C86   S    
C62   H2    S    
C119  C120  A    
C77   C97   A    
C2    C15   S    
C18   C34   S    
C86   H14   S    
C61   O59   S    
C121  C122  A    
C114  C118  A    
C3    C14   S    
Cr7   O51   S    
Cr4   O20   S    
C48   C115  S    
C102  O46   A    
C48   O36   A    
C8    C10   A    
C101  O45   A    
C96   H24   S    
C112  O44   A    
C93   H25   S    
C100  C112  S    
C81   H9    S    
C24   C44   A    
C83   H11   S    
C36   H46   S    
C25   C41   A    
O54   H62   S    
Cr2   O42   S    
C35   H51   S    
C88   H20   S    
C11   H35   S    
Cr1   O41   S    
C26   C42   A    
Cr4   O48   S    
C40   H60   S    
O59   H67   S    
C113  C117  A    
C79   C99   A    
C7    C9    A    
C27   C43   A    
C94   H26   S    
C87   C95   S    
C3    O27   A    
C115  C124  A    
C74   C98   A    
C46   C113  S    
C111  O43   A    
C41   C89   S    
C18   C22   A    
C50   C57   A    
C63   H3    S    
C66   C103  S    
C69   C85   S    
C28   H40   S    
C71   C75   A    
Cr11  O39   S    
Cr6   O6    S    
C106  O10   A    
C1    O21   A    
C11   C12   A    
C110  O42   A    
C105  O9    A    
C49   C106  S    
C90   O2    A    
C87   H19   S    
C109  O41   A    
C16   C32   A    
C89   O1    A    
C10   H34   S    
C115  C119  A    
C103  O47   A    
Cr10  O18   S    
C13   C17   A    
O60   H68   S    
Cr9   O17   S    
Cr3   O3    S    
C46   O30   A    
Cr8   O32   S    
C86   H18   S    
Cr5   O5    S    
C124  Cl4   S    
Cr4   O44   S    
C19   C35   S    
C117  C118  A    
C76   C96   S    
C79   C83   A    
Cr11  O35   S    
C61   H1    S    
C33   H47   S    
C66   C70   A    
C52   C56   A    
C65   C69   A    
C35   C39   S    
Cr12  O40   S    
C104  O48   A    
C24   C40   S    
C103  O51   A    
C33   C37   S    
Cr6   O18   S    
C67   C71   A    
Cr10  O34   S    
C25   H37   S    
C57   O53   S    
C61   C62   S    
Cr9   O33   S    
C49   C53   A    
C63   C64   S    
C20   C36   S    
C38   H58   S    
C21   C37   S    
Cr6   O30   S    
C77   H5    S    
C3    O23   A    
C77   C81   A    
Cr5   O29   S    
C122  Cl2   S    
C2    O22   A    
C65   C81   A    
C32   H44   S    
C33   H49   S    
C51   C60   A    
C59   O55   S    
C65   C104  S    
C36   H52   S    
C57   C58   A    
C23   C43   A    
C23   C39   S    
Cr2   O22   S    
C29   H41   S    
C6    C118  A    
Cr12  O20   S    
C26   C30   A    
C17   C21   A    
