data_mof_unit_55994.cif
_audit_creation_date              2013-03-05T16:45:57-0500
_audit_creation_method            fapswitch 2.2
_symmetry_space_group_name_H-M    P1
_symmetry_Int_Tables_number       1
_space_group_crystal_system       triclinic
_cell_length_a                    9.93391
_cell_length_b                    10.564739
_cell_length_c                    16.494635
_cell_angle_alpha                 87.404254
_cell_angle_beta                  97.496582
_cell_angle_gamma                 89.981285
_cell_volume                      1714.50687005

loop_
_atom_site_label
_atom_site_type_symbol
_atom_site_description
_atom_site_fract_x
_atom_site_fract_y
_atom_site_fract_z
_atom_type_partial_charge
O1    O     O_R   0.614690 0.316790 0.499990 -0.624605
O2    O     O_R   0.385350 0.316760 0.500000 -0.605211
C1    C     C_R   0.497589 0.261877 0.488894 0.934659
O3    O     O_R   0.627460 0.498860 0.616130 -0.502139
O4    O     O_R   0.398120 0.498820 0.616130 -0.640361
C2    C     C_R   0.519301 0.513544 0.653283 0.950463
Zn1   Zn    Zn3+2 0.653130 0.500020 0.499990 1.026160
Zn2   Zn    Zn3+2 0.346870 0.499980 0.500010 0.961505
O5    O     O_R   0.614650 0.683240 0.500000 -0.602080
O6    O     O_R   0.385310 0.683210 0.500010 -0.633719
O7    O     O_R   0.601880 0.501180 0.383870 -0.654208
O8    O     O_R   0.372540 0.501140 0.383870 -0.620342
C3    C     C_R   0.498746 0.741045 0.495445 0.887717
C4    C     C_R   0.478812 0.505755 0.345616 0.839894
C5    C     C_R   0.525860 0.564960 0.735908 -0.189937
C6    C     C_R   0.406699 0.618935 0.758377 -0.256413
C7    C     C_R   0.401485 0.655647 0.837773 -0.133746
C8    C     C_R   0.518431 0.645635 0.895033 0.257734
C9    C     C_R   0.640441 0.608611 0.870597 -0.200100
C10   C     C_R   0.644845 0.568202 0.791768 0.327680
C11   C     C_R   0.540183 0.640023 0.141026 -0.198855
C12   C     C_R   0.559605 0.603083 0.223111 -0.235903
C13   C     C_R   0.419706 0.608142 0.090773 0.226770
N1    N     N_2   0.516469 0.659291 0.979249 -0.175838
N2    N     N_2   0.410592 0.619157 0.004115 -0.128902
C14   C     C_R   0.459133 0.535373 0.257715 -0.076189
H1    H     H_    0.653376 0.628737 0.259734 0.173015
H2    H     H_    0.622406 0.689717 0.116583 0.185086
H3    H     H_    0.731854 0.605400 0.914469 0.193818
C15   C     C_R   0.335848 0.509198 0.209916 -0.287278
C16   C     C_R   0.314684 0.545535 0.126325 0.305653
H4    H     H_    0.256227 0.460592 0.237770 0.193194
H5    H     H_    0.306573 0.689443 0.854790 0.193148
H6    H     H_    0.316582 0.632928 0.714524 0.199065
C17   C     C_R   0.599899 0.068792 0.439077 -0.054436
C18   C     C_R   0.488776 0.134609 0.460612 -0.142996
C19   C     C_R   0.365185 0.069991 0.458389 -0.101293
H7    H     H_    0.270947 0.120027 0.458924 0.217048
C20   C     C_R   0.366488 0.938634 0.466626 -0.134123
H8    H     H_    0.272520 0.890143 0.474046 0.187084
C21   C     C_R   0.491491 0.873997 0.473870 -0.064465
C22   C     C_R   0.603158 0.939574 0.450720 -0.051679
C23   C     C_3   0.752504 0.936535 0.478504 0.112157
C24   C     C_3   0.750990 0.079373 0.459681 0.285140
H9    H     H_    0.811288 0.882574 0.438719 0.121565
H10   H     H_    0.785871 0.136658 0.512690 0.183849
C25   C     C_R   0.076660 0.391004 0.519748 0.044375
N3    N     N_R   0.142860 0.499130 0.500540 -0.115921
C26   C     C_R   0.064483 0.600227 0.467636 -0.061675
H11   H     H_    0.112415 0.682579 0.442877 0.140893
C27   C     C_R   0.920625 0.598403 0.465458 -0.036708
H12   H     H_    0.860726 0.677116 0.436885 0.122929
N4    N     N_R   0.857210 0.499170 0.500530 -0.096670
C28   C     C_R   0.937890 0.396568 0.530527 0.046066
C29   C     C_3   0.977832 0.343081 0.618687 0.574066
C30   C     C_3   0.118014 0.309871 0.593921 -0.092507
H13   H     H_    0.211285 0.344258 0.629368 0.149935
N5    N     N_R   0.786128 0.902959 0.565957 0.241901
O9    O     O_R   0.716983 0.949359 0.619702 -0.309880
O10   O     O_R   0.887164 0.826339 0.590569 -0.298468
O11   O     O_3   0.818057 0.105994 0.390131 -0.624726
C31   C     C_3   0.788190 0.229889 0.357089 0.115155
H14   H     H_    0.787267 0.299095 0.405367 0.162620
H15   H     H_    0.687334 0.231125 0.318716 0.146850
C32   C     C_3   0.897157 0.270605 0.304095 -0.312548
H16   H     H_    0.997567 0.271419 0.342831 0.234653
H17   H     H_    0.901987 0.201602 0.255607 0.247578
C33   C     C_3   0.867416 0.402352 0.263987 -0.905335
H18   H     H_    0.770442 0.402048 0.221941 0.276099
H19   H     H_    0.950563 0.430781 0.228188 0.299749
H20   H     H_    0.860524 0.472839 0.311241 0.252193
O12   O     O_3   0.978695 0.440914 0.675253 -0.567226
C34   C     C_3   0.088189 0.436879 0.740692 0.157477
H21   H     H_    0.068605 0.511380 0.783029 0.241383
H22   H     H_    0.183407 0.468018 0.719118 0.091266
C35   C     C_3   0.108222 0.309604 0.790482 -0.356900
H23   H     H_    0.009756 0.273358 0.806315 0.308589
H24   H     H_    0.152637 0.237923 0.754564 0.247744
C36   C     C_3   0.205137 0.324115 0.869264 -0.821513
H25   H     H_    0.161913 0.390851 0.909232 0.312411
H26   H     H_    0.304927 0.360073 0.855035 0.257217
H27   H     H_    0.220979 0.230733 0.902864 0.281143
N6    N     N_R   0.892126 0.237187 0.641083 0.195483
O13   O     O_R   0.766042 0.260083 0.648951 -0.324605
O14   O     O_R   0.945445 0.130407 0.672218 -0.311972
N7    N     N_R   0.133887 0.177167 0.574615 0.227382
O15   O     O_R   0.052158 0.125453 0.517453 -0.401033
O16   O     O_R   0.226705 0.107538 0.618506 -0.347690
N8    N     N_R   0.771870 0.533181 0.770013 0.233866
O17   O     O_R   0.835953 0.617332 0.729849 -0.292796
O18   O     O_R   0.839625 0.444082 0.814544 -0.390654
N9    N     N_R   0.188331 0.515485 0.077921 0.202081
O19   O     O_R   0.112989 0.423951 0.101831 -0.405987
O20   O     O_R   0.142666 0.585115 0.013045 -0.383877

loop_
_geom_bond_atom_site_label_1
_geom_bond_atom_site_label_2
_geom_bond_distance
_ccdc_geom_bond_type
C29   C30   1.546049 S    
C16   N9    1.440638 S    
C34   H21   1.109114 S    
C17   C18   1.397298 A    
C35   C36   1.526673 S    
C3    C21   1.432740 S    
C20   C21   1.405676 A    
N4    C28   1.381854 A    
Zn1   O7    1.916080 S    
C19   H7    1.076178 S    
N6    O13   1.299687 A    
C8    N1    1.405723 S    
C18   C19   1.402070 A    
C35   H24   1.108057 S    
C15   C16   1.403227 A    
O7    C4    1.300390 A    
N7    O16   1.300989 A    
N5    O10   1.300309 A    
C5    C6    1.413132 A    
C30   H13   1.100189 S    
C8    C9    1.387781 A    
C21   C22   1.394051 A    
C26   H11   1.081334 S    
C17   C22   1.369726 A    
O5    C3    1.295024 A    
C31   H15   1.112818 S    
C23   N5    1.464946 S    
C6    H6    1.080621 S    
C2    C5    1.483449 S    
C9    C10   1.392822 A    
C6    C7    1.389926 A    
C26   C27   1.424992 A    
N8    O18   1.298683 A    
C29   O12   1.422753 S    
C11   C12   1.380832 A    
C34   H22   1.098629 S    
C7    H5    1.083107 S    
O3    Zn1   1.964784 S    
C24   H10   1.104474 S    
C5    C10   1.402121 A    
C27   H12   1.076435 S    
N1    N2    1.245519 D    
O3    C2    1.316949 A    
C20   H8    1.083161 S    
C36   H26   1.111297 S    
N7    O15   1.301482 A    
C33   H18   1.111243 S    
C32   H17   1.111840 S    
N5    O9    1.302329 A    
C4    C14   1.457137 S    
O1    C1    1.295280 A    
C13   C16   1.412357 A    
C23   C24   1.526491 S    
Zn2   N3    2.027797 S    
C31   H14   1.106084 S    
C36   H27   1.110331 S    
C30   N7    1.464657 S    
C25   N3    1.363758 A    
Zn2   O8    1.964784 S    
C32   C33   1.525648 S    
N9    O20   1.301482 A    
C7    C8    1.399082 A    
C35   H23   1.108816 S    
C17   C24   1.500413 S    
C23   H9    1.109198 S    
C25   C28   1.414307 A    
Zn2   O6    1.973203 S    
N3    C26   1.370477 A    
N6    O14   1.301181 A    
C11   H2    1.082759 S    
O8    C4    1.298485 A    
C14   C15   1.402137 A    
C12   H1    1.083628 S    
C11   C13   1.414058 A    
C34   C35   1.542492 S    
C22   C23   1.494424 S    
Zn1   N4    2.026185 S    
C29   N6    1.469080 S    
C9    H3    1.084309 S    
Zn1   O5    1.972943 S    
C28   C29   1.538239 S    
C31   C32   1.527741 S    
O1    Zn1   1.973204 S    
O2    Zn2   1.972943 S    
O12   C34   1.428090 S    
O6    C3    1.291214 A    
O4    Zn2   1.916080 S    
C24   O11   1.417512 S    
C10   N8    1.409893 S    
O2    C1    1.294377 A    
C19   C20   1.388134 A    
C15   H4    1.083561 S    
O4    C2    1.290406 A    
C1    C18   1.441995 S    
C33   H20   1.110509 S    
N9    O19   1.301463 A    
C13   N2    1.419890 S    
O11   C31   1.411128 S    
C36   H25   1.109885 S    
C33   H19   1.110174 S    
C32   H16   1.112415 S    
C12   C14   1.394914 A    
C27   N4    1.367916 A    
N8    O17   1.300601 A    
C25   C30   1.474437 S    
