data_mof_unit_39720.cif
_audit_creation_date              2012-12-10T18:18:27-0500
_audit_creation_method            fapswitch 2.2
_symmetry_space_group_name_H-M    P1
_symmetry_Int_Tables_number       1
_space_group_crystal_system       triclinic
_cell_length_a                    14.103293
_cell_length_b                    14.894613
_cell_length_c                    15.468438
_cell_angle_alpha                 89.231494
_cell_angle_beta                  67.325609
_cell_angle_gamma                 88.342459
_cell_volume                      2996.94381817

loop_
_atom_site_label
_atom_site_type_symbol
_atom_type_description
_atom_site_fract_x
_atom_site_fract_y
_atom_site_fract_z
_atom_type_partial_charge
C1    C     C_R   0.498123 0.672879 0.501168 0.928279
C2    C     C_R   0.494049 0.768211 0.501935 -0.149644
C3    C     C_R   0.559735 0.185910 0.415522 0.432725
C4    C     C_R   0.441383 0.813938 0.585937 0.432077
C5    C     C_R   0.551987 0.092699 0.414624 -0.035795
C6    C     C_R   0.443694 0.907670 0.585838 -0.029910
C7    C     C_R   0.498430 0.047010 0.499652 -0.040114
C8    C     C_R   0.494770 0.953462 0.500232 -0.042449
C9    C     C_R   0.448470 0.095052 0.584054 0.038621
C10   C     C_R   0.543384 0.905613 0.415393 0.041572
C11   C     C_R   0.595676 0.044836 0.330578 -0.300100
C12   C     C_R   0.501739 0.327182 0.498945 0.944281
C13   C     C_R   0.397206 0.956122 0.669516 -0.297172
C14   C     C_R   0.593074 0.951493 0.330470 0.464568
C15   C     C_R   0.396983 0.049593 0.668752 0.462317
C16   C     C_R   0.435416 0.499119 0.676432 0.909824
C17   C     C_R   0.564739 0.499022 0.323568 0.888619
C18   C     C_R   0.192149 0.424842 0.527471 -0.171365
C19   C     C_R   0.806790 0.575878 0.475253 -0.162859
C20   C     C_R   0.212542 0.574228 0.468288 0.521153
C21   C     C_R   0.788113 0.424763 0.529756 0.523073
C22   C     C_R   0.109501 0.577665 0.473293 -0.099625
C23   C     C_R   0.403334 0.404705 0.092446 -0.316460
C24   C     C_R   0.890181 0.422216 0.527427 -0.098185
C25   C     C_R   0.050079 0.500331 0.500990 0.061076
C26   C     C_R   0.948638 0.500279 0.502058 0.059169
C27   C     C_R   0.092468 0.422667 0.526467 0.005819
C28   C     C_R   0.906363 0.577978 0.476435 0.008736
C29   C     C_R   0.064900 0.655780 0.450526 -0.193471
C30   C     C_R   0.935508 0.343841 0.548928 -0.201443
C31   C     C_R   0.964958 0.655685 0.451479 -0.201926
C32   C     C_R   0.034647 0.344509 0.549776 -0.208724
C33   C     C_R   0.395654 0.485667 0.778028 -0.161580
C34   C     C_R   0.626846 0.488511 0.891155 -0.322051
C35   C     C_R   0.606797 0.492140 0.221242 -0.157256
C36   C     C_R   0.278614 0.416984 0.920570 -0.316080
C37   C     C_R   0.742317 0.504990 0.067190 -0.277606
C38   C     C_R   0.300546 0.446682 0.828534 0.454912
C39   C     C_R   0.709347 0.511720 0.164627 0.425188
C40   C     C_R   0.462779 0.501455 0.821945 -0.304126
C41   C     C_R   0.539929 0.465894 0.179915 -0.276478
C42   C     C_R   0.446598 0.465563 0.910069 0.060373
C43   C     C_R   0.570305 0.462854 0.082897 0.054579
C44   C     C_R   0.350997 0.425896 0.961835 0.003067
C45   C     C_R   0.330187 0.395110 0.053288 0.472875
C46   C     C_R   0.672449 0.485531 0.025843 -0.004132
C47   C     C_R   0.523970 0.467672 0.947055 0.022291
C48   C     C_R   0.498877 0.444549 0.041831 0.008227
C49   C     C_3   0.165884 0.412468 0.158922 0.055773
C50   C     C_3   0.071235 0.361491 0.221392 -0.330977
C51   C     C_3   0.979883 0.425242 0.269402 -0.925805
C52   C     C_3   0.847175 0.433401 0.811611 0.077179
C53   C     C_3   0.877225 0.356749 0.864148 -0.361453
C54   C     C_3   0.942692 0.284403 0.796928 -0.952009
C55   C     C_3   0.313441 0.641445 0.332016 0.098142
C56   C     C_R   0.702229 0.490571 0.928637 0.494575
C57   C     C_3   0.405660 0.701497 0.289896 -0.753835
C58   C     C_3   0.686521 0.348285 0.659650 0.085648
C59   C     C_3   0.594272 0.287755 0.695801 -0.732747
C60   C     C_3   0.794882 0.626933 0.194405 0.115925
C61   C     C_3   0.888282 0.648411 0.215886 -0.862497
C62   C     C_3   0.140604 0.483906 0.831777 0.089319
C63   C     C_3   0.102782 0.521727 0.758806 -0.797658
C64   C     C_3   0.719129 0.231849 0.322378 0.075033
C65   C     C_3   0.781045 0.279501 0.231418 -0.797846
C66   C     C_3   0.291582 0.757224 0.689315 0.085338
C67   C     C_R   0.449800 0.188014 0.581781 -0.329390
C68   C     C_3   0.239610 0.723203 0.789225 -0.844794
C69   C     C_3   0.739619 0.896388 0.216936 0.068876
C70   C     C_3   0.784279 0.861532 0.116899 -0.818790
C71   C     C_3   0.246891 0.108060 0.773796 0.066323
C72   C     C_3   0.201892 0.173797 0.854784 -0.771952
C73   C     C_R   0.542916 0.812615 0.417565 -0.326559
C74   C     C_R   0.504744 0.231972 0.498596 -0.159801
H1    H     H_    0.223750 0.366148 0.549790 0.178875
H2    H     H_    0.821631 0.519215 0.024284 0.186750
H3    H     H_    0.384896 0.376530 0.161513 0.170303
H4    H     H_    0.652642 0.500503 0.817038 0.140815
H5    H     H_    0.408623 0.226960 0.644525 0.196417
H6    H     H_    0.581679 0.773991 0.354131 0.171985
H7    H     H_    0.632113 0.079403 0.264350 0.203251
H8    H     H_    0.360405 0.922067 0.735959 0.201277
H9    H     H_    0.143571 0.460108 0.113435 0.137141
H10   H     H_    0.194367 0.451272 0.204890 0.127030
H11   H     H_    0.049944 0.312881 0.178419 0.228938
H12   H     H_    0.774524 0.635146 0.454611 0.166034
H13   H     H_    0.089605 0.323349 0.275495 0.229128
H14   H     H_    0.002054 0.479655 0.305601 0.267168
H15   H     H_    0.915911 0.387766 0.321562 0.269714
H16   H     H_    0.952760 0.455198 0.216713 0.299396
H17   H     H_    0.916575 0.456731 0.753128 0.182335
H18   H     H_    0.796573 0.408140 0.777909 0.108910
H19   H     H_    0.920608 0.383705 0.904113 0.223843
H20   H     H_    0.806585 0.325777 0.914866 0.214406
H21   H     H_    0.901467 0.258022 0.754619 0.261138
H22   H     H_    0.958754 0.228112 0.837468 0.260645
H23   H     H_    0.106896 0.717496 0.432095 0.171531
H24   H     H_    0.017041 0.312137 0.749455 0.270778
H25   H     H_    0.253446 0.665825 0.306767 0.120669
H26   H     H_    0.337733 0.572064 0.304955 0.136739
H27   H     H_    0.469401 0.676392 0.309573 0.237149
H28   H     H_    0.432614 0.701270 0.212309 0.202465
H29   H     H_    0.384265 0.771401 0.315597 0.259798
H30   H     H_    0.661177 0.415904 0.690998 0.140128
H31   H     H_    0.744794 0.319813 0.684771 0.116979
H32   H     H_    0.615085 0.220461 0.662726 0.254330
H33   H     H_    0.568217 0.280120 0.772977 0.209958
H34   H     H_    0.895076 0.281288 0.564534 0.169493
H35   H     H_    0.529998 0.317967 0.680091 0.239842
H36   H     H_    0.726491 0.663818 0.244655 0.140070
H37   H     H_    0.810245 0.651346 0.121960 0.133087
H38   H     H_    0.878642 0.622712 0.286198 0.265760
H39   H     H_    0.958472 0.616700 0.162841 0.245873
H40   H     H_    0.898048 0.722172 0.214151 0.204606
H41   H     H_    0.149305 0.541719 0.873190 0.121293
H42   H     H_    0.081798 0.439280 0.880195 0.148477
H43   H     H_    0.029409 0.560115 0.793679 0.223627
H44   H     H_    0.160619 0.567152 0.710312 0.256168
H45   H     H_    0.933628 0.716481 0.432306 0.140863
H46   H     H_    0.090756 0.466068 0.717690 0.252149
H47   H     H_    0.750793 0.161927 0.318129 0.127220
H48   H     H_    0.729559 0.267179 0.380962 0.190173
H49   H     H_    0.757313 0.351396 0.236457 0.286784
H50   H     H_    0.864097 0.274160 0.218226 0.205530
H51   H     H_    0.768379 0.248511 0.171962 0.253298
H52   H     H_    0.280101 0.707806 0.641266 0.182478
H53   H     H_    0.253121 0.822197 0.683558 0.128933
H54   H     H_    0.247457 0.772709 0.838961 0.255816
H55   H     H_    0.156667 0.713426 0.805845 0.209185
H56   H     H_    0.066488 0.283427 0.567830 0.145760
H57   H     H_    0.275929 0.658305 0.797478 0.261546
H58   H     H_    0.758908 0.847218 0.262880 0.134821
H59   H     H_    0.776390 0.961440 0.217967 0.133716
H60   H     H_    0.773223 0.913000 0.068771 0.260279
H61   H     H_    0.867777 0.846367 0.095408 0.202452
H62   H     H_    0.745043 0.799566 0.111600 0.250749
H63   H     H_    0.207529 0.042929 0.795155 0.140365
H64   H     H_    0.231411 0.136363 0.713203 0.137663
H65   H     H_    0.239098 0.239750 0.834480 0.272709
H66   H     H_    0.118016 0.183282 0.873159 0.197829
H67   H     H_    0.461603 0.452898 0.224946 0.168012
H68   H     H_    0.214715 0.147618 0.917078 0.262610
H69   H     H_    0.529231 0.540822 0.784449 0.180274
H70   H     H_    0.206211 0.384844 0.958154 0.179586
N1    N     N_R   0.249980 0.499930 0.499960 -0.135271
N2    N     N_R   0.750020 0.500070 0.500040 -0.127454
O1    O     O_R   0.419720 0.632140 0.499980 -0.575117
O2    O     O_3   0.803263 0.507691 0.871343 -0.661856
O3    O     O_3   0.276392 0.645522 0.431030 -0.599612
O4    O     O_3   0.726634 0.350845 0.560523 -0.606272
O5    O     O_3   0.778813 0.533516 0.203787 -0.612934
O6    O     O_3   0.232306 0.433066 0.785804 -0.607440
O7    O     O_3   0.614457 0.233042 0.334546 -0.624931
O8    O     O_3   0.397472 0.766529 0.668959 -0.625401
O9    O     O_3   0.631914 0.906079 0.246100 -0.605897
O10   O     O_3   0.353264 0.096205 0.752167 -0.604579
O11   O     O_R   0.580280 0.367860 0.500020 -0.565443
O12   O     O_R   0.580270 0.632160 0.499970 -0.631227
O13   O     O_R   0.419730 0.367840 0.500030 -0.627529
O14   O     O_R   0.373870 0.499980 0.632250 -0.567919
O15   O     O_R   0.626130 0.500020 0.367750 -0.567024
O16   O     O_R   0.534420 0.500000 0.632240 -0.624428
O17   O     O_R   0.465580 0.500000 0.367760 -0.623045
O18   O     O_3   0.241191 0.350001 0.103314 -0.637594
Zn1   Zn    Zn3+2 0.392800 0.499980 0.500010 0.984596
Zn2   Zn    Zn3+2 0.607200 0.500020 0.499990 0.990370

loop_
_geom_bond_atom_site_label_1
_geom_bond_atom_site_label_2
_ccdc_geom_bond_type
C66   C68   S    
C34   C56   A    
C18   H1    S    
C23   C45   A    
C22   C29   A    
C12   C74   S    
C14   O9    S    
C16   O14   A    
C4    O8    S    
C18   N1    A    
C32   H56   S    
C7    C8    A    
C71   H63   S    
N1    Zn1   S    
C53   C54   S    
C11   H7    S    
C72   H68   S    
C57   H28   S    
C69   O9    S    
C62   O6    S    
C49   H10   S    
C1    O12   A    
O17   Zn1   S    
C45   O18   S    
C24   C26   A    
C5    C11   A    
C51   H16   S    
C63   H43   S    
C11   C14   A    
C71   O10   S    
C64   H47   S    
C39   O5    S    
C3    O7    S    
C66   H53   S    
C1    C2    S    
C65   H50   S    
C3    C74   A    
C49   O18   S    
O1    Zn1   S    
C50   H11   S    
C59   H35   S    
O16   Zn2   S    
C72   H65   S    
C22   C25   A    
C55   H26   S    
C53   H20   S    
C12   O11   A    
C17   O17   A    
C43   C48   A    
C68   H54   S    
C54   H22   S    
O15   Zn2   S    
C36   C44   A    
C19   H12   S    
C40   C42   A    
N2    Zn2   S    
C52   O2    S    
C70   H62   S    
C41   C43   A    
C68   H55   S    
C42   C44   A    
C38   O6    S    
C25   C26   A    
C55   O3    S    
C71   H64   S    
C57   H29   S    
C19   N2    A    
C53   H19   S    
C33   C40   A    
C67   H5    S    
C4    C6    A    
C10   C14   A    
C66   O8    S    
C63   H44   S    
C6    C8    A    
C16   O16   A    
C58   C59   S    
C21   O4    S    
C13   H8    S    
C59   H33   S    
C66   H52   S    
C60   C61   S    
C60   O5    S    
C65   H51   S    
C56   O2    S    
C68   H57   S    
C35   C39   A    
C9    C67   A    
C41   H67   S    
C62   C63   S    
C16   C33   S    
C47   C48   A    
C72   H66   S    
C50   C51   S    
C15   O10   S    
C67   C74   A    
O14   Zn1   S    
C23   H3    S    
C19   C28   A    
C31   H45   S    
C54   H21   S    
C2    C73   A    
C17   O15   A    
C50   H13   S    
C8    C10   A    
C37   H2    S    
C20   C22   A    
C55   C57   S    
C61   H39   S    
C70   H61   S    
C1    O1    A    
C58   H30   S    
C20   O3    S    
C21   C24   A    
C46   C56   A    
C44   C45   A    
O12   Zn2   S    
C5    C7    A    
C51   H14   S    
C7    C9    A    
C69   H59   S    
C23   C48   A    
C30   H34   S    
C27   C32   A    
C28   C31   A    
C18   C27   A    
C3    C5    A    
O11   Zn2   S    
C25   C27   A    
C57   H27   S    
C26   C28   A    
C33   C38   A    
C29   H23   S    
C58   H31   S    
C64   C65   S    
C49   H9    S    
C13   C15   A    
C9    C15   A    
C62   H41   S    
C29   C31   A    
C60   H37   S    
C34   H4    S    
C6    C13   A    
C30   C32   A    
C63   H46   S    
C59   H32   S    
C69   H58   S    
C64   H48   S    
C2    C4    A    
C64   O7    S    
C36   C38   A    
C10   C73   A    
C73   H6    S    
C42   C47   A    
C65   H49   S    
C12   O13   A    
C36   H70   S    
C69   C70   S    
C35   C41   A    
C43   C46   A    
C24   C30   A    
C60   H36   S    
C62   H42   S    
O13   Zn1   S    
C71   C72   S    
C21   N2    A    
C37   C39   A    
C49   C50   S    
C40   H69   S    
C55   H25   S    
C61   H40   S    
C70   H60   S    
C20   N1    A    
C54   H24   S    
C52   H17   S    
C34   C47   A    
C17   C35   S    
C37   C46   A    
C61   H38   S    
C52   H18   S    
C51   H15   S    
C58   O4    S    
C52   C53   S    
