data_mof_unit_35784.cif
_audit_creation_date              2012-10-26T18:27:07-0400
_audit_creation_method            fapswitch 2.2
_symmetry_space_group_name_H-M    P1
_symmetry_Int_Tables_number       1
_space_group_crystal_system       triclinic
_cell_length_a                    15.013265
_cell_length_b                    10.89334
_cell_length_c                    9.720546
_cell_angle_alpha                 90.722518
_cell_angle_beta                  90.030045
_cell_angle_gamma                 90.642912
_cell_volume                      1589.51598481

loop_
_atom_site_label
_atom_site_type_symbol
_atom_type_description
_atom_site_fract_x
_atom_site_fract_y
_atom_site_fract_z
_atom_type_partial_charge
C1    C     C_R   0.496873 0.265235 0.498686 0.580042
C2    C     C_R   0.185681 0.398821 0.535030 -0.089828
C3    C     C_R   0.232499 0.503540 0.495554 -0.032598
C4    C     C_R   0.329083 0.500597 0.499595 0.568355
C5    C     C_R   0.188248 0.606437 0.443754 0.057095
C6    C     C_2   0.471401 0.930293 0.391755 -0.100121
C7    C     C_2   0.484758 0.866179 0.506086 -0.122728
C8    C     C_2   0.457430 0.063185 0.396105 0.206431
C9    C     C_2   0.497798 0.132413 0.495003 -0.072629
C10   C     C_2   0.434020 0.458108 0.924223 0.148703
C11   C     C_2   0.429829 0.478762 0.077477 0.042815
C12   C     C_R   0.907399 0.604537 0.435901 -0.024914
C13   C     C_R   0.496077 0.734509 0.501077 0.621970
C14   C     C_R   0.671039 0.502287 0.500147 0.596115
C15   C     C_R   0.814536 0.612464 0.456542 0.242365
C16   C     C_R   0.767787 0.506874 0.500034 0.014646
C17   C     C_R   0.813047 0.401609 0.538589 -0.158949
C18   C     C_R   0.905706 0.398795 0.533597 -0.016020
C19   C     C_R   0.953427 0.500337 0.482100 0.008873
C20   C     C_2   0.356964 0.390741 0.865443 0.653789
C21   C     C_2   0.237070 0.725493 0.438691 0.631408
C22   C     C_R   0.950699 0.294006 0.575099 -0.082830
C23   C     C_R   0.043657 0.289642 0.571626 0.203627
C24   C     C_R   0.092669 0.394616 0.529098 0.010971
C25   C     C_R   0.047177 0.498279 0.478166 -0.014635
C26   C     C_R   0.095038 0.600090 0.423581 0.004489
C27   C     C_R   0.046988 0.689534 0.349161 0.251507
C28   C     C_R   0.954553 0.693378 0.361883 -0.035406
Cu1   Cu    Cu3+1 0.500020 0.500020 0.638630 1.072253
Cu2   Cu    Cu3+1 0.499980 0.499980 0.361370 1.109759
H1    H     H_    0.482211 0.909333 0.607214 0.112912
H2    H     H_    0.467370 0.883817 0.292391 0.189397
H3    H     H_    0.672939 0.853769 0.590599 0.358991
H4    H     H_    0.358997 0.973766 0.124260 0.363819
H5    H     H_    0.223130 0.378110 0.850237 0.356939
H6    H     H_    0.107942 0.192452 0.832251 0.350123
H7    H     H_    0.249616 0.897913 0.513900 0.390578
H8    H     H_    0.139004 0.970399 0.204217 0.405417
H9    H     H_    0.538150 0.090887 0.574019 0.069018
H10   H     H_    0.547164 0.552234 0.894164 0.208448
H11   H     H_    0.366023 0.466301 0.127866 0.207596
H12   H     H_    0.560124 0.499157 0.105363 0.216891
H13   H     H_    0.775652 0.321837 0.572912 0.124802
H14   H     H_    0.912859 0.215094 0.610083 0.171206
H15   H     H_    0.223247 0.322366 0.573411 0.214499
H16   H     H_    0.919022 0.761161 0.303972 0.220817
N1    N     N_2   0.499020 0.498660 0.846910 -0.372353
N2    N     N_2   0.499000 0.498630 0.153040 -0.355969
O1    O     O_R   0.500020 0.321960 0.617040 -0.470737
O2    O     O_2   0.706680 0.761562 0.316031 -0.268097
O3    O     O_3   0.686999 0.765395 0.581749 -0.517537
O4    O     O_2   0.326954 0.219470 0.328922 -0.228874
O5    O     O_2   0.442015 0.180281 0.155909 -0.279363
O6    O     O_3   0.322764 0.010365 0.199028 -0.451978
O7    O     O_2   0.367845 0.298360 0.795272 -0.441194
O8    O     O_R   0.270956 0.430518 0.896193 -0.677373
O9    O     O_2   0.027514 0.048548 0.633341 -0.205487
O10   O     O_2   0.158677 0.113173 0.503043 -0.181773
O11   O     O_3   0.152968 0.168322 0.762847 -0.488786
O12   O     O_R   0.499980 0.321920 0.382900 -0.446122
O13   O     O_2   0.301750 0.737792 0.363635 -0.471246
O14   O     O_R   0.209653 0.822804 0.522937 -0.588102
O15   O     O_2   0.172664 0.717659 0.152620 -0.221910
O16   O     O_2   0.026240 0.804022 0.108177 -0.255373
O17   O     O_3   0.127790 0.917480 0.284620 -0.408806
O18   O     O_R   0.370270 0.499990 0.617090 -0.491026
O19   O     O_R   0.370240 0.499950 0.382940 -0.466868
O20   O     O_R   0.500020 0.678080 0.617100 -0.483187
O21   O     O_R   0.499980 0.678040 0.382960 -0.453029
O22   O     O_R   0.629760 0.500050 0.617060 -0.482508
O23   O     O_R   0.629730 0.500010 0.382910 -0.488609
O24   O     O_2   0.821446 0.863095 0.458581 -0.265225
S1    S     S_3+6 0.757952 0.755576 0.448523 0.019954
S2    S     S_3+6 0.386615 0.123410 0.267602 0.066500
S3    S     S_3+6 0.095399 0.149651 0.615646 0.058225
S4    S     S_3+6 0.094743 0.781444 0.217683 0.080843

loop_
_geom_bond_atom_site_label_1
_geom_bond_atom_site_label_2
_ccdc_geom_bond_type
H10   N1    S    
C6    H2    S    
C14   O23   A    
O5    S2    D    
C20   O8    S    
H6    O11   S    
Cu2   O23   S    
Cu1   O1    S    
C28   H16   S    
C26   C27   A    
O17   S4    S    
C12   C28   A    
Cu2   N2    S    
O4    S2    D    
O15   S4    D    
C15   C16   A    
C9    H9    S    
C18   C19   A    
O6    S2    S    
C22   H14   S    
C10   C20   S    
C8    C9    D    
Cu2   O12   S    
C23   C24   A    
C12   C15   A    
C21   O13   D    
Cu2   O19   S    
C14   O22   A    
C11   N2    D    
C20   O7    D    
O10   S3    D    
H7    O14   S    
C2    H15   S    
C7    H1    S    
C1    C9    S    
C24   C25   A    
C1    O12   A    
C16   C17   A    
C6    C8    S    
C25   C26   A    
Cu1   O18   S    
C17   H13   S    
Cu1   Cu2   S    
Cu1   O20   S    
H8    O17   S    
C8    S2    S    
C17   C18   A    
O16   S4    D    
H12   N2    S    
C21   O14   S    
C15   S1    S    
Cu1   N1    S    
H4    O6    S    
C2    C24   A    
C14   C16   S    
O2    S1    D    
C27   S4    S    
O11   S3    S    
C10   N1    D    
Cu2   O21   S    
Cu1   O22   S    
H5    O8    S    
C18   C22   A    
O3    S1    S    
C23   S3    S    
O24   S1    D    
C3    C5    A    
C4    O19   A    
C6    C7    D    
H3    O3    S    
O9    S3    D    
C2    C3    A    
C4    O18   A    
C13   O21   A    
C12   C19   A    
C11   H11   S    
C19   C25   A    
C10   C11   S    
C5    C26   A    
C7    C13   S    
C5    C21   S    
C27   C28   A    
C22   C23   A    
C1    O1    A    
C3    C4    S    
C13   O20   A    
