data_mof_unit_61695.cif
_audit_creation_date              2012-12-10T16:43:56-0500
_audit_creation_method            fapswitch 2.2
_symmetry_space_group_name_H-M    P1
_symmetry_Int_Tables_number       1
_space_group_crystal_system       triclinic
_cell_length_a                    23.693823
_cell_length_b                    31.045028
_cell_length_c                    19.3043
_cell_angle_alpha                 89.949734
_cell_angle_beta                  126.411794
_cell_angle_gamma                 90.039744
_cell_volume                      11427.5658887

loop_
_atom_site_label
_atom_site_type_symbol
_atom_type_description
_atom_site_fract_x
_atom_site_fract_y
_atom_site_fract_z
_atom_type_partial_charge
C1    C     C_R   0.803805 0.191311 0.117198 0.772624
C2    C     C_R   0.196030 0.808514 0.882470 0.771828
C3    C     C_R   0.196142 0.191317 0.882799 0.772295
C4    C     C_R   0.804131 0.808493 0.117493 0.772431
C5    C     C_R   0.303805 0.691311 0.117198 0.772626
C6    C     C_R   0.696030 0.308514 0.882471 0.771824
C7    C     C_R   0.696142 0.691317 0.882799 0.772298
C8    C     C_R   0.304127 0.308493 0.117494 0.772464
C9    C     C_R   0.642066 0.250270 0.000384 0.823425
C10   C     C_R   0.357935 0.749724 0.999618 0.823495
C11   C     C_R   0.357926 0.250278 0.999579 0.823476
C12   C     C_R   0.642073 0.749716 0.000419 0.823436
C13   C     C_R   0.142066 0.750270 0.000384 0.823425
C14   C     C_R   0.857935 0.249724 0.999618 0.823497
C15   C     C_R   0.857926 0.750278 0.999579 0.823473
C16   C     C_R   0.142073 0.249716 0.000419 0.823418
C17   C     C_1   0.581358 0.250906 0.000711 -0.178213
C18   C     C_1   0.418644 0.749072 0.999291 -0.178494
C19   C     C_1   0.418595 0.250923 0.999170 -0.178219
C20   C     C_1   0.581405 0.749056 0.000829 -0.178738
C21   C     C_1   0.081358 0.750906 0.000711 -0.178211
C22   C     C_1   0.918644 0.249072 0.999291 -0.178496
C23   C     C_1   0.918595 0.750923 0.999170 -0.178219
C24   C     C_1   0.081405 0.249056 0.000829 -0.178735
C25   C     C_1   0.530095 0.251159 0.000302 0.004500
C26   C     C_1   0.469905 0.748808 0.999699 0.004279
C27   C     C_1   0.469841 0.251167 0.999544 0.004501
C28   C     C_1   0.530160 0.748800 0.000457 0.004342
C29   C     C_1   0.030095 0.751159 0.000302 0.004501
C30   C     C_1   0.969905 0.248808 0.999699 0.004279
C31   C     C_1   0.969841 0.751167 0.999544 0.004502
C32   C     C_1   0.030160 0.248800 0.000457 0.004342
C33   C     C_2   0.891060 0.131045 0.330418 0.204324
C34   C     C_2   0.154033 0.915123 0.761918 0.202103
C35   C     C_2   0.108166 0.131091 0.669540 0.203095
C36   C     C_2   0.848077 0.915173 0.237514 0.206314
C37   C     C_2   0.391055 0.631044 0.330417 0.204321
C38   C     C_2   0.654018 0.415124 0.761921 0.202096
C39   C     C_2   0.608168 0.631091 0.669540 0.203095
C40   C     C_2   0.348050 0.415161 0.237546 0.206279
C41   C     C_2   0.914452 0.093777 0.318960 0.272392
C42   C     C_2   0.088824 0.909524 0.687667 0.270622
C43   C     C_2   0.085961 0.093429 0.681581 0.275026
C44   C     C_2   0.911550 0.908869 0.314125 0.277028
C45   C     C_2   0.414455 0.593779 0.318963 0.272399
C46   C     C_2   0.588819 0.409519 0.687655 0.270656
C47   C     C_2   0.585960 0.593430 0.681580 0.275021
C48   C     C_2   0.411553 0.408871 0.314118 0.276998
C49   C     C_2   0.867002 0.165760 0.265584 -0.145500
C50   C     C_2   0.180299 0.882662 0.831248 -0.144360
C51   C     C_2   0.132160 0.165701 0.734474 -0.146388
C52   C     C_2   0.821746 0.882534 0.168990 -0.143600
C53   C     C_2   0.366996 0.665761 0.265585 -0.145495
C54   C     C_2   0.680280 0.382662 0.831247 -0.144368
C55   C     C_2   0.632162 0.665701 0.734474 -0.146388
C56   C     C_2   0.321690 0.382532 0.168998 -0.143657
C57   C     C_2   0.820103 0.158071 0.180750 0.133982
C58   C     C_2   0.178277 0.840176 0.815829 0.136947
C59   C     C_2   0.179784 0.158129 0.819231 0.135500
C60   C     C_2   0.822410 0.840120 0.184132 0.133703
C61   C     C_2   0.320103 0.658070 0.180750 0.133969
C62   C     C_2   0.678276 0.340177 0.815832 0.136963
C63   C     C_2   0.679784 0.658129 0.819232 0.135498
C64   C     C_2   0.322409 0.340114 0.184145 0.133638
C65   C     C_R   0.441613 0.441677 0.381614 0.676810
C66   C     C_R   0.557613 0.559160 0.616857 0.678941
C67   C     C_R   0.558402 0.441650 0.618538 0.678659
C68   C     C_R   0.442474 0.559245 0.383250 0.679202
C69   C     C_R   0.941610 0.941681 0.381609 0.676776
C70   C     C_R   0.057613 0.059160 0.616857 0.678932
C71   C     C_R   0.058403 0.941651 0.618541 0.678665
C72   C     C_R   0.942474 0.059244 0.383250 0.679196
Cu1   Cu    Cu3+1 0.780520 0.280530 0.061040 0.951192
Cu2   Cu    Cu3+1 0.219480 0.719470 0.938960 0.951675
Cu3   Cu    Cu3+1 0.219480 0.280530 0.938960 0.953101
Cu4   Cu    Cu3+1 0.780520 0.719470 0.061040 0.951249
Cu5   Cu    Cu3+1 0.280520 0.780530 0.061040 0.951197
Cu6   Cu    Cu3+1 0.719480 0.219470 0.938960 0.951673
Cu7   Cu    Cu3+1 0.719480 0.780530 0.938960 0.953071
Cu8   Cu    Cu3+1 0.280520 0.219470 0.061040 0.951242
Cu9   Cu    Cu3+1 0.944230 0.000000 0.500020 0.958878
Cu10  Cu    Cu3+1 0.055770 1.000000 0.499980 0.968312
Cu11  Cu    Cu3+1 0.444230 0.500000 0.500020 0.958867
Cu12  Cu    Cu3+1 0.555770 0.500000 0.499980 0.968285
H1    H     H_    0.890925 0.197339 0.288250 0.128405
H2    H     H_    0.198173 0.894032 0.894446 0.127504
H3    H     H_    0.107666 0.197148 0.711953 0.128444
H4    H     H_    0.803481 0.893930 0.105614 0.134777
H5    H     H_    0.390916 0.697340 0.288252 0.128406
H6    H     H_    0.698135 0.394029 0.894439 0.127505
H7    H     H_    0.607670 0.697148 0.711952 0.128444
H8    H     H_    0.303359 0.393940 0.105604 0.134838
O1    O     O_R   0.820280 0.231270 0.140580 -0.597797
O2    O     O_R   0.179720 0.768730 0.859420 -0.588973
O3    O     O_R   0.179720 0.231270 0.859420 -0.597839
O4    O     O_R   0.820280 0.768730 0.140580 -0.588015
O5    O     O_R   0.320280 0.731270 0.140580 -0.597796
O6    O     O_R   0.679720 0.268730 0.859420 -0.588971
O7    O     O_R   0.679720 0.731270 0.859420 -0.597838
O8    O     O_R   0.320280 0.268730 0.140580 -0.588013
O9    O     O_R   0.768770 0.179750 0.037530 -0.588736
O10   O     O_R   0.231230 0.820250 0.962470 -0.598027
O11   O     O_R   0.231230 0.179750 0.962470 -0.589146
O12   O     O_R   0.768770 0.820250 0.037530 -0.598353
O13   O     O_R   0.268770 0.679750 0.037530 -0.588735
O14   O     O_R   0.731230 0.320250 0.962470 -0.598030
O15   O     O_R   0.731230 0.679750 0.962470 -0.589148
O16   O     O_R   0.268770 0.320250 0.037530 -0.598329
O17   O     O_R   0.694370 0.275780 0.051550 -0.575795
O18   O     O_R   0.305630 0.724220 0.948450 -0.576847
O19   O     O_R   0.305630 0.275780 0.948450 -0.575773
O20   O     O_R   0.694370 0.724220 0.051550 -0.577257
O21   O     O_R   0.194370 0.775780 0.051550 -0.575792
O22   O     O_R   0.805630 0.224220 0.948450 -0.576846
O23   O     O_R   0.805630 0.775780 0.948450 -0.575779
O24   O     O_R   0.194370 0.224220 0.051550 -0.577264
O25   O     O_R   0.642860 0.224260 0.948500 -0.577658
O26   O     O_R   0.357140 0.775740 0.051500 -0.576878
O27   O     O_R   0.357140 0.224260 0.051500 -0.577852
O28   O     O_R   0.642860 0.775740 0.948500 -0.576316
O29   O     O_R   0.142860 0.724260 0.948500 -0.577659
O30   O     O_R   0.857140 0.275740 0.051500 -0.576878
O31   O     O_R   0.857140 0.724260 0.051500 -0.577846
O32   O     O_R   0.142860 0.275740 0.948500 -0.576311
O33   O     O_R   0.502640 0.455510 0.411000 -0.570827
O34   O     O_R   0.497360 0.544490 0.589000 -0.569193
O35   O     O_R   0.497360 0.455510 0.589000 -0.572657
O36   O     O_R   0.502640 0.544490 0.411000 -0.569132
O37   O     O_R   0.002640 0.955510 0.411000 -0.570775
O38   O     O_R   0.997360 0.044490 0.589000 -0.569189
O39   O     O_R   0.997360 0.955510 0.589000 -0.572651
O40   O     O_R   0.002640 0.044490 0.411000 -0.569133
O41   O     O_R   0.408410 0.455510 0.411000 -0.593163
O42   O     O_R   0.591590 0.544490 0.589000 -0.578331
O43   O     O_R   0.591590 0.455510 0.589000 -0.582384
O44   O     O_R   0.408410 0.544490 0.411000 -0.579689
O45   O     O_R   0.908410 0.955510 0.411000 -0.593260
O46   O     O_R   0.091590 0.044490 0.589000 -0.578342
O47   O     O_R   0.091590 0.955510 0.589000 -0.582359
O48   O     O_R   0.908410 0.044490 0.411000 -0.579720
N1    N     N_2   0.891929 0.137587 0.404700 -0.440067
H9    H     H_    0.934169 0.124683 0.461572 0.241430
C73   C     C_3   0.868920 0.178698 0.414923 -0.681586
H10   H     H_    0.867105 0.177209 0.471045 0.234439
H11   H     H_    0.815367 0.186359 0.356862 0.237289
H12   H     H_    0.906186 0.204472 0.426576 0.218101
N2    N     N_2   0.195867 0.952041 0.774735 -0.441370
H13   H     H_    0.168870 0.980224 0.745936 0.236598
C74   C     C_3   0.261937 0.958349 0.858334 -0.703190
H14   H     H_    0.289818 0.986316 0.855610 0.230336
H15   H     H_    0.295845 0.929490 0.877109 0.242456
H16   H     H_    0.252573 0.965061 0.907266 0.217855
N3    N     N_2   0.106055 0.138140 0.594467 -0.440221
H17   H     H_    0.063873 0.124938 0.537958 0.240547
C75   C     C_3   0.127595 0.179657 0.583461 -0.681002
H18   H     H_    0.128634 0.178564 0.526734 0.234459
H19   H     H_    0.181205 0.187742 0.640935 0.237429
H20   H     H_    0.089875 0.204940 0.572354 0.217952
N4    N     N_2   0.810550 0.955001 0.216047 -0.466802
H21   H     H_    0.835678 0.980642 0.257271 0.240414
C76   C     C_3   0.737298 0.951591 0.181268 -0.674441
H22   H     H_    0.712646 0.983969 0.160949 0.224581
H23   H     H_    0.732179 0.938994 0.231161 0.224981
H24   H     H_    0.708923 0.930192 0.124018 0.233754
N5    N     N_2   0.391915 0.637583 0.404695 -0.440067
H25   H     H_    0.434158 0.624682 0.461569 0.241432
C77   C     C_3   0.368895 0.678692 0.414911 -0.681584
H26   H     H_    0.367075 0.677201 0.471029 0.234440
H27   H     H_    0.315343 0.686350 0.356847 0.237288
H28   H     H_    0.406158 0.704469 0.426567 0.218102
N6    N     N_2   0.695844 0.452050 0.774758 -0.441383
H29   H     H_    0.668841 0.480228 0.745932 0.236595
C78   C     C_3   0.761888 0.458372 0.858378 -0.703218
H30   H     H_    0.789768 0.486345 0.855672 0.230335
H31   H     H_    0.795817 0.429521 0.877188 0.242468
H32   H     H_    0.752485 0.465080 0.907277 0.217856
N7    N     N_2   0.606058 0.638139 0.594469 -0.440218
H33   H     H_    0.563872 0.624940 0.537958 0.240544
C79   C     C_3   0.627608 0.679653 0.583467 -0.680993
H34   H     H_    0.628647 0.678559 0.526741 0.234461
H35   H     H_    0.681219 0.687734 0.640943 0.237427
H36   H     H_    0.589894 0.704940 0.572362 0.217951
N8    N     N_2   0.310483 0.454965 0.216131 -0.466622
H37   H     H_    0.335707 0.480648 0.257203 0.240277
C80   C     C_3   0.237375 0.451500 0.181966 -0.674258
H38   H     H_    0.212605 0.483844 0.161598 0.224619
H39   H     H_    0.232668 0.438983 0.232244 0.224993
H40   H     H_    0.208822 0.430002 0.124870 0.233707
O49   O     O_3   0.926416 0.092495 0.256316 -0.575780
C81   C     C_3   0.906693 0.052204 0.213802 0.079115
H41   H     H_    0.853707 0.042235 0.193473 0.149156
H42   H     H_    0.945511 0.026871 0.255641 0.161587
C82   C     C_3   0.904494 0.055769 0.133653 -0.762818
H43   H     H_    0.957202 0.064447 0.151915 0.252026
H44   H     H_    0.888363 0.024438 0.099204 0.201470
H45   H     H_    0.866330 0.080898 0.089901 0.244599
O50   O     O_3   0.045309 0.878227 0.685295 -0.571244
C83   C     C_3   0.005282 0.857025 0.604713 0.073864
H46   H     H_    0.038598 0.847109 0.584347 0.129602
H47   H     H_    0.961973 0.877947 0.554415 0.155331
C84   C     C_3   0.972462 0.816742 0.611824 -0.777540
H48   H     H_    0.013914 0.794833 0.661767 0.247889
H49   H     H_    0.937122 0.825656 0.629490 0.253354
H50   H     H_    0.941513 0.799620 0.549077 0.192871
O51   O     O_3   0.075424 0.091381 0.745440 -0.573513
C85   C     C_3   0.096059 0.050862 0.787218 0.075747
H51   H     H_    0.148965 0.041448 0.806565 0.142192
H52   H     H_    0.057447 0.025469 0.745248 0.159552
C86   C     C_3   0.099212 0.053456 0.868115 -0.767716
H53   H     H_    0.046636 0.061551 0.850854 0.253910
H54   H     H_    0.116119 0.021945 0.901978 0.196871
H55   H     H_    0.137196 0.078610 0.912012 0.245038
O52   O     O_3   0.954382 0.875662 0.320876 -0.569660
C87   C     C_3   0.992574 0.856264 0.403302 0.073625
H56   H     H_    0.957413 0.847585 0.421627 0.129416
H57   H     H_    0.034941 0.877891 0.452931 0.154039
C88   C     C_3   0.027171 0.815293 0.402168 -0.777238
H58   H     H_    0.064197 0.823111 0.386535 0.253774
H59   H     H_    0.056642 0.799618 0.466410 0.192726
H60   H     H_    0.986934 0.792524 0.353254 0.246381
O53   O     O_3   0.426430 0.592503 0.256329 -0.575758
C89   C     C_3   0.406714 0.552213 0.213809 0.079050
H61   H     H_    0.353725 0.542242 0.193469 0.149040
H62   H     H_    0.445531 0.526881 0.255647 0.161562
C90   C     C_3   0.404524 0.555786 0.133668 -0.762823
H63   H     H_    0.457234 0.564466 0.151940 0.252036
H64   H     H_    0.388399 0.524457 0.099213 0.201439
H65   H     H_    0.366360 0.580915 0.089917 0.244608
O54   O     O_3   0.545308 0.378209 0.685253 -0.571243
C91   C     C_3   0.505299 0.357016 0.604660 0.073881
H66   H     H_    0.538629 0.347114 0.584308 0.129590
H67   H     H_    0.461992 0.377940 0.554364 0.155311
C92   C     C_3   0.472476 0.316725 0.611735 -0.777540
H68   H     H_    0.513927 0.294813 0.661673 0.247888
H69   H     H_    0.437124 0.325625 0.629389 0.253351
H70   H     H_    0.441540 0.299611 0.548979 0.192863
O55   O     O_3   0.575420 0.591383 0.745436 -0.573513
C93   C     C_3   0.596055 0.550865 0.787218 0.075736
H71   H     H_    0.648963 0.541453 0.806571 0.142215
H72   H     H_    0.557446 0.525471 0.745249 0.159551
C94   C     C_3   0.599202 0.553461 0.868111 -0.767725
H73   H     H_    0.546624 0.561555 0.850844 0.253912
H74   H     H_    0.616110 0.521951 0.901977 0.196869
H75   H     H_    0.637183 0.578616 0.912007 0.245039
O56   O     O_3   0.454394 0.375687 0.320813 -0.569680
C95   C     C_3   0.492633 0.356276 0.403230 0.073574
H76   H     H_    0.457505 0.347567 0.421590 0.129402
H77   H     H_    0.534994 0.377908 0.452856 0.154091
C96   C     C_3   0.527248 0.315329 0.402041 -0.777244
H78   H     H_    0.564246 0.323178 0.386379 0.253776
H79   H     H_    0.556753 0.299642 0.466274 0.192739
H80   H     H_    0.487019 0.292557 0.353124 0.246368
N9    N     N_2   0.782429 0.118238 0.151310 -0.412091
H81   H     H_    0.767651 0.108464 0.091658 0.267659
C97   C     C_3   0.725267 0.115309 0.158718 -0.704947
H82   H     H_    0.701384 0.082733 0.138463 0.225320
H83   H     H_    0.684492 0.139725 0.116664 0.220181
H84   H     H_    0.744434 0.120387 0.226381 0.252087
N10   N     N_2   0.162716 0.825280 0.736095 -0.413123
H85   H     H_    0.139306 0.795378 0.717015 0.265917
C98   C     C_3   0.220280 0.828933 0.729566 -0.706730
H86   H     H_    0.202500 0.818646 0.664405 0.225911
H87   H     H_    0.264491 0.807973 0.778310 0.220973
H88   H     H_    0.238671 0.862801 0.739289 0.253747
N11   N     N_2   0.218122 0.118535 0.848521 -0.411526
H89   H     H_    0.233671 0.108732 0.908510 0.266402
C99   C     C_3   0.274725 0.116106 0.840018 -0.705453
H90   H     H_    0.299163 0.083675 0.860255 0.224734
H91   H     H_    0.315252 0.140746 0.881517 0.219891
H92   H     H_    0.254824 0.121209 0.772075 0.252970
N12   N     N_2   0.836800 0.825262 0.263304 -0.404429
H93   H     H_    0.860721 0.795528 0.283050 0.268012
C100  C     C_3   0.777952 0.828078 0.267451 -0.718162
H94   H     H_    0.758703 0.861713 0.256915 0.242076
H95   H     H_    0.794655 0.817725 0.332165 0.226673
H96   H     H_    0.734703 0.806774 0.218124 0.222785
N13   N     N_2   0.282433 0.618236 0.151308 -0.412088
H97   H     H_    0.267661 0.608462 0.091659 0.267665
C101  C     C_3   0.225266 0.615305 0.158708 -0.704923
H98   H     H_    0.201387 0.582728 0.138453 0.225360
H99   H     H_    0.184490 0.639719 0.116649 0.220178
H100  H     H_    0.244428 0.620383 0.226368 0.252075
N14   N     N_2   0.662738 0.325284 0.736108 -0.413098
H101  H     H_    0.639342 0.295378 0.717027 0.265918
C102  C     C_3   0.720313 0.328950 0.729601 -0.706735
H102  H     H_    0.702550 0.318664 0.664446 0.225905
H103  H     H_    0.764528 0.307995 0.778355 0.220967
H104  H     H_    0.738691 0.362821 0.739326 0.253749
N15   N     N_2   0.718121 0.618535 0.848522 -0.411533
H105  H     H_    0.733667 0.608731 0.908510 0.266401
C103  C     C_3   0.774725 0.616104 0.840022 -0.705449
H106  H     H_    0.799162 0.583673 0.860260 0.224732
H107  H     H_    0.815253 0.640744 0.881523 0.219893
H108  H     H_    0.754826 0.621207 0.772080 0.252970
N16   N     N_2   0.336865 0.325243 0.263344 -0.404419
H109  H     H_    0.360852 0.295529 0.283097 0.268037
C104  C     C_3   0.278030 0.327989 0.267527 -0.718244
H110  H     H_    0.258697 0.361605 0.256960 0.242064
H111  H     H_    0.294783 0.317639 0.332263 0.226683
H112  H     H_    0.234828 0.306649 0.218238 0.222819

loop_
_geom_bond_atom_site_label_1
_geom_bond_atom_site_label_2
_ccdc_geom_bond_type
Cu12  O36   S    
C73   H12   S    
C30   C32   S    
N6    H29   S    
C97   H83   S    
Cu12  O43   S    
N5    H25   S    
C14   O30   A    
Cu7   O23   S    
C38   C46   D    
C75   H19   S    
C9    O25   A    
C104  H110  S    
Cu2   O2    S    
N2    H13   S    
C34   C42   D    
Cu4   Cu7   S    
Cu1   O1    S    
C11   O27   A    
C90   H65   S    
Cu9   Cu10  S    
C84   H49   S    
Cu3   O3    S    
C38   N6    S    
C77   H27   S    
C5    O13   A    
O52   C87   S    
C88   H60   S    
Cu9   O45   S    
N6    C78   S    
C93   C94   S    
Cu12  O42   S    
C96   H78   S    
C81   H41   S    
C15   O31   A    
Cu11  Cu12  S    
C16   O32   A    
C6    O6    A    
Cu7   O7    S    
C103  H107  S    
C100  H94   S    
C90   H63   S    
C54   H6    S    
C102  H104  S    
C1    C57   S    
C74   H15   S    
N4    H21   S    
C98   H86   S    
C99   H92   S    
C85   H52   S    
C80   H39   S    
C43   O51   S    
C2    O10   A    
C33   C49   S    
N12   H93   S    
C8    O16   A    
C70   O38   A    
C86   H55   S    
C49   C57   D    
C36   N4    S    
C91   C92   S    
C73   H11   S    
C94   H73   S    
C84   H48   S    
C101  H100  S    
C40   C48   D    
C55   H7    S    
C52   C60   D    
C81   C82   S    
C76   H23   S    
C4    O4    A    
C56   H8    S    
C53   C61   D    
C39   C55   S    
Cu8   O24   S    
C87   H57   S    
C82   H44   S    
Cu2   Cu5   S    
C55   C63   D    
Cu6   O6    S    
Cu1   Cu6   S    
N4    C76   S    
Cu5   O5    S    
C83   H46   S    
C48   C65   S    
N3    C75   S    
C19   C27   T    
N11   H89   S    
C68   O36   A    
C47   C66   S    
C98   H87   S    
C36   C52   S    
N10   H85   S    
C79   H36   S    
C37   C53   S    
C103  H106  S    
C15   C23   S    
C97   H84   S    
Cu3   O16   S    
C16   C24   S    
C12   O28   A    
N13   H97   S    
Cu8   O8    S    
C75   H20   S    
C69   O45   A    
Cu3   O19   S    
C104  H111  S    
C4    C60   S    
Cu5   O10   S    
Cu6   O22   S    
N1    H9    S    
C45   C68   S    
C29   C31   S    
Cu5   O21   S    
C16   O24   A    
C92   H70   S    
C39   N7    S    
O54   C91   S    
C72   O40   A    
C77   H28   S    
C93   H72   S    
C78   H31   S    
C9    O17   A    
C90   H64   S    
C95   H77   S    
C96   H79   S    
C34   C50   S    
C59   N11   S    
Cu8   O11   S    
C11   O19   A    
Cu3   O32   S    
C50   C58   D    
C66   O42   A    
C2    O2    A    
C103  H108  S    
C62   N14   S    
N5    C77   S    
N16   C104  S    
Cu5   O26   S    
C93   H71   S    
C74   H16   S    
C51   H3    S    
N16   H109  S    
N9    C97   S    
Cu1   O14   S    
N14   H101  S    
C87   H56   S    
C80   H40   S    
C71   O47   A    
C104  H112  S    
C54   C62   D    
C89   C90   S    
C33   N1    S    
C88   H58   S    
C14   O22   A    
C21   C29   T    
C91   H66   S    
C66   O34   A    
C94   H74   S    
N1    C73   S    
C23   C31   T    
C67   O43   A    
N8    H37   S    
C24   C32   T    
O53   C89   S    
C10   O26   A    
C49   H1    S    
C98   H88   S    
C13   O29   A    
C34   N2    S    
C100  H96   S    
C38   C54   S    
C68   O44   A    
C47   O55   S    
Cu4   O20   S    
C82   H45   S    
C11   C19   S    
C18   C26   T    
C12   C20   S    
Cu10  O47   S    
C56   C64   D    
C86   H53   S    
C6    O14   A    
C13   C21   S    
C44   C69   S    
C40   C56   S    
C77   H26   S    
Cu10  O37   S    
C91   H67   S    
C46   O54   S    
C92   H69   S    
C7    C63   S    
Cu11  O44   S    
C6    C62   S    
C7    O7    A    
C8    C64   S    
C41   C72   S    
C65   O41   A    
C15   O23   A    
C9    C17   S    
C5    O5    A    
C70   O46   A    
Cu4   O15   S    
N13   C101  S    
C35   C51   S    
C25   C27   S    
C84   H50   S    
C7    O15   A    
Cu7   O12   S    
C36   C44   D    
C51   C59   D    
Cu11  O34   S    
Cu10  O40   S    
C97   H82   S    
C1    O9    A    
C12   O20   A    
C76   H24   S    
C35   C43   D    
C48   O56   S    
C39   C47   D    
Cu3   Cu8   S    
C78   H32   S    
C3    O11   A    
Cu12  O33   S    
N12   C100  S    
O51   C85   S    
C95   H76   S    
C89   H62   S    
C96   H80   S    
C81   H42   S    
C22   C30   T    
N2    C74   S    
C85   H51   S    
Cu4   O31   S    
C61   N13   S    
N7    H33   S    
Cu1   O30   S    
C42   O50   S    
C35   N3    S    
O56   C95   S    
C17   C25   T    
N10   C98   S    
C87   C88   S    
Cu2   O18   S    
C102  H102  S    
C37   N5    S    
C99   H90   S    
C2    C58   S    
Cu1   O17   S    
C64   N16   S    
C43   C70   S    
C20   C28   T    
C26   C28   S    
C88   H59   S    
C67   O35   A    
C41   O49   S    
C58   N10   S    
C94   H75   S    
C33   C41   D    
C40   N8    S    
N8    C80   S    
C73   H10   S    
C8    O8    A    
C101  H98   S    
C45   O53   S    
C46   C67   S    
C102  H103  S    
N11   C99   S    
C76   H22   S    
C74   H14   S    
Cu4   O4    S    
Cu2   O13   S    
C53   H5    S    
C99   H91   S    
C85   C86   S    
C14   C22   S    
C80   H38   S    
N9    H81   S    
C10   C18   S    
C69   O37   A    
C4    O12   A    
C42   C71   S    
C100  H95   S    
C3    O3    A    
N7    C79   S    
Cu10  O46   S    
C10   O18   A    
C83   C84   S    
O50   C83   S    
C44   O52   S    
C101  H99   S    
C60   N12   S    
C57   N9    S    
O49   C81   S    
C52   H4    S    
Cu11  O35   S    
Cu11  O41   S    
Cu9   O39   S    
C50   H2    S    
Cu9   O38   S    
C79   H34   S    
Cu7   O28   S    
Cu8   O27   S    
C72   O48   A    
Cu2   O29   S    
C71   O39   A    
C1    O1    A    
C82   H43   S    
C75   H18   S    
C63   N15   S    
C86   H54   S    
N15   H105  S    
N15   C103  S    
Cu6   O25   S    
C83   H47   S    
Cu9   O48   S    
C79   H35   S    
N3    H17   S    
O55   C93   S    
C78   H30   S    
C37   C45   D    
C89   H61   S    
C13   O21   A    
C5    C61   S    
C92   H68   S    
C65   O33   A    
N14   C102  S    
Cu6   O9    S    
C95   C96   S    
C3    C59   S    
