data_mof_unit_62821.cif
_audit_creation_date              2012-12-10T16:49:27-0500
_audit_creation_method            fapswitch 2.2
_symmetry_space_group_name_H-M    P1
_symmetry_Int_Tables_number       1
_space_group_crystal_system       triclinic
_cell_length_a                    18.803925
_cell_length_b                    18.838856
_cell_length_c                    18.737245
_cell_angle_alpha                 109.436566
_cell_angle_beta                  109.187133
_cell_angle_gamma                 109.478289
_cell_volume                      5129.1304792

loop_
_atom_site_label
_atom_site_type_symbol
_atom_type_description
_atom_site_fract_x
_atom_site_fract_y
_atom_site_fract_z
_atom_type_partial_charge
C1    C     C_R   0.380495 0.386179 0.505074 0.892467
C2    C     C_2   0.312143 0.338789 0.519310 0.029268
C3    C     C_2   0.421814 0.173118 0.179034 -0.153329
C4    C     C_R   0.497626 0.616778 0.619651 0.868704
C5    C     C_2   0.494112 0.184971 0.174625 -0.336850
C6    C     C_2   0.421793 0.245992 0.240190 -0.153961
C7    C     C_2   0.494061 0.305999 0.316363 -0.337237
C8    C     C_2   0.820275 0.741889 0.494941 -0.157106
C9    C     C_2   0.824148 0.818262 0.512042 -0.332434
C10   C     C_2   0.758744 0.680393 0.505719 -0.154948
C11   C     C_2   0.682088 0.676089 0.488310 -0.338155
C12   C     C_R   0.494782 0.669795 0.757986 0.097341
C13   C     C_R   0.381281 0.995696 0.876140 0.938546
C14   C     C_R   0.503281 0.877587 0.880544 0.872686
C15   C     C_R   0.618798 0.998168 0.117563 0.924346
C16   C     C_R   0.618759 0.616850 0.497356 0.941957
C17   C     C_R   0.497978 0.116808 0.114523 0.935570
C18   C     C_R   0.883156 0.002445 0.381230 0.939066
C19   C     C_R   0.122698 0.118382 0.503196 0.926966
C20   C     C_R   0.116786 0.997442 0.618734 0.925717
C21   C     C_R   0.883254 0.881410 0.502742 0.932627
C22   C     C_2   0.179916 0.920630 0.673561 -0.155279
C23   C     C_R   0.495319 0.679157 0.686376 -0.104095
C24   C     C_2   0.176023 0.993139 0.686722 -0.331734
C25   C     C_2   0.241361 0.920249 0.745458 -0.154843
C26   C     C_2   0.317998 0.992120 0.804282 -0.339134
C27   C     C_2   0.817403 0.077119 0.324872 -0.157814
C28   C     C_R   0.497901 0.378008 0.380269 0.939134
C29   C     C_2   0.823566 0.005871 0.312740 -0.336593
C30   C     C_2   0.756407 0.076123 0.251387 -0.150623
C31   C     C_2   0.681819 0.002674 0.190308 -0.334031
C32   C     C_R   0.483564 0.593186 0.761682 -0.172320
C33   C     C_R   0.488433 0.588308 0.835613 -0.137156
C34   C     C_R   0.500219 0.752406 0.680829 -0.206782
C35   C     C_R   0.504540 0.659168 0.906833 -0.140785
C36   C     C_R   0.512724 0.734038 0.903191 -0.175413
C37   C     C_R   0.504659 0.739006 0.827392 0.099969
C38   C     C_3   0.222590 0.326014 0.468233 -0.853269
C39   C     C_R   0.505698 0.818198 0.746694 -0.208521
C40   C     C_R   0.507053 0.811527 0.818923 -0.107189
C41   C     C_2   0.260424 0.253182 0.583157 -0.161085
C42   C     C_2   0.196963 0.180813 0.508635 -0.329447
C43   C     C_2   0.330304 0.314926 0.580366 -0.181177
H1    H     H_    0.500883 0.759093 0.625731 0.158529
H2    H     H_    0.136029 0.860997 0.611319 0.163720
H3    H     H_    0.469905 0.536158 0.707539 0.143746
H4    H     H_    0.212701 0.049615 0.751493 0.156303
H5    H     H_    0.225147 0.860536 0.748161 0.166891
H6    H     H_    0.338131 0.048565 0.795852 0.156722
H7    H     H_    0.859366 0.136786 0.387251 0.165722
H8    H     H_    0.788931 0.949695 0.248033 0.157419
H9    H     H_    0.771133 0.136005 0.249227 0.163530
H10   H     H_    0.662350 0.945655 0.197877 0.153352
H11   H     H_    0.480385 0.529599 0.837886 0.133665
H12   H     H_    0.361907 0.111280 0.135372 0.165779
H13   H     H_    0.510094 0.655923 0.964890 0.135577
H14   H     H_    0.526506 0.787893 0.960588 0.149624
H15   H     H_    0.507302 0.873882 0.740575 0.160642
H16   H     H_    0.261952 0.265772 0.644730 0.162780
H17   H     H_    0.201856 0.165040 0.449668 0.171108
H18   H     H_    0.396742 0.335479 0.624468 0.146619
H19   H     H_    0.228766 0.387742 0.471042 0.240840
H20   H     H_    0.191329 0.275713 0.399102 0.233768
H21   H     H_    0.179069 0.308049 0.494860 0.254625
H22   H     H_    0.550869 0.249261 0.210942 0.156107
H23   H     H_    0.361884 0.248279 0.224364 0.165134
H24   H     H_    0.550812 0.298124 0.336401 0.156571
H25   H     H_    0.864144 0.725885 0.476204 0.163162
H26   H     H_    0.787495 0.838259 0.540477 0.157991
H27   H     H_    0.774923 0.636826 0.524598 0.164729
H28   H     H_    0.662019 0.712499 0.459822 0.156696
O1    O     O_R   0.460610 0.409240 0.550770 -0.643443
O2    O     O_R   0.909530 0.949160 0.358700 -0.622657
O3    O     O_R   0.090460 0.141840 0.551380 -0.618464
O4    O     O_R   0.358470 0.409870 0.449260 -0.614855
O5    O     O_R   0.090460 0.039050 0.448590 -0.621348
O6    O     O_R   0.090470 0.050840 0.641300 -0.627444
O7    O     O_R   0.090460 0.948050 0.538510 -0.619777
O8    O     O_R   0.909540 0.960950 0.551410 -0.622092
O9    O     O_R   0.909540 0.858160 0.448620 -0.619793
O10   O     O_R   0.551070 0.590720 0.641790 -0.624384
O11   O     O_R   0.448930 0.591350 0.540280 -0.624123
O12   O     O_R   0.358520 0.946380 0.906940 -0.616595
O13   O     O_R   0.641530 0.590130 0.550740 -0.612895
O14   O     O_R   0.539390 0.590760 0.449230 -0.623607
O15   O     O_R   0.551070 0.408650 0.459720 -0.623811
O16   O     O_R   0.448930 0.409280 0.358210 -0.614946
O17   O     O_R   0.460650 0.048500 0.906910 -0.624758
O18   O     O_R   0.551120 0.956920 0.905770 -0.620100
O19   O     O_R   0.449000 0.854790 0.905800 -0.628411
O20   O     O_R   0.641600 0.047410 0.086710 -0.615167
O21   O     O_R   0.539480 0.945290 0.086740 -0.632367
O22   O     O_R   0.551130 0.138990 0.087850 -0.627412
O23   O     O_R   0.449000 0.036870 0.087880 -0.614398
O24   O     O_R   0.909540 0.051950 0.461490 -0.615469
Zn1   Zn    Zn3+2 0.568200 0.499580 0.567780 0.947897
Zn2   Zn    Zn3+2 0.431800 0.500420 0.432220 0.950585
Zn3   Zn    Zn3+2 0.568250 0.065080 0.996810 0.952168
Zn4   Zn    Zn3+2 0.431870 0.928710 0.996840 0.949660
Zn5   Zn    Zn3+2 1.000000 0.068630 0.568630 0.951685
Zn6   Zn    Zn3+2 1.000000 0.931370 0.431370 0.951916

loop_
_geom_bond_atom_site_label_1
_geom_bond_atom_site_label_2
_ccdc_geom_bond_type
C27   C29   D    
C41   C42   D    
O9    Zn6   S    
C35   C36   A    
O4    Zn2   S    
C3    C6    S    
C12   C23   A    
C20   O6    A    
C36   C37   A    
C9    H26   S    
C37   C40   A    
C30   C31   D    
C11   H28   S    
C5    C17   S    
C16   O13   A    
C21   O9    A    
O6    Zn5   S    
C1    C2    S    
O13   Zn1   S    
C12   C37   A    
C14   O19   A    
C15   O21   A    
C3    H12   S    
O7    Zn6   S    
C4    O10   A    
C20   C24   S    
C8    C9    D    
C22   C25   S    
C27   H7    S    
C33   H11   S    
O2    Zn6   S    
O12   Zn4   S    
C12   C32   A    
C27   C30   S    
C18   O24   A    
C41   C43   S    
C38   H21   S    
C1    O1    A    
C34   C39   A    
C1    O4    A    
O8    Zn5   S    
C34   H1    S    
C41   H16   S    
C5    H22   S    
C36   H14   S    
C26   H6    S    
C42   H17   S    
C39   C40   A    
O10   Zn1   S    
O24   Zn5   S    
O3    Zn5   S    
C25   C26   D    
C39   H15   S    
C15   O20   A    
C7    C28   S    
C14   O18   A    
C11   C16   S    
C2    C38   S    
C2    C43   D    
C23   C34   A    
C21   O8    A    
C28   O16   A    
C18   C29   S    
C31   H10   S    
C25   H5    S    
O15   Zn1   S    
C10   H27   S    
C8    H25   S    
C18   O2    A    
C28   O15   A    
C16   O14   A    
O11   Zn2   S    
C22   C24   D    
C13   C26   S    
C17   O22   A    
O19   Zn4   S    
C43   H18   S    
C38   H20   S    
C29   H8    S    
O5    Zn6   S    
C4    C23   S    
C30   H9    S    
C19   O5    A    
C35   H13   S    
C24   H4    S    
C32   H3    S    
C19   O3    A    
C3    C5    D    
C19   C42   S    
C15   C31   S    
C6    C7    D    
C13   O12   A    
C20   O7    A    
O18   Zn3   S    
C32   C33   A    
C9    C21   S    
O23   Zn4   S    
C13   O17   A    
C33   C35   A    
O20   Zn3   S    
O14   Zn2   S    
C10   C11   D    
C14   C40   S    
O1    Zn1   S    
C6    H23   S    
C22   H2    S    
C4    O11   A    
C8    C10   S    
C7    H24   S    
C17   O23   A    
O16   Zn2   S    
O22   Zn3   S    
O17   Zn3   S    
O21   Zn4   S    
C38   H19   S    
