data_mof_unit_34635.cif
_audit_creation_date              2013-03-05T15:54:33-0500
_audit_creation_method            fapswitch 2.2
_symmetry_space_group_name_H-M    P1
_symmetry_Int_Tables_number       1
_space_group_crystal_system       triclinic
_cell_length_a                    18.875752
_cell_length_b                    18.837258
_cell_length_c                    12.564019
_cell_angle_alpha                 90.001056
_cell_angle_beta                  131.434458
_cell_angle_gamma                 89.999633
_cell_volume                      3349.23561406

loop_
_atom_site_label
_atom_site_type_symbol
_atom_site_description
_atom_site_fract_x
_atom_site_fract_y
_atom_site_fract_z
_atom_type_partial_charge
O1    O     O_R   0.608610 0.924520 0.551740 -0.580325
O2    O     O_R   0.608610 0.075480 0.551740 -0.575562
O3    O     O_R   0.108610 0.424520 0.551740 -0.575573
O4    O     O_R   0.108610 0.575480 0.551740 -0.580284
O5    O     O_R   0.564110 0.924510 0.685150 -0.551504
O6    O     O_R   0.564110 0.075490 0.685150 -0.552114
O7    O     O_R   0.064110 0.424510 0.685150 -0.552212
O8    O     O_R   0.064110 0.575490 0.685150 -0.551411
C1    C     C_R   0.612357 0.898396 0.652727 0.784632
C2    C     C_R   0.612190 0.101739 0.652557 0.785359
C3    C     C_R   0.112187 0.398258 0.652552 0.785250
C4    C     C_R   0.112361 0.601601 0.652731 0.784732
Cu1   Cu    Cu3+1 0.526340 0.000000 0.421010 0.927761
Cu2   Cu    Cu3+1 0.026340 0.500000 0.421010 0.927765
Cu3   Cu    Cu3+1 0.473640 0.000000 0.578990 0.936102
Cu4   Cu    Cu3+1 0.973640 0.500000 0.578990 0.936095
O9    O     O_R   0.435880 0.075470 0.314850 -0.582190
O10   O     O_R   0.435880 0.924530 0.314850 -0.589535
O11   O     O_R   0.935880 0.575470 0.314850 -0.589536
O12   O     O_R   0.935880 0.424530 0.314850 -0.582213
O13   O     O_R   0.391380 0.075460 0.448260 -0.593187
O14   O     O_R   0.391380 0.924540 0.448260 -0.589581
O15   O     O_R   0.891380 0.575460 0.448260 -0.589637
O16   O     O_R   0.891380 0.424540 0.448260 -0.593117
C5    C     C_R   0.384038 0.098843 0.342562 0.774443
C6    C     C_R   0.384085 0.901145 0.342618 0.769906
C7    C     C_R   0.884087 0.598857 0.342622 0.769870
C8    C     C_R   0.884035 0.401159 0.342556 0.774440
C9    C     C_R   0.648938 0.309146 0.099390 -0.192335
C10   C     C_R   0.648721 0.690149 0.097789 -0.194314
C11   C     C_R   0.148691 0.809896 0.097713 -0.194337
C12   C     C_R   0.148962 0.190887 0.099448 -0.192307
H1    H     H_    0.217018 0.876881 0.280017 0.145908
H2    H     H_    0.217786 0.124083 0.282153 0.144868
H3    H     H_    0.717765 0.375945 0.282108 0.144937
H4    H     H_    0.717048 0.623163 0.280086 0.145882
H5    H     H_    0.509346 0.242857 0.860078 0.139914
H6    H     H_    0.509150 0.755386 0.857158 0.137150
H7    H     H_    0.009121 0.744670 0.857057 0.137145
H8    H     H_    0.009370 0.257181 0.860153 0.139892
H9    H     H_    0.583606 0.307980 0.079440 0.129070
H10   H     H_    0.582957 0.690697 0.076612 0.128017
H11   H     H_    0.082917 0.809366 0.076507 0.128021
H12   H     H_    0.083636 0.192063 0.079514 0.129063
C13   C     C_R   0.309879 0.850371 0.241472 -0.047433
C14   C     C_R   0.309725 0.149593 0.241380 -0.043602
C15   C     C_R   0.809714 0.350418 0.241359 -0.043623
C16   C     C_R   0.809889 0.649638 0.241489 -0.047423
C17   C     C_R   0.758864 0.167118 0.756994 -0.179998
C18   C     C_R   0.761130 0.835516 0.760965 -0.186873
C19   C     C_R   0.261154 0.664458 0.761007 -0.186841
C20   C     C_R   0.258849 0.332865 0.756968 -0.179982
C21   C     C_R   0.334355 0.709094 0.863731 -0.152220
C22   C     C_R   0.330883 0.286793 0.857330 -0.134718
C23   C     C_R   0.830897 0.213192 0.857354 -0.134857
C24   C     C_R   0.834327 0.790877 0.863680 -0.152210
C25   C     C_R   0.329287 0.746800 0.953649 -0.185987
C26   C     C_R   0.326088 0.249568 0.947950 -0.187255
C27   C     C_R   0.826092 0.250431 0.947953 -0.187273
C28   C     C_R   0.829269 0.753185 0.953619 -0.186001
C29   C     C_R   0.746331 0.244256 0.936292 0.081327
C30   C     C_R   0.748128 0.757335 0.938903 0.079328
C31   C     C_R   0.248132 0.742667 0.938901 0.079342
C32   C     C_R   0.246335 0.255752 0.936308 0.081321
C33   C     C_R   0.668209 0.203586 0.822755 0.078007
C34   C     C_R   0.669431 0.796980 0.823804 0.075510
C35   C     C_R   0.169433 0.703026 0.823790 0.075464
C36   C     C_R   0.168212 0.296422 0.822773 0.078044
C37   C     C_R   0.242028 0.777005 0.033600 0.070998
C38   C     C_R   0.240988 0.222291 0.032429 0.071912
C39   C     C_R   0.740976 0.277726 0.032399 0.071903
C40   C     C_R   0.742035 0.723006 0.033621 0.070973
C41   C     C_R   0.655309 0.275812 0.005996 0.165161
C42   C     C_R   0.655698 0.723954 0.005418 0.166743
C43   C     C_R   0.155679 0.776079 0.005360 0.166731
C44   C     C_R   0.155328 0.224216 0.006046 0.165191
C45   C     C_R   0.576212 0.242365 0.884724 -0.244147
C46   C     C_R   0.576488 0.756763 0.883227 -0.246253
C47   C     C_R   0.076468 0.743277 0.883154 -0.246286
C48   C     C_R   0.076232 0.257665 0.884783 -0.244138
C49   C     C_R   0.581966 0.207886 0.793210 -0.191629
C50   C     C_R   0.582651 0.791516 0.792395 -0.196407
C51   C     C_R   0.082643 0.708507 0.792347 -0.196431
C52   C     C_R   0.081976 0.292131 0.793251 -0.191623
C53   C     C_R   0.319168 0.812412 0.155800 -0.250373
C54   C     C_R   0.318409 0.187097 0.154623 -0.256763
C55   C     C_R   0.818398 0.312913 0.154604 -0.256746
C56   C     C_R   0.819170 0.687588 0.155800 -0.250389
C57   C     C_R   0.225314 0.847462 0.214780 -0.197224
C58   C     C_R   0.225631 0.153072 0.216017 -0.193198
C59   C     C_R   0.725612 0.346953 0.215975 -0.193200
C60   C     C_R   0.725338 0.652571 0.214835 -0.197249
C61   C     C_R   0.678304 0.160202 0.740986 -0.115926
C62   C     C_R   0.679482 0.840724 0.742432 -0.117155
C63   C     C_R   0.179493 0.659269 0.742444 -0.117117
C64   C     C_R   0.178298 0.339794 0.740981 -0.116005
H13   H     H_    0.387385 0.812904 0.185748 0.151022
H14   H     H_    0.386433 0.186665 0.183861 0.149427
H15   H     H_    0.886426 0.313338 0.183853 0.149449
H16   H     H_    0.887379 0.687077 0.185719 0.151043
H17   H     H_    0.767627 0.135256 0.694608 0.150159
H18   H     H_    0.769917 0.867838 0.699071 0.147366
H19   H     H_    0.269947 0.632125 0.699131 0.147401
H20   H     H_    0.267605 0.364716 0.694565 0.150134
H21   H     H_    0.389477 0.779618 0.031577 0.129910
H22   H     H_    0.385120 0.215309 0.023715 0.122708
H23   H     H_    0.885122 0.284693 0.023716 0.122768
H24   H     H_    0.889458 0.720364 0.031539 0.129904
H25   H     H_    0.397051 0.712621 0.877140 0.126368
H26   H     H_    0.392526 0.281731 0.868366 0.126048
H27   H     H_    0.892547 0.218246 0.868405 0.126061
H28   H     H_    0.897013 0.787337 0.877066 0.126362
H29   H     H_    0.517038 0.186182 0.697252 0.176277
H30   H     H_    0.517716 0.812701 0.695629 0.173199
H31   H     H_    0.017713 0.687320 0.695575 0.173187
H32   H     H_    0.017044 0.313832 0.697295 0.176275
C65   C     C_R   0.689602 0.988470 0.300551 -0.293043
C66   C     C_R   0.189679 0.510901 0.300627 -0.293048
H33   H     H_    0.708802 0.986548 0.488181 0.124651
H34   H     H_    0.208856 0.513104 0.488228 0.124621
H35   H     H_    0.734323 0.982312 0.148241 0.148468
H36   H     H_    0.234446 0.516699 0.148373 0.148435
H37   H     H_    0.764215 0.979914 0.359729 0.142188
H38   H     H_    0.264340 0.519187 0.359842 0.142197
N1    N     N_R   0.566260 0.000000 0.302220 -0.178112
N2    N     N_R   0.066260 0.500000 0.302220 -0.178111
C67   C     C_R   0.341759 0.014846 0.619800 0.025156
C68   C     C_R   0.841704 0.485362 0.619737 0.025179
C69   C     C_R   0.310460 0.041859 0.685270 0.107065
C70   C     C_R   0.810286 0.458451 0.685098 0.107050
C71   C     C_R   0.373993 0.046877 0.832726 -0.196358
C72   C     C_R   0.873791 0.453293 0.832533 -0.196343
C73   C     C_R   0.465761 0.017192 0.919340 -0.088815
C74   C     C_R   0.965700 0.482730 0.919286 -0.088797
C75   C     C_R   0.499554 0.001920 0.847718 0.264492
C76   C     C_R   0.999553 0.497931 0.847721 0.264496
C77   C     C_R   0.527675 0.008603 0.073645 -0.023880
C78   C     C_R   0.027652 0.491189 0.073637 -0.023916
C79   C     C_R   0.624626 0.995139 0.152424 0.111354
C80   C     C_R   0.124680 0.504295 0.152486 0.111394
C81   C     C_R   0.658781 0.989305 0.084911 -0.307140
C82   C     C_R   0.158870 0.509932 0.085009 -0.307107
C83   C     C_R   0.600992 0.994032 0.938570 0.175512
C84   C     C_R   0.101033 0.505590 0.938626 0.175459
C85   C     C_R   0.499064 0.007974 0.154971 0.330186
C86   C     C_R   0.999044 0.492022 0.154964 0.330266
C87   C     C_R   0.659004 0.991920 0.373837 0.034812
C88   C     C_R   0.159041 0.507784 0.373873 0.034814
N3    N     N_R   0.434410 0.000000 0.697680 -0.209920
N4    N     N_R   0.934410 0.500000 0.697680 -0.209903
H39   H     H_    0.294731 0.013463 0.505191 0.119204
H40   H     H_    0.794691 0.486843 0.505135 0.119189
H41   H     H_    0.350612 0.078694 0.874792 0.173956
H42   H     H_    0.850251 0.421543 0.874432 0.174001
C89   C     C_3   0.395092 0.012232 0.078978 -0.793215
H43   H     H_    0.373877 0.992339 0.134519 0.273152
H44   H     H_    0.372439 0.068491 0.058511 0.201155
H45   H     H_    0.352544 0.978715 0.982201 0.197894
C90   C     C_3   0.895070 0.487853 0.078973 -0.793177
H46   H     H_    0.872336 0.431610 0.058323 0.201024
H47   H     H_    0.873866 0.507650 0.134577 0.273175
H48   H     H_    0.852590 0.521465 0.982331 0.197914
N5    N     N_3   0.216301 0.069029 0.603809 -0.588212
H49   H     H_    0.178550 0.063629 0.495173 0.200633
H50   H     H_    0.182001 0.037336 0.626050 0.219508
N6    N     N_3   0.716006 0.431526 0.603526 -0.588280
H51   H     H_    0.678286 0.436998 0.494914 0.200636
H52   H     H_    0.681847 0.463324 0.625881 0.219507
N7    N     N_3   0.652918 0.998506 0.893624 -0.493799
H53   H     H_    0.696629 0.043336 0.940734 0.203789
H54   H     H_    0.697794 0.954401 0.932862 0.202614
N8    N     N_3   0.152921 0.501572 0.893592 -0.493817
H55   H     H_    0.197693 0.545752 0.933136 0.202671
H56   H     H_    0.196729 0.456788 0.940323 0.203758

loop_
_geom_bond_atom_site_label_1
_geom_bond_atom_site_label_2
_geom_bond_distance
_ccdc_geom_bond_type
C7    C16   1.461434 S    
C3    C64   1.472927 S    
C25   H21   1.076722 S    
C8    C15   1.461996 S    
C73   C77   1.466904 A    
C23   C27   1.390188 A    
C89   H44   1.107508 S    
N7    H53   1.047805 S    
Cu4   O16   1.937470 S    
C13   C53   1.396575 A    
N5    H49   1.045863 S    
O10   C6    1.312644 A    
C16   C60   1.398186 A    
Cu3   N3    2.057565 S    
C48   C52   1.385956 A    
H2    C58   1.083255 S    
N2    C86   1.395886 A    
C20   C64   1.401769 A    
C9    H9    1.083952 S    
H3    C59   1.083253 S    
C35   C51   1.412073 A    
C77   C79   1.412676 A    
C22   H26   1.081041 S    
O5    C1    1.314645 A    
C36   C64   1.420828 A    
C11   H11   1.083835 S    
Cu1   O10   1.923888 S    
C32   C36   1.418530 A    
C77   C85   1.437408 A    
N5    H50   1.045537 S    
C80   C82   1.367717 A    
H1    C57   1.083173 S    
C81   C83   1.387051 A    
C17   H17   1.083292 S    
C10   C42   1.404307 A    
C9    C41   1.404404 A    
H33   C87   1.081853 S    
C69   N5    1.435537 S    
Cu2   O12   1.923888 S    
C28   C30   1.418207 A    
O8    Cu4   1.924246 S    
O2    Cu1   1.937790 S    
C46   C50   1.385711 A    
C6    C13   1.461417 S    
C67   H39   1.081826 S    
O6    Cu3   1.924246 S    
C33   C49   1.412314 A    
C68   H40   1.081825 S    
Cu3   O14   1.937470 S    
C12   C58   1.393392 A    
C31   C37   1.424334 A    
N8    H56   1.047675 S    
C11   C57   1.392981 A    
C19   C63   1.401459 A    
C72   H42   1.068582 S    
C44   C48   1.391667 A    
H8    C48   1.082472 S    
C4    C63   1.471672 S    
C25   C31   1.418208 A    
C32   C38   1.423826 A    
O4    C4    1.318414 A    
O11   C7    1.312647 A    
C28   H24   1.076720 S    
C53   H13   1.076327 S    
C34   C62   1.420188 A    
Cu1   N1    2.069721 S    
H4    C60   1.083174 S    
C75   C83   1.448625 A    
C35   C63   1.420164 A    
C89   H45   1.108868 S    
N6    H52   1.045513 S    
N7    H54   1.047921 S    
C65   C79   1.400919 A    
C66   C80   1.400938 A    
C40   C56   1.401206 A    
C20   C22   1.386649 A    
O7    C3    1.314429 A    
C55   H15   1.076762 S    
C26   C32   1.417651 A    
C31   C35   1.418609 A    
C27   C29   1.417653 A    
C30   C34   1.418617 A    
C36   C52   1.412315 A    
H35   C81   1.087225 S    
C71   H41   1.068650 S    
O1    C1    1.318434 A    
C50   H30   1.080471 S    
C40   C42   1.420352 A    
N1    C87   1.346339 A    
C39   C41   1.419933 A    
C21   C25   1.390298 A    
C18   C62   1.401457 A    
C74   C76   1.435000 A    
C86   C90   1.513093 S    
O12   C8    1.312849 A    
C2    C61   1.472904 S    
C17   C23   1.386645 A    
H5    C45   1.082470 S    
C18   C24   1.386219 A    
C24   C28   1.390296 A    
C26   H22   1.077204 S    
C15   C55   1.396626 A    
C70   C72   1.392412 A    
C67   C69   1.388443 A    
C12   C44   1.404405 A    
C51   H31   1.080475 S    
C34   C50   1.412078 A    
C70   N6    1.435500 S    
C11   C43   1.404304 A    
C90   H46   1.107496 S    
C45   C49   1.385957 A    
O8    C4    1.314655 A    
C16   C56   1.396586 A    
C12   H12   1.083955 S    
C90   H48   1.108864 S    
C30   C40   1.424348 A    
C66   H38   1.084554 S    
C83   N7    1.420989 S    
C56   H16   1.076324 S    
O3    Cu2   1.937821 S    
C78   C80   1.412544 A    
C39   C55   1.400957 A    
C72   C74   1.415102 A    
O7    Cu4   1.924268 S    
C18   H18   1.083354 S    
Cu4   O15   1.937498 S    
O15   C7    1.316424 A    
Cu1   Cu3   2.746351 S    
C38   C44   1.419933 A    
N6    H51   1.045846 S    
Cu2   Cu4   2.746351 S    
O1    Cu1   1.937821 S    
H36   C82   1.087189 S    
C38   C54   1.400969 A    
C14   C54   1.396639 A    
C9    C59   1.393396 A    
C37   C53   1.401198 A    
N8    H55   1.047822 S    
C22   C26   1.390190 A    
C68   N4    1.352438 A    
O13   C5    1.316519 A    
C20   H20   1.083294 S    
N2    C88   1.346241 A    
C13   C57   1.398187 A    
C23   H27   1.081040 S    
C15   C59   1.398579 A    
Cu2   O11   1.923907 S    
C10   H10   1.083833 S    
O16   C8    1.316515 A    
C71   C73   1.415117 A    
C68   C70   1.388392 A    
C74   C78   1.467037 A    
C76   N4    1.413951 A    
H34   C88   1.081856 S    
C14   C58   1.398582 A    
H6    C46   1.082854 S    
C84   N8    1.420765 S    
Cu2   N2    2.069721 S    
Cu1   O9    1.923907 S    
C65   C87   1.374579 A    
C17   C61   1.401769 A    
C66   C88   1.374468 A    
C90   H47   1.075815 S    
C65   H37   1.084618 S    
O9    C5    1.312854 A    
C76   C84   1.448750 A    
N1    C85   1.395809 A    
C67   N3    1.352507 A    
C47   C51   1.385712 A    
C79   C81   1.367852 A    
C29   C39   1.423810 A    
C43   C47   1.391525 A    
C78   C86   1.437428 A    
C1    C62   1.471693 S    
C33   C61   1.420807 A    
C37   C43   1.420354 A    
C82   C84   1.386943 A    
O4    Cu2   1.937790 S    
C54   H14   1.076761 S    
C27   H23   1.077205 S    
O5    Cu3   1.924268 S    
O3    C3    1.319248 A    
O6    C2    1.314433 A    
O14   C6    1.316417 A    
C85   C89   1.513149 S    
C29   C33   1.418518 A    
Cu3   O13   1.937498 S    
C52   H32   1.080325 S    
C42   C46   1.391522 A    
C49   H29   1.080323 S    
C89   H43   1.075913 S    
C73   C75   1.434933 A    
C41   C45   1.391669 A    
C75   N3    1.413849 A    
C21   H25   1.081400 S    
C19   C21   1.386219 A    
Cu4   N4    2.057565 S    
C19   H19   1.083354 S    
C5    C14   1.462011 S    
C24   H28   1.081399 S    
H7    C47   1.082851 S    
C69   C71   1.392420 A    
C10   C60   1.392980 A    
O2    C2    1.319231 A    
