data_mof_unit_15754.cif
_audit_creation_date              2012-12-10T18:36:07-0500
_audit_creation_method            fapswitch 2.2
_symmetry_space_group_name_H-M    P1
_symmetry_Int_Tables_number       1
_space_group_crystal_system       triclinic
_cell_length_a                    15.117884
_cell_length_b                    13.862886
_cell_length_c                    15.008538
_cell_angle_alpha                 90.109813
_cell_angle_beta                  90.318769
_cell_angle_gamma                 89.948342
_cell_volume                      3145.3962031

loop_
_atom_site_label
_atom_site_type_symbol
_atom_type_description
_atom_site_fract_x
_atom_site_fract_y
_atom_site_fract_z
_atom_type_partial_charge
C1    C     C_R   0.329914 0.500040 0.500391 0.799746
C2    C     C_R   0.670129 0.499984 0.499670 0.798557
C3    C     C_R   0.336062 0.487988 0.041873 0.453253
C4    C     C_R   0.661548 0.523794 0.958325 0.434555
C5    C     C_R   0.094913 0.580332 0.469488 -0.171717
C6    C     C_R   0.904943 0.416146 0.476511 -0.165707
C7    C     C_R   0.904917 0.583361 0.524651 -0.184668
C8    C     C_R   0.095577 0.419391 0.532878 -0.168123
C9    C     C_R   0.186800 0.580730 0.469984 -0.159669
C10   C     C_R   0.813037 0.416213 0.476042 -0.194388
C11   C     C_R   0.813050 0.583791 0.523124 -0.195169
C12   C     C_R   0.187487 0.419355 0.532363 -0.216065
C13   C     C_R   0.233491 0.500128 0.501113 -0.036613
C14   C     C_R   0.766616 0.500081 0.499191 -0.030171
C15   C     C_R   0.048629 0.499797 0.501201 0.104177
C16   C     C_R   0.951537 0.499683 0.500957 0.107265
C17   C     C_R   0.570137 0.107889 0.538234 -0.281954
C18   C     C_R   0.455626 0.891975 0.433249 -0.282015
C19   C     C_R   0.429841 0.107870 0.461857 -0.283456
C20   C     C_R   0.544385 0.892136 0.566793 -0.283356
C21   C     C_R   0.568521 0.209362 0.538082 0.078268
C22   C     C_R   0.455946 0.790498 0.434834 0.083764
C23   C     C_R   0.431448 0.209329 0.462077 0.068610
C24   C     C_R   0.544054 0.790649 0.565187 0.081675
C25   C     C_R   0.500003 0.054648 0.500020 0.135495
C26   C     C_R   0.500007 0.945284 0.500024 0.130946
C27   C     C_R   0.498283 0.499857 0.328915 0.871151
C28   C     C_R   0.501771 0.500065 0.671009 0.858103
C29   C     C_R   0.583828 0.504096 0.814021 0.370687
C30   C     C_R   0.417181 0.484368 0.185892 0.393367
C31   C     C_R   0.503182 0.500176 0.767242 -0.157024
C32   C     C_R   0.496806 0.499528 0.232528 -0.161914
C33   C     C_R   0.422825 0.497036 0.811762 -0.287006
C34   C     C_R   0.576010 0.513787 0.187900 -0.292358
C35   C     C_R   0.421050 0.497006 0.904381 0.086620
C36   C     C_R   0.577649 0.513110 0.095366 0.082896
C37   C     C_R   0.500769 0.503090 0.953054 -0.040824
C38   C     C_R   0.498033 0.502679 0.046711 -0.044174
C39   C     C_R   0.583015 0.510190 0.908029 -0.068621
C40   C     C_R   0.416056 0.491689 0.091759 -0.063419
C41   C     C_R   0.340081 0.492959 0.948399 -0.310364
C42   C     C_R   0.658108 0.523845 0.051218 -0.295207
Cu1   Cu    Cu3+1 0.500000 0.596430 0.500000 0.954670
Cu2   Cu    Cu3+1 0.500000 0.403570 0.500000 0.931327
H1    H     H_    0.279665 0.494222 0.909405 0.147121
H2    H     H_    0.719058 0.532250 0.088859 0.155031
H3    H     H_    0.221279 0.643366 0.444726 0.148933
H4    H     H_    0.778382 0.350934 0.456995 0.146467
H5    H     H_    0.778438 0.648995 0.542289 0.154527
H6    H     H_    0.222559 0.356643 0.557152 0.150066
H7    H     H_    0.626875 0.071925 0.567222 0.125530
H8    H     H_    0.421647 0.927894 0.379070 0.128857
H9    H     H_    0.373058 0.071915 0.432936 0.127037
H10   H     H_    0.578362 0.928187 0.620987 0.126951
H11   H     H_    0.622711 0.248507 0.568419 0.109423
H12   H     H_    0.420987 0.751094 0.383326 0.127889
H13   H     H_    0.377193 0.248512 0.432129 0.125147
H14   H     H_    0.578994 0.751356 0.616695 0.126831
N1    N     N_R   0.500000 0.258690 0.500000 -0.169522
N2    N     N_R   0.500000 0.741310 0.500000 -0.175215
O1    O     O_R   0.371460 0.581430 0.500010 -0.583308
O2    O     O_R   0.628540 0.418570 0.499990 -0.603307
O3    O     O_R   0.628540 0.581430 0.499990 -0.584145
O4    O     O_R   0.371460 0.418570 0.500010 -0.601769
O5    O     O_R   0.499980 0.581440 0.370260 -0.584580
O6    O     O_R   0.500020 0.418560 0.629740 -0.596350
O7    O     O_R   0.500020 0.581440 0.629740 -0.579090
O8    O     O_R   0.499980 0.418560 0.370260 -0.590466
O9    O     O_3   0.662679 0.505783 0.767455 -0.603585
C43   C     C_3   0.691594 0.409855 0.753333 0.089259
H15   H     H_    0.654348 0.377852 0.696542 0.145275
H16   H     H_    0.682342 0.363474 0.813339 0.137002
C44   C     C_3   0.790185 0.410395 0.731124 -0.303387
H17   H     H_    0.803202 0.464227 0.678308 0.230544
H18   H     H_    0.828883 0.431477 0.791193 0.239174
C45   C     C_3   0.821556 0.311507 0.699548 -0.944443
H19   H     H_    0.811246 0.256839 0.752481 0.255196
H20   H     H_    0.893167 0.314760 0.683738 0.259699
H21   H     H_    0.784883 0.289383 0.638527 0.252286
O10   O     O_3   0.341014 0.465257 0.233523 -0.580969
C46   C     C_3   0.328794 0.364159 0.236764 0.075083
H22   H     H_    0.386620 0.327801 0.268497 0.134590
H23   H     H_    0.319774 0.333973 0.168506 0.136183
C47   C     C_3   0.246581 0.341965 0.291804 -0.306615
H24   H     H_    0.259514 0.361413 0.362316 0.222129
H25   H     H_    0.189879 0.385954 0.267650 0.237800
C48   C     C_3   0.221982 0.235386 0.286498 -0.974421
H26   H     H_    0.204363 0.215448 0.216913 0.255682
H27   H     H_    0.164053 0.221357 0.329733 0.262825
H28   H     H_    0.278001 0.189717 0.309425 0.250377
H29   H     H_    0.361576 0.493773 0.773774 0.145392
H30   H     H_    0.636727 0.523851 0.225730 0.147647
O11   O     O_3   0.255196 0.492462 0.085785 -0.567041
C49   C     C_3   0.191888 0.426742 0.050885 0.050076
H31   H     H_    0.166995 0.382596 0.107006 0.161781
H32   H     H_    0.218780 0.374120 0.001623 0.112488
C50   C     C_3   0.113517 0.482453 0.011326 -0.335560
H33   H     H_    0.083183 0.527873 0.064104 0.230300
H34   H     H_    0.136549 0.530881 0.957405 0.212589
C51   C     C_3   0.043481 0.414197 0.973640 -0.922265
H35   H     H_    0.071773 0.369717 0.919127 0.254199
H36   H     H_    0.987265 0.456674 0.946372 0.258715
H37   H     H_    0.018245 0.366047 0.026818 0.258184
O12   O     O_3   0.742770 0.533894 0.917597 -0.594642
C52   C     C_3   0.763357 0.633077 0.912468 0.099226
H38   H     H_    0.776734 0.662528 0.980329 0.125564
H39   H     H_    0.708208 0.674559 0.880875 0.147083
C53   C     C_3   0.846036 0.645711 0.855555 -0.318980
H40   H     H_    0.901566 0.603881 0.885212 0.212581
H41   H     H_    0.832980 0.617594 0.787345 0.233005
C54   C     C_3   0.872790 0.751543 0.849135 -0.941842
H42   H     H_    0.818755 0.794461 0.818101 0.254620
H43   H     H_    0.932826 0.758097 0.807296 0.258055
H44   H     H_    0.887800 0.780990 0.916421 0.257395
H45   H     H_    0.060092 0.642479 0.443243 0.128132
H46   H     H_    0.939517 0.351168 0.456727 0.125852
H47   H     H_    0.939452 0.648109 0.545347 0.129785
H48   H     H_    0.061277 0.357062 0.558939 0.124774

loop_
_geom_bond_atom_site_label_1
_geom_bond_atom_site_label_2
_ccdc_geom_bond_type
C38   C40   A    
C48   H26   S    
O11   C49   S    
C44   H17   S    
C7    H47   S    
C36   C42   A    
C54   H42   S    
C18   C26   A    
C47   C48   S    
C17   H7    S    
C46   H22   S    
C18   H8    S    
Cu2   O4    S    
C23   N1    A    
C52   H39   S    
C4    C42   A    
C11   H5    S    
C35   C37   A    
C47   H25   S    
C21   N1    A    
C33   H29   S    
C22   N2    A    
C11   C14   A    
C8    H48   S    
Cu2   N1    S    
C15   C16   S    
C53   H40   S    
C42   H2    S    
C9    C13   A    
C28   O6    A    
C27   O8    A    
C50   H34   S    
Cu2   O6    S    
C20   C24   A    
C45   H21   S    
C43   H15   S    
Cu1   O5    S    
C30   O10   S    
C19   H9    S    
C5    H45   S    
C29   C31   A    
C44   H18   S    
O9    C43   S    
C2    C14   S    
C51   H36   S    
O12   C52   S    
C46   H23   S    
C50   H33   S    
C29   O9    S    
C52   C53   S    
Cu1   O3    S    
C28   O7    A    
C45   H19   S    
C20   H10   S    
C10   C14   A    
C21   H11   S    
C22   H12   S    
C49   C50   S    
Cu2   O2    S    
C25   C26   S    
C3    O11   S    
C51   H37   S    
C17   C21   A    
C32   C34   A    
C19   C23   A    
Cu1   Cu2   S    
C5    C9    A    
C37   C38   A    
C27   O5    A    
C7    C11   A    
C4    C39   A    
C8    C12   A    
C29   C39   A    
C43   C44   S    
C31   C33   A    
C30   C40   A    
C54   H43   S    
C47   H24   S    
C49   H32   S    
C6    H46   S    
Cu1   N2    S    
Cu1   O7    S    
C7    C16   A    
C3    C40   A    
C9    H3    S    
C8    C15   A    
C48   H27   S    
C10   H4    S    
C44   C45   S    
Cu2   O8    S    
C1    C13   S    
C1    O4    A    
C46   C47   S    
C2    O3    A    
Cu1   O1    S    
C23   H13   S    
C3    C41   A    
C50   C51   S    
C27   C32   S    
C18   C22   A    
C28   C31   S    
C45   H20   S    
O10   C46   S    
C1    O1    A    
C6    C10   A    
C12   H6    S    
C52   H38   S    
C53   C54   S    
C17   C25   A    
C36   C38   A    
C37   C39   A    
C30   C32   A    
C20   C26   A    
C4    O12   S    
C51   H35   S    
C33   C35   A    
C53   H41   S    
C54   H44   S    
C34   C36   A    
C49   H31   S    
C35   C41   A    
C34   H30   S    
C5    C15   A    
C19   C25   A    
C6    C16   A    
C12   C13   A    
C24   H14   S    
C48   H28   S    
C41   H1    S    
C43   H16   S    
C24   N2    A    
C2    O2    A    
