data_mof_unit_52313.cif
_audit_creation_date              2013-03-05T16:19:45-0500
_audit_creation_method            fapswitch 2.2
_symmetry_space_group_name_H-M    P1
_symmetry_Int_Tables_number       1
_space_group_crystal_system       triclinic
_cell_length_a                    10.731901
_cell_length_b                    9.716147
_cell_length_c                    27.617389
_cell_angle_alpha                 89.528
_cell_angle_beta                  89.475514
_cell_angle_gamma                 90.090537
_cell_volume                      2879.51817138

loop_
_atom_site_label
_atom_site_type_symbol
_atom_site_description
_atom_site_fract_x
_atom_site_fract_y
_atom_site_fract_z
_atom_type_partial_charge
O1    O     O_R   0.314910 0.616040 0.499990 -0.599628
O2    O     O_R   0.314910 0.383960 0.499990 -0.602005
C1    C     C_R   0.258500 0.499703 0.503205 1.076502
O3    O     O_R   0.500140 0.616020 0.428740 -0.529414
O4    O     O_R   0.500140 0.383980 0.428740 -0.538775
C2    C     C_R   0.501331 0.500546 0.405874 1.028524
Zn1   Zn    Zn3+2 0.500150 0.654960 0.499980 1.137536
Zn2   Zn    Zn3+2 0.500150 0.345040 0.499980 1.117784
O5    O     O_R   0.685320 0.616040 0.499970 -0.544568
O6    O     O_R   0.685320 0.383960 0.499970 -0.558584
O7    O     O_R   0.500090 0.616050 0.571230 -0.605190
O8    O     O_R   0.500090 0.383950 0.571230 -0.630246
C3    C     C_R   0.742354 0.500165 0.501676 1.047138
C4    C     C_R   0.497281 0.499099 0.594349 1.006653
C5    C     C_R   0.439236 0.577469 0.177269 0.619406
O9    O     O_2   0.348224 0.637148 0.203751 -0.428876
N1    N     N_R   0.533182 0.510632 0.200546 -0.350158
C6    C     C_R   0.626959 0.445888 0.176146 0.653188
C7    C     C_R   0.548343 0.627223 0.278265 -0.124413
C8    C     C_R   0.537155 0.625666 0.328368 -0.035745
C9    C     C_R   0.493826 0.380302 0.326890 -0.150724
C10   C     C_R   0.503512 0.382319 0.276624 0.741875
C11   C     C_R   0.530794 0.505992 0.252267 0.099048
C12   C     C_R   0.528620 0.508484 0.100312 -0.105957
C13   C     C_R   0.435239 0.580114 0.126413 -0.161049
C14   C     C_R   0.341495 0.652363 0.101020 0.250037
C15   C     C_R   0.628328 0.444373 0.125139 -0.130383
C16   C     C_R   0.509784 0.502230 0.353037 -0.168427
H1    H     H_    0.472500 0.284010 0.345210 0.266730
C17   C     C_R   0.483050 0.492343 0.647580 -0.176037
C18   C     C_R   0.395204 0.513036 0.976943 0.073753
C19   C     C_R   0.610045 0.430016 0.971213 -0.104522
C20   C     C_R   0.495337 0.462019 0.949003 0.030688
C21   C     C_R   0.275601 0.514366 0.956783 -0.149676
C22   C     C_R   0.257425 0.487505 0.907950 0.317665
C23   C     C_R   0.361733 0.464534 0.877575 -0.114805
C24   C     C_R   0.480365 0.445010 0.898602 -0.104423
C25   C     C_R   0.583770 0.409665 0.869295 -0.212873
C26   C     C_R   0.566962 0.403138 0.818888 0.628256
N2    N     N_R   0.456019 0.440508 0.799147 -0.355449
C27   C     C_R   0.353233 0.466531 0.826804 0.656088
C28   C     C_R   0.437415 0.349116 0.718093 -0.053496
C29   C     C_R   0.454034 0.363480 0.668567 -0.106430
C30   C     C_R   0.493105 0.608789 0.677829 0.243923
C31   C     C_R   0.479438 0.593000 0.728293 0.274607
C32   C     C_R   0.451529 0.462344 0.748031 0.101294
O10   O     O_2   0.245835 0.501365 0.804894 -0.404346
C33   C     C_R   0.415302 0.551739 0.025412 -0.057963
C34   C     C_R   0.520707 0.498509 0.049382 0.067345
C35   C     C_R   0.616267 0.432135 0.022612 0.065995
C36   C     C_R   0.333449 0.641230 0.050568 0.163472
H2    H     H_    0.443943 0.272219 0.646703 0.208268
H3    H     H_    0.418273 0.248391 0.733558 0.205482
H4    H     H_    0.194176 0.528495 0.979553 0.213541
O11   O     O_2   0.716359 0.381103 0.201610 -0.413308
C37   C     C_R   0.721770 0.375240 0.098259 0.300262
H5    H     H_    0.550533 0.720879 0.347690 0.269169
H6    H     H_    0.568852 0.722968 0.259457 0.216151
C38   C     C_R   0.713446 0.398311 0.941172 0.564932
C39   C     C_R   0.700642 0.387237 0.891087 0.232060
O12   O     O_2   0.660258 0.362384 0.789291 -0.433507
C40   C     C_R   0.712498 0.366587 0.048133 -0.147970
H7    H     H_    0.780279 0.302815 0.030094 0.244610
C41   C     C_3   0.072169 0.634219 0.529513 -0.017076
C42   C     C_3   0.070805 0.362835 0.529733 0.006948
H8    H     H_    0.101083 0.720682 0.505019 0.189775
H9    H     H_    0.092443 0.277608 0.504279 0.185280
C43   C     C_3   0.927486 0.636600 0.529412 0.044441
C44   C     C_3   0.926742 0.370496 0.532683 0.047117
H10   H     H_    0.900988 0.725261 0.506409 0.222027
H11   H     H_    0.893300 0.277757 0.514099 0.238459
C45   C     C_3   0.078812 0.498463 0.451014 0.952494
C46   C     C_3   0.122657 0.498844 0.505078 -0.422509
C47   C     C_3   0.878848 0.501552 0.503762 -0.484882
C48   C     C_3   0.931433 0.503813 0.448858 0.166933
C49   C     C_3   0.383285 0.081633 0.477770 0.407295
C50   C     C_3   0.382370 0.919003 0.478555 0.408348
H12   H     H_    0.301675 0.118166 0.499188 0.115143
H13   H     H_    0.302032 0.884128 0.501182 0.127264
C51   C     C_3   0.607514 0.082148 0.470938 1.078305
C52   C     C_3   0.605919 0.919831 0.469989 1.069254
C53   C     C_3   0.507052 0.079976 0.548779 -0.553589
C54   C     C_3   0.510193 0.918005 0.548578 -0.509464
N3    N     N_3   0.499750 0.138610 0.498940 -0.254245
N4    N     N_3   0.499750 0.861390 0.498940 -0.263253
H14   H     H_    0.590880 0.119727 0.567313 0.311633
H15   H     H_    0.597990 0.881711 0.565299 0.313895
H16   H     H_    0.425830 0.115244 0.570705 0.242257
H17   H     H_    0.432629 0.877829 0.571453 0.284002
N5    N     N_R   0.828666 0.314607 0.120688 0.259722
O13   O     O_R   0.855868 0.186404 0.112479 -0.272960
O14   O     O_R   0.912430 0.393882 0.139805 -0.233678
F1    F     F_    0.831133 0.393712 0.958723 -0.597043
N6    N     N_R   0.515786 0.743223 0.658244 0.219046
O15   O     O_R   0.629854 0.780815 0.648989 -0.257230
O16   O     O_R   0.430877 0.837466 0.663518 -0.311542
N7    N     N_R   0.809609 0.357907 0.862854 0.302459
O17   O     O_R   0.860919 0.454130 0.836333 -0.187853
O18   O     O_R   0.863608 0.238697 0.867004 -0.218580
N8    N     N_R   0.501122 0.707880 0.759592 0.231297
O19   O     O_R   0.602505 0.780595 0.755009 -0.235482
O20   O     O_R   0.418480 0.742579 0.791968 -0.302332
N9    N     N_R   0.128572 0.664705 0.576762 0.275016
O21   O     O_R   0.095560 0.599869 0.616139 -0.188631
O22   O     O_R   0.202387 0.770326 0.580509 -0.359243
N10   N     N_R   0.129249 0.317807 0.575345 0.274338
O23   O     O_R   0.222536 0.383167 0.594156 -0.374746
O24   O     O_R   0.101901 0.196191 0.592529 -0.272567
N11   N     N_R   0.871367 0.670831 0.576824 0.303782
O25   O     O_R   0.899006 0.788847 0.596007 -0.208755
O26   O     O_R   0.773323 0.606863 0.593438 -0.327209
N12   N     N_R   0.873953 0.356402 0.582082 0.284676
O27   O     O_R   0.779694 0.274297 0.589457 -0.316090
O28   O     O_R   0.927573 0.409056 0.619671 -0.181446
F2    F     F_    0.483861 0.264925 0.251510 -0.572856
F3    F     F_    0.135223 0.606365 0.425888 -0.564374
F4    F     F_    0.124033 0.381393 0.428218 -0.570063
N13   N     N_R   0.887595 0.632069 0.423780 0.249104
O29   O     O_R   0.952833 0.745218 0.422605 -0.224616
O30   O     O_R   0.774020 0.639513 0.407851 -0.303084
N14   N     N_R   0.886111 0.383111 0.420765 0.255802
O31   O     O_R   0.834346 0.400523 0.378698 -0.236554
O32   O     O_R   0.915233 0.257678 0.432931 -0.249142
F5    F     F_    0.367077 0.131222 0.431063 -0.504513
F6    F     F_    0.361865 0.867943 0.432595 -0.493995
F7    F     F_    0.607371 0.133925 0.424041 -0.541313
F8    F     F_    0.599838 0.875250 0.422574 -0.547728
F9    F     F_    0.717772 0.124574 0.491706 -0.599953
F10   F     F_    0.717508 0.872391 0.488342 -0.603792
N15   N     N_R   0.259034 0.744858 0.125572 0.279564
O33   O     O_R   0.296592 0.868073 0.136429 -0.254060
O34   O     O_R   0.147082 0.705262 0.137702 -0.209276
N16   N     N_R   0.132436 0.474243 0.890835 0.267428
O35   O     O_R   0.045779 0.556441 0.906627 -0.239984
O36   O     O_R   0.100834 0.363632 0.867727 -0.225603
N17   N     N_R   0.253985 0.734849 0.024551 0.217902
O37   O     O_R   0.137187 0.748392 0.036603 -0.258982
O38   O     O_R   0.298890 0.807533 0.988627 -0.303752

loop_
_geom_bond_atom_site_label_1
_geom_bond_atom_site_label_2
_geom_bond_distance
_ccdc_geom_bond_type
C41   N9    1.475524 S    
C54   H15   1.109827 S    
C7    C11   1.397899 A    
C7    C8    1.387782 A    
C12   C15   1.418343 A    
C51   N3    1.493036 S    
C49   N3    1.492322 S    
N12   O28   1.299722 A    
N7    O17   1.301336 A    
Zn1   N4    2.005686 S    
C31   C32   1.408130 A    
Zn1   O7    2.000663 S    
C40   H7    1.077556 S    
N10   O24   1.301826 A    
C41   C43   1.552956 S    
C23   C24   1.416550 A    
C49   H12   1.112607 S    
N11   O26   1.299367 A    
C28   H3    1.083172 S    
O4    C2    1.292166 A    
C51   C52   1.577599 S    
O7    C4    1.298996 A    
C42   C44   1.549418 S    
C29   H2    1.082723 S    
C5    C13   1.405582 A    
N10   O23   1.299399 A    
C43   C47   1.586170 S    
C5    O9    1.349369 S    
C42   C46   1.579727 S    
C5    N1    1.363283 A    
C21   C22   1.391205 A    
C28   C32   1.390557 A    
C44   H11   1.101858 S    
O5    C3    1.283071 A    
N13   O29   1.302461 A    
C52   F10   1.382947 S    
C33   C36   1.418296 A    
C2    C16   1.461163 S    
C22   C23   1.411842 A    
C42   H9    1.114002 S    
C45   F4    1.390558 S    
C41   C46   1.577741 S    
C18   C20   1.410221 A    
C22   N16   1.432258 S    
C14   N15   1.432540 S    
C37   N5    1.433868 S    
C50   N4    1.492382 S    
C38   C39   1.396292 A    
C48   N14   1.494645 S    
C9    C10   1.391125 A    
C52   F8    1.384698 S    
C17   C30   1.416504 A    
C23   C27   1.405922 A    
C48   N13   1.499170 S    
C4    C17   1.477507 S    
C45   C48   1.584240 S    
C26   O12   1.348716 S    
N12   O27   1.300840 A    
N7    O18   1.300650 A    
C50   H13   1.111027 S    
C7    H6    1.083034 S    
C54   H17   1.108910 S    
C47   C48   1.613032 S    
C49   F5    1.385807 S    
C49   C50   1.580121 S    
N17   O38   1.301514 A    
C39   N7    1.429946 S    
C26   N2    1.362587 A    
C15   C37   1.415852 A    
C45   C46   1.569623 S    
C8    C16   1.403770 A    
O3    Zn1   2.006570 S    
C13   C14   1.415546 A    
C53   H14   1.109549 S    
C9    H1    1.083095 S    
O6    C3    1.284862 A    
C20   C24   1.413654 A    
O1    C1    1.283454 A    
C41   H8    1.116064 S    
N15   O34   1.301069 A    
C10   F2    1.357020 S    
C24   C25   1.412043 A    
C36   N17   1.440077 S    
N5    O14   1.301271 A    
Zn2   O8    2.006780 S    
N8    O20   1.300437 A    
N1    C6    1.363546 A    
C27   O10   1.348992 S    
C18   C21   1.403825 A    
C44   C47   1.586316 S    
N9    O22   1.300800 A    
N1    C11   1.428736 S    
C12   C13   1.416186 A    
N6    O16   1.300934 A    
C19   C35   1.422003 A    
N14   O31   1.302255 A    
C6    O11   1.348426 S    
C25   C39   1.412583 A    
O3    C2    1.292014 A    
C33   C34   1.412539 A    
C54   N4    1.486423 S    
C9    C16   1.403554 A    
O8    C4    1.292993 A    
C21   H4    1.081505 S    
C53   N3    1.488088 S    
C18   C33   1.411754 A    
N16   O35   1.301388 A    
C35   C40   1.406032 A    
C37   C40   1.392053 A    
C17   C29   1.408566 A    
C28   C29   1.383620 A    
N2    C32   1.427092 S    
C42   N10   1.475752 S    
C50   F6    1.385925 S    
C30   C31   1.407126 A    
C12   C34   1.413984 A    
Zn1   O5    2.023471 S    
N2    C27   1.361169 A    
O1    Zn1   2.023034 S    
O2    Zn2   2.024208 S    
C6    C15   1.408799 A    
N17   O37   1.301109 A    
C31   N8    1.437349 S    
O4    Zn2   2.000449 S    
C51   F9    1.383402 S    
C45   F3    1.387611 S    
C19   C20   1.414309 A    
O2    C1    1.281354 A    
N11   O25   1.302027 A    
N5    O13   1.301089 A    
C25   C26   1.407324 A    
C51   F7    1.385595 S    
C53   H16   1.112940 S    
N8    O19   1.300990 A    
C44   N12   1.477657 S    
N15   O33   1.300836 A    
C43   N11   1.476886 S    
N6    O15   1.299480 A    
C1    C46   1.458305 S    
N13   O30   1.301538 A    
N14   O32   1.300863 A    
C30   N6    1.429292 S    
C3    C47   1.466538 S    
Zn2   O6    2.022296 S    
C34   C35   1.417849 A    
Zn2   N3    2.006146 S    
N9    O21   1.298436 A    
N16   O36   1.300543 A    
C43   H10   1.105267 S    
C10   C11   1.401455 A    
C38   F1    1.357620 S    
C19   C38   1.415291 A    
C53   C54   1.574210 S    
C8    H5    1.081808 S    
C14   C36   1.401869 A    
C52   N4    1.494569 S    
