data_mof_unit_6408.cif
_audit_creation_date              2013-03-05T16:06:48-0500
_audit_creation_method            fapswitch 2.2
_symmetry_space_group_name_H-M    P1
_symmetry_Int_Tables_number       1
_space_group_crystal_system       triclinic
_cell_length_a                    6.953524
_cell_length_b                    14.554615
_cell_length_c                    16.163499
_cell_angle_alpha                 90.435637
_cell_angle_beta                  90.303152
_cell_angle_gamma                 89.905561
_cell_volume                      1635.76859741

loop_
_atom_site_label
_atom_site_type_symbol
_atom_site_description
_atom_site_fract_x
_atom_site_fract_y
_atom_site_fract_z
_atom_type_partial_charge
O1    O     O_R   0.505830 0.583360 0.413880 -0.585414
O2    O     O_R   0.175830 0.595460 0.585520 -0.598513
O3    O     O_R   0.005520 0.416640 0.586120 -0.605454
C1    C     C_R   0.344625 0.617161 0.614643 0.962144
O4    O     O_R   0.176120 0.594390 0.414490 -0.606715
O5    O     O_R   0.005810 0.415570 0.413870 -0.594619
C2    C     C_R   0.344789 0.616632 0.386199 0.960145
O6    O     O_R   0.505540 0.584430 0.586130 -0.595771
O7    O     O_3   0.339200 0.441330 0.500000 -0.276433
V1    V     V_3+5 0.064350 0.510880 0.500000 1.138213
O8    O     O_R   0.676100 0.404540 0.414480 -0.597028
C3    C     C_R   0.844431 0.382972 0.385517 0.992381
O9    O     O_R   0.675810 0.405610 0.585510 -0.601339
C4    C     C_R   0.845514 0.384553 0.614299 1.047856
V2    V     V_3+5 0.564340 0.489120 0.500000 1.153640
O10   O     O_3   0.839360 0.558670 0.500000 -0.285215
C5    C     C_2   0.719498 0.226550 0.798679 0.618469
C6    C     C_2   0.880573 0.179629 0.820573 -0.652434
C7    C     C_2   0.709246 0.285068 0.723033 -0.261354
C8    C     C_2   0.862743 0.320515 0.684457 -0.525155
C9    C     C_R   0.749170 0.254148 0.184441 0.026490
C10   C     C_R   0.885825 0.183667 0.185014 -0.334396
C11   C     C_R   0.023540 0.185147 0.250084 0.521064
C12   C     C_R   0.009777 0.251787 0.314344 -0.343927
H1    H     H_    0.116963 0.251969 0.363237 0.159956
C13   C     C_R   0.856263 0.315156 0.317194 -0.306336
C14   C     C_R   0.733549 0.317887 0.248146 0.114833
C15   C     C_3   0.519567 0.324416 0.237540 0.428810
C16   C     C_3   0.539828 0.254258 0.166533 -0.600111
H2    H     H_    0.472663 0.186929 0.179701 0.242707
C17   C     C_R   0.504707 0.748336 0.690549 0.082582
C18   C     C_R   0.352436 0.685971 0.682854 -0.214996
C19   C     C_R   0.207736 0.689544 0.743510 -0.324671
C20   C     C_R   0.223276 0.749149 0.812848 0.656996
C21   C     C_R   0.378460 0.811499 0.819893 -0.397075
C22   C     C_R   0.515982 0.810794 0.756870 -0.125244
C23   C     C_3   0.728373 0.793031 0.765229 0.489119
C24   C     C_3   0.714888 0.727871 0.691708 -0.574047
C25   C     C_R   0.509698 0.682053 0.261570 0.229152
C26   C     C_R   0.352968 0.681271 0.315720 -0.240903
C27   C     C_R   0.199320 0.741082 0.297953 -0.172474
H3    H     H_    0.075534 0.743136 0.337908 0.144861
C28   C     C_R   0.210045 0.803593 0.231990 -0.152136
H4    H     H_    0.092980 0.851309 0.222735 0.137728
C29   C     C_R   0.376118 0.809464 0.182610 -0.234251
C30   C     C_R   0.521465 0.744821 0.196979 0.159709
C31   C     C_3   0.730657 0.759610 0.211486 -0.502398
C32   C     C_3   0.718136 0.690570 0.281205 -0.453124
H5    H     H_    0.761711 0.830677 0.233350 0.186314
H6    H     H_    0.818872 0.734950 0.158776 0.206668
H7    H     H_    0.743224 0.721269 0.343518 0.184482
O11   O     O_R   0.229930 0.912420 0.917160 -0.537345
O12   O     O_R   0.559420 0.902500 0.088780 -0.602765
O13   O     O_R   0.729660 0.081330 0.089380 -0.600915
C33   C     C_R   0.390449 0.879916 0.116875 0.933069
O14   O     O_R   0.559650 0.901420 0.917750 -0.601686
O15   O     O_R   0.729880 0.080250 0.917130 -0.549380
C34   C     C_R   0.390562 0.878760 0.889389 0.993462
O16   O     O_R   0.229700 0.913500 0.089410 -0.598851
O17   O     O_3   0.396250 0.055540 0.003280 -0.270593
V3    V     V_3+5 0.671130 0.986010 0.003260 1.188453
O18   O     O_R   0.059600 0.091310 0.917720 -0.602288
C35   C     C_R   0.889812 0.113969 0.890095 1.070247
O19   O     O_R   0.059370 0.092380 0.088750 -0.577417
C36   C     C_R   0.891394 0.113871 0.117870 0.971471
V4    V     V_3+5 0.171120 0.007820 0.003230 1.200237
O20   O     O_3   0.896130 0.938240 0.003240 -0.270854
O21   O     O_3   0.552075 0.215831 0.843787 -0.610674
C37   C     C_3   0.518901 0.297204 0.889856 0.276588
H8    H     H_    0.517742 0.359254 0.849829 0.070827
H9    H     H_    0.631246 0.305532 0.938744 0.077464
C38   C     C_3   0.323527 0.291682 0.931287 -0.895436
H10   H     H_    0.319560 0.232894 0.974523 0.276436
H11   H     H_    0.295554 0.356067 0.966399 0.183163
H12   H     H_    0.209134 0.283175 0.883771 0.248928
H13   H     H_    0.088892 0.641714 0.740350 0.137281
O22   O     O_3   0.089102 0.744262 0.875266 -0.625181
C39   C     C_3   0.145149 0.674640 0.930753 0.206267
H14   H     H_    0.296699 0.683919 0.952270 0.064030
H15   H     H_    0.129397 0.605733 0.901092 0.089596
C40   C     C_3   0.016175 0.678848 0.006314 -0.874312
H16   H     H_    0.863420 0.669734 0.987564 0.240984
H17   H     H_    0.056601 0.623621 0.050099 0.207660
H18   H     H_    0.033028 0.746408 0.037877 0.264898
H19   H     H_    0.760044 0.756575 0.823786 0.119574
O23   O     O_3   0.858401 0.867272 0.752851 -0.594237
C41   C     C_3   0.783541 0.939645 0.704402 0.324937
H20   H     H_    0.683263 0.982022 0.742210 0.108572
H21   H     H_    0.707965 0.914052 0.647944 0.079987
C42   C     C_3   0.949127 0.999900 0.676526 -0.930704
H22   H     H_    0.043309 0.960629 0.633628 0.250284
H23   H     H_    0.892324 0.061357 0.644159 0.218300
H24   H     H_    0.036018 0.022405 0.730781 0.264569
H25   H     H_    0.746278 0.655281 0.707997 0.169096
H26   H     H_    0.788332 0.752520 0.635168 0.207656
H27   H     H_    0.011842 0.187321 0.785578 0.158631
H28   H     H_    0.798007 0.625802 0.268392 0.203973
H29   H     H_    0.566142 0.303269 0.701321 0.169221
H30   H     H_    0.006932 0.306895 0.707042 0.168829
O24   O     O_3   0.176423 0.124402 0.249548 -0.645657
C43   C     C_3   0.147342 0.055937 0.309605 0.272743
H31   H     H_    0.044522 0.003881 0.285108 0.078209
H32   H     H_    0.091001 0.083728 0.369237 0.079698
C44   C     C_3   0.338854 0.009515 0.328050 -0.915041
H33   H     H_    0.438387 0.059381 0.358065 0.243411
H34   H     H_    0.316683 0.950593 0.370185 0.216556
H35   H     H_    0.405261 0.984311 0.269892 0.253301
O25   O     O_3   0.464439 0.413334 0.211315 -0.622478
C45   C     C_3   0.276752 0.411572 0.176599 0.294696
H36   H     H_    0.188663 0.352262 0.196834 0.103317
H37   H     H_    0.288145 0.408390 0.108203 0.097241
C46   C     C_3   0.168960 0.498825 0.199627 -0.934703
H38   H     H_    0.248168 0.559805 0.177226 0.256318
H39   H     H_    0.023718 0.497975 0.170709 0.216178
H40   H     H_    0.152118 0.503045 0.267676 0.264173
H41   H     H_    0.439654 0.299598 0.292514 0.063823
H42   H     H_    0.509746 0.281751 0.103904 0.193382

loop_
_geom_bond_atom_site_label_1
_geom_bond_atom_site_label_2
_geom_bond_distance
_ccdc_geom_bond_type
C41   H20   1.112401 S    
C43   H31   1.111861 S    
C33   O16   1.296786 A    
C6    H27   1.082779 S    
C27   H3    1.079045 S    
C21   C22   1.400843 A    
C1    O6    1.300657 A    
C46   H39   1.110665 S    
C40   H16   1.110916 S    
C31   H5    1.111656 S    
O13   C36   1.301581 A    
O22   C39   1.411354 S    
C32   H28   1.111978 S    
C13   C14   1.402059 A    
O18   C35   1.302841 A    
C21   C34   1.486536 S    
C23   H19   1.109471 S    
C15   C16   1.537289 S    
C12   C13   1.410281 A    
C45   H37   1.109377 S    
C20   O22   1.380086 S    
O5    C3    1.298985 A    
C39   H15   1.113632 S    
C6    C35   1.481728 S    
V2    O10   2.165223 S    
O25   C45   1.418067 S    
C20   C21   1.414654 A    
C37   H9    1.114315 S    
C44   H33   1.110795 S    
C15   H41   1.113363 S    
O8    V2    2.003111 S    
C32   H7    1.111795 S    
C31   C32   1.518469 S    
O14   C34   1.301769 A    
O21   C37   1.413459 S    
C24   H26   1.111406 S    
C11   C12   1.419207 A    
O1    V2    2.001438 S    
C16   H2    1.108805 S    
O7    V1    2.161230 S    
C11   O24   1.381575 S    
C9    C14   1.385290 A    
O17   V4    1.713646 S    
C43   H32   1.115185 S    
O1    C2    1.298020 A    
O9    C4    1.303119 A    
C27   C28   1.409235 A    
O12   V3    2.007860 S    
C38   H12   1.109206 S    
C44   H34   1.110630 S    
C46   H38   1.109414 S    
C40   H17   1.109858 S    
C7    H29   1.086453 S    
O15   C35   1.295667 A    
C31   H6    1.109548 S    
O12   C33   1.305352 A    
O18   V4    1.999841 S    
C4    C8    1.477608 S    
C23   O23   1.426016 S    
C12   H1    1.083428 S    
C38   H11   1.109301 S    
C45   C46   1.518447 S    
C25   C26   1.401502 A    
O4    C2    1.303321 A    
O23   C41   1.414292 S    
C29   C30   1.399391 A    
C9    C16   1.482662 S    
C3    C13   1.478065 S    
O17   V3    2.161279 S    
O19   V4    2.002907 S    
C37   C38   1.520315 S    
O2    C1    1.300802 A    
C28   H4    1.079687 S    
C10   C36   1.481495 S    
C23   C24   1.517363 S    
V3    O20   1.711029 S    
C19   H13   1.082157 S    
C42   H23   1.110659 S    
C17   C18   1.400195 A    
C2    C26   1.484325 S    
C24   H25   1.111771 S    
C5    C6    1.357592 D    
C28   C29   1.410332 A    
C1    C18   1.484683 S    
O3    C4    1.293734 A    
O11   C34   1.299710 A    
C25   C30   1.395328 A    
C26   C27   1.406857 A    
O6    V2    2.001097 S    
C41   H21   1.112709 S    
O2    V1    1.998254 S    
C40   H18   1.110414 S    
O11   V4    2.001347 S    
C42   H24   1.109990 S    
C30   C31   1.487915 S    
C22   C23   1.504456 S    
C5    O21   1.386561 S    
C17   C22   1.402203 A    
C10   C11   1.418707 A    
C38   H10   1.109337 S    
O5    V1    1.998658 S    
O8    C3    1.300046 A    
O15   V3    2.005809 S    
O13   V3    1.998631 S    
C43   C44   1.521405 S    
C17   C24   1.491106 S    
C18   C19   1.409184 A    
C7    C8    1.344587 D    
O9    V2    1.999886 S    
O7    V2    1.714131 S    
O4    V1    2.007911 S    
O16   V4    2.003017 S    
O3    V1    2.005811 S    
V1    O10   1.711082 S    
C45   H36   1.111536 S    
O19   C36   1.298479 A    
C39   H14   1.116055 S    
C39   C40   1.519858 S    
C42   H22   1.110812 S    
C8    H30   1.083683 S    
C16   H42   1.110072 S    
C15   O25   1.416503 S    
O24   C43   1.411964 S    
C5    C7    1.496733 S    
C19   C20   1.415833 A    
V4    O20   2.165245 S    
C46   H40   1.107971 S    
C37   H8    1.114931 S    
C29   C33   1.486044 S    
C41   C42   1.520751 S    
C14   C15   1.499809 S    
O14   V3    1.998235 S    
C9    C10   1.397205 A    
C44   H35   1.109165 S    
C25   C32   1.487253 S    
