data_mof_unit_65865.cif
_audit_creation_date              2012-10-26T18:06:50-0400
_audit_creation_method            fapswitch 2.2
_symmetry_space_group_name_H-M    P1
_symmetry_Int_Tables_number       1
_space_group_crystal_system       triclinic
_cell_length_a                    21.729586
_cell_length_b                    21.705536
_cell_length_c                    24.711273
_cell_angle_alpha                 116.056857
_cell_angle_beta                  115.799923
_cell_angle_gamma                 89.989683
_cell_volume                      9160.15968524

loop_
_atom_site_label
_atom_site_type_symbol
_atom_type_description
_atom_site_fract_x
_atom_site_fract_y
_atom_site_fract_z
_atom_type_partial_charge
C1    C     C_R   0.067372 0.566211 0.632524 0.566582
C2    C     C_R   0.407421 0.223563 0.590261 -0.106149
C3    C     C_R   0.435795 0.697900 0.457058 -0.023942
C4    C     C_R   0.685873 0.861200 0.585080 0.121263
C5    C     C_R   0.034311 0.354575 0.265369 -0.120211
C6    C     C_R   0.746728 0.915480 0.634888 -0.074839
C7    C     C_R   0.750053 0.967920 0.695508 -0.113663
C8    C     C_R   0.692472 0.966553 0.706624 -0.110445
C9    C     C_R   0.631317 0.913025 0.657010 -0.098499
C10   C     C_R   0.627606 0.859764 0.596140 0.048392
C11   C     C_R   0.515385 0.242170 0.294343 -0.073998
C12   C     C_R   0.494036 0.232562 0.336590 0.123378
C13   C     C_R   0.396156 0.218890 0.640003 -0.075985
C14   C     C_R   0.539243 0.266439 0.408370 0.044822
C15   C     C_R   0.605295 0.309436 0.436552 -0.086090
C16   C     C_R   0.626155 0.318378 0.393853 -0.090920
C17   C     C_1   0.111493 0.774906 0.847607 0.238924
C18   C     C_1   0.027706 0.209640 0.306881 0.218036
C19   C     C_1   0.834903 0.359300 0.540602 0.237198
C20   C     C_1   0.764631 0.512533 0.393593 0.223326
C21   C     C_1   0.147703 0.315218 0.432636 0.231879
C22   C     C_R   0.453347 0.229684 0.701537 0.100279
C23   C     C_R   0.254512 0.451779 0.444651 -0.134562
C24   C     C_R   0.521934 0.245375 0.713451 -0.064573
C25   C     C_R   0.533725 0.249787 0.663781 0.088414
C26   C     C_R   0.476085 0.238525 0.601535 0.036719
C27   C     C_R   0.314286 0.503688 0.501629 -0.010344
C28   C     C_R   0.309574 0.555558 0.558960 0.002474
C29   C     C_R   0.244734 0.554123 0.558185 0.096056
C30   C     C_R   0.014328 0.289930 0.259509 -0.107658
C31   C     C_R   0.185557 0.500698 0.500872 0.041202
C32   C     C_R   0.190330 0.449516 0.443947 -0.042574
C33   C     C_R   0.414366 0.609090 0.678016 0.144034
C34   C     C_R   0.472844 0.664465 0.732408 -0.102910
C35   C     C_R   0.488321 0.723861 0.727703 -0.090679
C36   C     C_R   0.118525 0.499922 0.499831 0.572910
C37   C     C_R   0.445272 0.728352 0.668605 0.115020
C38   C     C_R   0.386696 0.673479 0.614272 -0.065478
C39   C     C_R   0.370905 0.613577 0.618359 0.050430
C40   C     C_R   0.092519 0.669571 0.743248 -0.155413
C41   C     C_R   0.581223 0.284894 0.322873 -0.112552
C42   C     C_R   0.126872 0.707743 0.815204 -0.027274
C43   C     C_R   0.176642 0.681180 0.853816 -0.006961
C44   C     C_R   0.191104 0.616877 0.818833 -0.101875
C45   C     C_R   0.156399 0.578426 0.746970 0.088880
C46   C     C_R   0.106019 0.604562 0.708439 0.018015
C47   C     C_R   0.284959 0.787065 0.069900 0.347959
C48   C     C_R   0.933186 0.433624 0.367358 0.544738
C49   C     C_R   0.214807 0.719138 0.930022 0.345133
C50   C     C_R   0.287100 0.853060 0.183297 -0.100648
C51   C     C_R   0.323043 0.888215 0.255148 -0.114001
C52   C     C_R   0.517639 0.194861 0.456234 -0.107245
C53   C     C_R   0.395960 0.895976 0.291358 0.017052
C54   C     C_R   0.432173 0.867555 0.254229 -0.113197
C55   C     C_R   0.396111 0.831850 0.182305 -0.098569
C56   C     C_R   0.323192 0.824376 0.146056 0.036353
C57   C     C_R   0.938516 0.423419 0.656796 0.104368
C58   C     C_R   0.879949 0.424636 0.601995 0.038049
C59   C     C_R   0.866012 0.490069 0.607320 0.001488
C60   C     C_R   0.881192 0.499949 0.499829 0.541696
C61   C     C_R   0.909645 0.552946 0.667690 -0.115828
C62   C     C_R   0.966723 0.551118 0.722191 -0.138599
C63   C     C_R   0.501111 0.186498 0.501755 0.025907
C64   C     C_R   0.981512 0.486700 0.716529 -0.077581
C65   C     C_R   0.742360 0.495912 0.550010 -0.152868
C66   C     C_R   0.685530 0.503052 0.499050 -0.018406
C67   C     C_R   0.692389 0.509737 0.447398 -0.039737
C68   C     C_R   0.756814 0.507269 0.446967 -0.043565
C69   C     C_R   0.813657 0.499732 0.498617 -0.001744
C70   C     C_R   0.806326 0.494202 0.550292 -0.042430
C71   C     C_R   0.599347 0.471637 0.326127 -0.090492
C72   C     C_R   0.050603 0.276847 0.314607 -0.007086
C73   C     C_R   0.543796 0.483814 0.278322 -0.071309
C74   C     C_R   0.486917 0.242903 0.548203 -0.004570
C75   C     C_R   0.522182 0.546888 0.300103 0.113920
C76   C     C_R   0.555956 0.597702 0.369841 -0.067081
C77   C     C_R   0.611585 0.585749 0.417763 -0.068164
C78   C     C_R   0.633809 0.522703 0.396169 0.048029
C79   C     C_R   0.888001 0.429749 0.253522 -0.125854
C80   C     C_R   0.852233 0.392463 0.181616 -0.138848
C81   C     C_R   0.820550 0.320148 0.146047 0.034244
C82   C     C_R   0.826131 0.285107 0.183873 0.080335
C83   C     C_R   0.862440 0.322710 0.255843 -0.110792
C84   C     C_R   0.108504 0.328872 0.376013 0.014120
C85   C     C_R   0.487419 0.306331 0.546848 -0.114938
C86   C     C_R   0.893751 0.395116 0.291319 0.000795
C87   C     C_R   0.712950 0.214870 0.930244 0.345916
C88   C     C_R   0.782718 0.282845 0.070130 0.358077
C89   C     C_R   0.710333 0.175450 0.817299 -0.115353
C90   C     C_R   0.675005 0.138933 0.745372 -0.123710
C91   C     C_R   0.603742 0.103813 0.708609 0.003813
C92   C     C_R   0.568698 0.105202 0.745146 -0.130603
C93   C     C_R   0.604198 0.141063 0.817067 -0.104795
C94   C     C_R   0.675354 0.176841 0.853982 0.025307
C95   C     C_R   0.498437 0.618916 0.499880 0.540701
C96   C     C_R   0.502216 0.314154 0.500172 0.011723
C97   C     C_R   0.128398 0.394289 0.381650 0.003011
C98   C     C_R   0.380988 0.501746 0.500387 0.552390
C99   C     C_R   0.500871 0.381030 0.499991 0.548913
C100  C     C_R   0.618900 0.501315 0.499765 0.539389
C101  C     C_R   0.500362 0.119021 0.500752 0.559523
C102  C     C_R   0.433836 0.933606 0.367395 0.544495
C103  C     C_R   0.500603 0.881652 0.501148 0.548253
C104  C     C_R   0.566137 0.066012 0.632597 0.551157
C105  C     C_R   0.287215 0.536372 0.315440 0.094924
C106  C     C_R   0.351447 0.585755 0.353220 -0.038621
C107  C     C_R   0.518170 0.258350 0.454810 -0.006688
C108  C     C_R   0.366900 0.646664 0.414907 -0.014365
C109  C     C_R   0.090745 0.406657 0.326203 -0.106315
C110  C     C_R   0.315761 0.659652 0.436139 -0.096723
C111  C     C_R   0.251296 0.610557 0.398049 0.073417
C112  C     C_R   0.237275 0.548640 0.338005 -0.062921
C113  C     C_R   0.438129 0.763017 0.459188 -0.118635
C114  C     C_R   0.500890 0.815217 0.502024 0.022530
C115  C     C_R   0.562376 0.803352 0.545007 0.001740
C116  C     C_R   0.560140 0.738371 0.543260 -0.120609
C117  C     C_R   0.497696 0.685578 0.499388 0.006656
Cu1   Cu    Cu3+1 0.000000 0.438230 0.500020 1.050465
Cu2   Cu    Cu3+1 0.000000 0.561770 0.499980 1.054782
Cu3   Cu    Cu3+1 0.465780 0.465820 0.431560 1.008678
Cu4   Cu    Cu3+1 0.534220 0.534230 0.568440 0.985987
Cu5   Cu    Cu3+1 0.561810 0.999860 0.500000 1.019903
Cu6   Cu    Cu3+1 0.438190 0.999810 0.500000 0.992097
H1    H     H_    0.970218 0.250128 0.211958 0.149477
H2    H     H_    0.026502 0.485994 0.758780 0.153408
H3    H     H_    0.899394 0.603429 0.672458 0.128997
H4    H     H_    0.999896 0.599785 0.768795 0.134743
H5    H     H_    0.736725 0.490933 0.589522 0.145380
H6    H     H_    0.615403 0.422472 0.308728 0.111658
H7    H     H_    0.517622 0.444269 0.224408 0.150711
H8    H     H_    0.539137 0.646409 0.386889 0.147355
H9    H     H_    0.637212 0.625384 0.471686 0.122966
H10   H     H_    0.911972 0.485450 0.279477 0.157734
H11   H     H_    0.848733 0.420345 0.153599 0.149691
H12   H     H_    0.533793 0.766268 0.769904 0.150745
H13   H     H_    0.866868 0.294815 0.284017 0.161659
H14   H     H_    0.765227 0.202111 0.844113 0.155236
H15   H     H_    0.703381 0.138671 0.718534 0.161900
H16   H     H_    0.513832 0.078329 0.718149 0.165383
H17   H     H_    0.105519 0.456571 0.329971 0.140330
H18   H     H_    0.575644 0.141151 0.843694 0.172001
H19   H     H_    0.187593 0.510437 0.308683 0.139996
H20   H     H_    0.389754 0.576069 0.335344 0.161973
H21   H     H_    0.326157 0.707769 0.482287 0.155873
H22   H     H_    0.390737 0.772964 0.427019 0.142899
H23   H     H_    0.353401 0.677319 0.568851 0.136277
H24   H     H_    0.607200 0.729041 0.576524 0.138958
H25   H     H_    0.791509 0.917139 0.626560 0.147563
H26   H     H_    0.005798 0.364404 0.222671 0.142412
H27   H     H_    0.797247 0.009700 0.733840 0.131798
H28   H     H_    0.695151 0.007066 0.753668 0.138111
H29   H     H_    0.586871 0.912996 0.666084 0.147983
H30   H     H_    0.597401 0.292078 0.289928 0.124086
H31   H     H_    0.480777 0.216671 0.239272 0.149887
H32   H     H_    0.640574 0.336025 0.491599 0.120383
H33   H     H_    0.677140 0.351350 0.415757 0.137659
H34   H     H_    0.054188 0.690299 0.714117 0.139876
H35   H     H_    0.529944 0.151718 0.421568 0.144766
H36   H     H_    0.476324 0.349819 0.582416 0.154255
H37   H     H_    0.257811 0.412083 0.400601 0.157689
H38   H     H_    0.362695 0.215106 0.542772 0.140127
H39   H     H_    0.343002 0.206983 0.630739 0.157716
H40   H     H_    0.566108 0.254226 0.761373 0.160654
H41   H     H_    0.506630 0.661300 0.778246 0.145885
H42   H     H_    0.229570 0.596060 0.847615 0.168354
H43   H     H_    0.230915 0.848095 0.156987 0.151333
H44   H     H_    0.293676 0.909703 0.282305 0.146962
H45   H     H_    0.488358 0.872554 0.280708 0.150141
H46   H     H_    0.425515 0.810522 0.155168 0.153792
I1    I     I_    0.468393 0.817514 0.660868 -0.398613
I2    I     I_    0.436237 0.222981 0.776686 -0.307525
I3    I     I_    0.639215 0.275188 0.686004 -0.351458
I4    I     I_    0.236957 0.632935 0.644467 -0.244151
I5    I     I_    0.395401 0.519245 0.687295 -0.271600
I6    I     I_    0.187929 0.484543 0.702210 -0.206037
I7    I     I_    0.964911 0.327828 0.652258 -0.256653
I8    I     I_    0.439156 0.565698 0.227812 -0.307173
I9    I     I_    0.787305 0.174696 0.137204 -0.282449
I10   I     I_    0.266260 0.442934 0.225100 -0.291004
I11   I     I_    0.175382 0.630209 0.431212 -0.369640
I12   I     I_    0.684018 0.784929 0.493544 -0.382118
I13   I     I_    0.392298 0.168983 0.289621 -0.333031
N1    N     N_R   0.282336 0.716403 0.964911 -0.201246
N2    N     N_1   0.009303 0.155785 0.300669 -0.234818
N3    N     N_1   0.798825 0.307005 0.491412 -0.271315
N4    N     N_1   0.770858 0.516645 0.351018 -0.259311
N5    N     N_1   0.179088 0.304443 0.477955 -0.242165
N6    N     N_R   0.316793 0.749895 0.033455 -0.208740
N7    N     N_R   0.217202 0.789222 0.034937 -0.210582
N8    N     N_R   0.182827 0.755923 0.966406 -0.197176
N9    N     N_R   0.717991 0.239124 0.034306 -0.163963
N10   N     N_R   0.683817 0.205771 0.965749 -0.201229
N11   N     N_R   0.777416 0.259341 0.966239 -0.214595
N12   N     N_R   0.811489 0.292933 0.034830 -0.218558
N13   N     N_1   0.099097 0.828729 0.873458 -0.235804
O1    O     O_R   0.049920 0.497760 0.599870 -0.477916
O2    O     O_R   0.447770 0.089950 0.499980 -0.505165
O3    O     O_R   0.502270 0.949920 0.400150 -0.507124
O4    O     O_R   0.049920 0.602100 0.599840 -0.501936
O5    O     O_R   0.397880 0.949890 0.400140 -0.511959
O6    O     O_R   0.552230 0.909720 0.500030 -0.487427
O7    O     O_R   0.447840 0.909680 0.500020 -0.507648
O8    O     O_R   0.602120 0.049780 0.599860 -0.500449
O9    O     O_R   0.497730 0.049740 0.599850 -0.506249
O10   O     O_R   0.090180 0.447830 0.500020 -0.495516
O11   O     O_R   0.090180 0.552170 0.499990 -0.473915
O12   O     O_R   0.528910 0.619050 0.557800 -0.504967
O13   O     O_R   0.950080 0.397900 0.400160 -0.518583
O14   O     O_R   0.950080 0.502240 0.400130 -0.498499
O15   O     O_R   0.909820 0.447830 0.500010 -0.508294
O16   O     O_R   0.909820 0.552170 0.499980 -0.503166
O17   O     O_R   0.471120 0.561280 0.442210 -0.517961
O18   O     O_R   0.380930 0.471140 0.442200 -0.503301
O19   O     O_R   0.438710 0.528900 0.557790 -0.499222
O20   O     O_R   0.471090 0.380990 0.442200 -0.486276
O21   O     O_R   0.528880 0.438760 0.557790 -0.504814
O22   O     O_R   0.561290 0.471140 0.442210 -0.499860
O23   O     O_R   0.619070 0.528910 0.557800 -0.514154
O24   O     O_R   0.552160 0.089990 0.499980 -0.497214

loop_
_geom_bond_atom_site_label_1
_geom_bond_atom_site_label_2
_ccdc_geom_bond_type
Cu3   O17   S    
C88   N9    A    
C55   C56   A    
C96   C99   S    
C9    H29   S    
C93   C94   A    
Cu6   O5    S    
Cu4   O23   S    
C51   H44   S    
C111  C112  A    
C105  C112  A    
C91   C104  S    
C63   C101  S    
C81   C82   A    
C90   C91   A    
C5    H26   S    
C7    C8    A    
C27   C98   S    
C77   C78   A    
C95   C117  S    
Cu3   O20   S    
C40   C46   A    
C33   C39   A    
C99   O20   A    
Cu6   O9    S    
C109  H17   S    
Cu2   O4    S    
C95   O17   A    
C104  O9    A    
Cu5   O6    S    
C28   C29   A    
C35   C37   A    
C32   C97   S    
C113  C114  A    
C34   H41   S    
C69   C70   A    
C102  O3    A    
C17   C42   S    
C62   H4    S    
C79   C86   A    
C85   C96   A    
C101  O2    A    
C1    C46   S    
C99   O21   A    
C112  H19   S    
C15   C16   A    
C7    H27   S    
C87   C94   S    
C80   H11   S    
C116  C117  A    
C34   C35   A    
C113  H22   S    
C89   C94   A    
C2    C13   A    
C110  C111  A    
C38   H23   S    
C62   C64   A    
C3    C117  A    
C11   H31   S    
C73   H7    S    
C49   N1    A    
C12   I13   S    
C52   C107  A    
C68   C69   A    
C50   H43   S    
C61   H3    S    
C23   C27   A    
C4    I12   S    
Cu1   O1    S    
C9    C10   A    
C15   H32   S    
C22   I2    S    
C44   H42   S    
C25   C26   A    
C40   C42   A    
C66   C67   A    
C98   O19   A    
C100  O23   A    
Cu1   Cu2   S    
C95   O12   A    
C73   C75   A    
C82   I9    S    
C1    O4    A    
C67   C78   S    
C105  I10   S    
C2    H38   S    
C90   H15   S    
Cu6   O2    S    
C21   N5    T    
C41   H30   S    
C19   C58   S    
C18   C72   S    
C79   H10   S    
C59   C61   A    
Cu2   O14   S    
Cu5   O24   S    
C67   C68   A    
C81   C88   S    
C65   H5    S    
C88   N12   A    
C40   H34   S    
C106  H20   S    
C8    H28   S    
C76   C77   A    
C87   N11   A    
C52   H35   S    
C4    C6    A    
C3    C113  A    
C35   H12   S    
C91   C92   A    
C71   C73   A    
Cu3   O22   S    
C49   N8    A    
C28   C39   S    
C50   C51   A    
Cu3   O18   S    
C53   C54   A    
C66   C100  S    
C82   C83   A    
C50   C56   A    
N9    N10   A    
C51   C53   A    
C77   H9    S    
Cu5   O8    S    
C47   N7    A    
Cu1   O13   S    
C43   C44   A    
C103  O6    A    
C16   H33   S    
C37   C38   A    
C102  O5    A    
C71   H6    S    
C57   I7    S    
C6    H25   S    
C101  O24   A    
C31   C32   A    
C21   C84   S    
C18   N2    T    
C53   C102  S    
C48   O13   A    
C23   H37   S    
C103  C114  S    
C33   C34   A    
C8    C9    A    
C2    C26   A    
Cu2   O11   S    
C36   O11   A    
C24   C25   A    
C110  H21   S    
C33   I5    S    
C83   H13   S    
C72   C84   A    
C25   I3    S    
C14   C107  S    
C96   C107  A    
C30   H1    S    
C104  O8    A    
N11   N12   A    
C89   H14   S    
C111  I11   S    
C48   C86   S    
C17   N13   T    
C24   H40   S    
C42   C43   A    
C84   C97   A    
C4    C10   A    
C89   C90   A    
C37   I1    S    
C93   H18   S    
Cu3   Cu4   S    
C57   C64   A    
C5    C30   A    
N7    N8    A    
C54   C55   A    
C75   C76   A    
Cu6   O7    S    
C31   C36   S    
C98   O18   A    
C20   C68   S    
C43   C49   S    
C44   C45   A    
C29   I4    S    
C80   C81   A    
C52   C63   A    
C100  O22   A    
C116  H24   S    
C30   C72   A    
C11   C12   A    
C114  C115  A    
C6    C7    A    
C63   C74   A    
C3    C108  S    
C85   H36   S    
C105  C106  A    
Cu2   O16   S    
C65   C70   A    
Cu1   O15   S    
Cu4   O19   S    
C13   H39   S    
C45   I6    S    
C97   C109  A    
C12   C14   A    
C103  O7    A    
C29   C31   A    
C1    O1    A    
C23   C32   A    
Cu5   O3    S    
C57   C58   A    
C38   C39   A    
C106  C108  A    
C60   C69   S    
C92   C93   A    
C76   H8    S    
C108  C110  A    
C13   C22   A    
C11   C41   A    
C22   C24   A    
C36   O10   A    
C65   C66   A    
C74   C85   A    
C61   C62   A    
C75   I8    S    
C60   O16   A    
C58   C59   A    
Cu1   O10   S    
Cu4   O21   S    
C59   C70   S    
C20   N4    T    
C79   C80   A    
C54   H45   S    
C45   C46   A    
C83   C86   A    
C48   O14   A    
C26   C74   S    
C64   H2    S    
C27   C28   A    
Cu5   Cu6   S    
Cu4   O12   S    
C14   C15   A    
C87   N10   A    
C5    C109  A    
C47   N6    A    
N1    N6    A    
C92   H16   S    
C60   O15   A    
C16   C41   A    
C55   H46   S    
C71   C78   A    
C19   N3    T    
C10   C115  S    
C115  C116  A    
C47   C56   S    
