data_mof_unit_51003.cif
_audit_creation_date              2013-03-05T15:43:29-0500
_audit_creation_method            fapswitch 2.2
_symmetry_space_group_name_H-M    P1
_symmetry_Int_Tables_number       1
_space_group_crystal_system       triclinic
_cell_length_a                    10.75683
_cell_length_b                    10.929204
_cell_length_c                    9.68858
_cell_angle_alpha                 89.950818
_cell_angle_beta                  90.005118
_cell_angle_gamma                 90.129849
_cell_volume                      1139.02089256

loop_
_atom_site_label
_atom_site_type_symbol
_atom_site_description
_atom_site_fract_x
_atom_site_fract_y
_atom_site_fract_z
_atom_type_partial_charge
O1    O     O_R   0.500020 0.321960 0.617040 -0.585343
O2    O     O_R   0.499980 0.321920 0.382900 -0.574312
C1    C     C_R   0.500384 0.265346 0.500115 0.860293
O3    O     O_R   0.317710 0.500000 0.617070 -0.599225
O4    O     O_R   0.317670 0.499960 0.382930 -0.527915
C2    C     C_R   0.260077 0.500139 0.500070 0.855277
Cu1   Cu    Cu3+1 0.500030 0.500020 0.638630 0.930479
Cu2   Cu    Cu3+1 0.499970 0.499980 0.361370 0.981203
O5    O     O_R   0.500020 0.678080 0.617100 -0.588415
O6    O     O_R   0.499980 0.678040 0.382960 -0.571380
O7    O     O_R   0.682330 0.500040 0.617070 -0.595677
O8    O     O_R   0.682290 0.500000 0.382930 -0.564056
C3    C     C_R   0.498611 0.734639 0.500061 0.852777
C4    C     C_R   0.740119 0.500505 0.500072 0.793759
C5    C     C_3   0.071078 0.520725 0.648920 -0.473803
H1    H     H_    0.107355 0.604792 0.698024 0.191197
H2    H     H_    0.102511 0.445700 0.718482 0.197951
C6    C     C_3   0.928642 0.522046 0.648049 -0.476670
H3    H     H_    0.893899 0.449711 0.719403 0.198795
H4    H     H_    0.895256 0.611598 0.688111 0.196769
H5    H     H_    0.895450 0.695270 0.447707 0.157220
C7    C     C_3   0.069882 0.598345 0.396858 0.318478
C8    C     C_3   0.072074 0.369972 0.456881 0.104780
C9    C     C_3   0.122485 0.499534 0.499841 -0.115787
H6    H     H_    0.094777 0.306247 0.543291 0.063430
C10   C     C_3   0.878052 0.500012 0.499624 -0.004175
C11   C     C_3   0.926828 0.605686 0.406643 -0.426303
C12   C     C_3   0.926834 0.373391 0.446641 0.278232
H7    H     H_    0.891122 0.302511 0.520183 0.011613
H8    H     H_    0.087394 0.562212 0.292303 0.199624
H9    H     H_    0.886564 0.598618 0.301051 0.194094
C13   C     C_2   0.500339 0.933147 0.386642 -0.180178
C14   C     C_2   0.492338 0.866539 0.502435 -0.325937
H10   H     H_    0.510129 0.888665 0.287024 0.176177
H11   H     H_    0.477587 0.907154 0.602795 0.148149
C15   C     C_2   0.494187 0.067091 0.386890 -0.125782
C16   C     C_2   0.505288 0.133371 0.502516 -0.315883
H12   H     H_    0.482894 0.111938 0.287574 0.177654
H13   H     H_    0.521312 0.092472 0.602571 0.141436
C17   C     C_2   0.427075 0.430561 0.922176 -0.062067
N1    N     N_2   0.498630 0.498660 0.846910 -0.286111
H14   H     H_    0.360689 0.371177 0.870860 0.160230
H15   H     H_    0.565312 0.551276 0.893985 0.193347
C18   C     C_2   0.431189 0.426586 0.077873 -0.042639
N2    N     N_2   0.498590 0.498630 0.153040 -0.291743
H16   H     H_    0.372618 0.359739 0.129266 0.203916
H17   H     H_    0.550559 0.565424 0.105895 0.192218
O9    O     O_3   0.886484 0.353407 0.308370 -0.561875
C19   C     C_3   0.812803 0.246335 0.295808 0.121620
H18   H     H_    0.757784 0.254404 0.199201 0.164214
H19   H     H_    0.744053 0.237430 0.381066 0.112372
C20   C     C_3   0.894556 0.132014 0.285826 -0.328069
H20   H     H_    0.955330 0.139273 0.193388 0.261764
H21   H     H_    0.954387 0.125459 0.378815 0.222879
C21   C     C_3   0.816337 0.015729 0.275661 -0.963095
H22   H     H_    0.762543 0.002265 0.372310 0.269791
H23   H     H_    0.878101 0.935490 0.261105 0.267238
H24   H     H_    0.751429 0.021214 0.186663 0.258472
O10   O     O_3   0.130774 0.714245 0.391609 -0.611790
C22   C     C_3   0.133158 0.779254 0.517324 0.048394
H25   H     H_    0.213775 0.747946 0.579593 0.150552
H26   H     H_    0.045737 0.769737 0.577225 0.141519
C23   C     C_3   0.151278 0.914950 0.485421 -0.286270
H27   H     H_    0.235870 0.927644 0.421341 0.257477
H28   H     H_    0.070371 0.948166 0.425310 0.224560
C24   C     C_3   0.163870 0.990509 0.617073 -0.915825
H29   H     H_    0.078325 0.982213 0.680630 0.247365
H30   H     H_    0.177914 0.088246 0.590013 0.277802
H31   H     H_    0.245127 0.959110 0.678228 0.253141
N3    N     N_R   0.132563 0.318403 0.333227 0.132527
O11   O     O_R   0.115855 0.364401 0.210715 -0.367945
O12   O     O_R   0.203077 0.222455 0.345868 -0.422516

loop_
_geom_bond_atom_site_label_1
_geom_bond_atom_site_label_2
_geom_bond_distance
_ccdc_geom_bond_type
C5    C6    1.532287 S    
C24   H30   1.109667 S    
C8    C9    1.571590 S    
C23   H28   1.108772 S    
C3    C14   1.443501 S    
N3    O11   1.301258 A    
O4    Cu2   1.972081 S    
C10   C12   1.567964 S    
C6    C10   1.556251 S    
C20   C21   1.525839 S    
C17   C18   1.509724 S    
Cu2   O8    1.972260 S    
C19   C20   1.532641 S    
C2    C9    1.480054 S    
C13   C14   1.339507 D    
C21   H22   1.110308 S    
C17   H14   1.084775 S    
O2    C1    1.292605 A    
H5    C11   1.110410 S    
C23   C24   1.525956 S    
O10   C22   1.410812 S    
C16   H13   1.081119 S    
O1    Cu1   1.957442 S    
C8    C12   1.565987 S    
C4    C10   1.483746 S    
Cu1   O7    1.972081 S    
N1    H15   1.025539 S    
C8    N3    1.476234 S    
C12   H7    1.119426 S    
C10   C11   1.554423 S    
O3    Cu1   1.972259 S    
O9    C19   1.417179 S    
C18   H16   1.084430 S    
C13   C15   1.465548 S    
C15   H12   1.086427 S    
C5    C9    1.564259 S    
C14   H11   1.081088 S    
C12   O9    1.425026 S    
C20   H21   1.109516 S    
C24   H29   1.110751 S    
C6    H4    1.113462 S    
C7    C11   1.544008 S    
C21   H23   1.110496 S    
O4    C2    1.293049 A    
O7    C4    1.292860 A    
C7    C9    1.575679 S    
C21   H24   1.111117 S    
C24   H31   1.110733 S    
C22   C23   1.526717 S    
C11   H9    1.113578 S    
C5    H1    1.105375 S    
Cu1   Cu2   2.686256 S    
C8    H6    1.115937 S    
C6    H3    1.113714 S    
C20   H20   1.111536 S    
C1    C16   1.443631 S    
C22   H26   1.109716 S    
C19   H18   1.110900 S    
N2    H17   1.025513 S    
C7    O10   1.425579 S    
Cu1   O5    1.957025 S    
O5    C3    1.291118 A    
Cu2   N2    2.018541 S    
C15   C16   1.339750 D    
C17   N1    1.294108 D    
C7    H8    1.103919 S    
O1    C1    1.291280 A    
C5    H2    1.114067 S    
O3    C2    1.291968 A    
N3    O12   1.301282 A    
Cu2   O6    1.957442 S    
O2    Cu2   1.957025 S    
C18   N2    1.293943 D    
C23   H27   1.109981 S    
Cu1   N1    2.018038 S    
O8    C4    1.294194 A    
C22   H25   1.110835 S    
C19   H19   1.112814 S    
O6    C3    1.292785 A    
C13   H10   1.086287 S    
