data_mof_unit_47907.cif
_audit_creation_date              2013-03-05T15:46:54-0500
_audit_creation_method            fapswitch 2.2
_symmetry_space_group_name_H-M    P1
_symmetry_Int_Tables_number       1
_space_group_crystal_system       triclinic
_cell_length_a                    15.07755
_cell_length_b                    15.138651
_cell_length_c                    15.099047
_cell_angle_alpha                 109.198836
_cell_angle_beta                  110.455536
_cell_angle_gamma                 109.905067
_cell_volume                      2614.6274447

loop_
_atom_site_label
_atom_site_type_symbol
_atom_site_description
_atom_site_fract_x
_atom_site_fract_y
_atom_site_fract_z
_atom_type_partial_charge
C1    C     C_R   0.197473 0.998421 0.907825 -0.027234
C2    C     C_R   0.757719 0.944258 0.036166 -0.012757
H1    H     H_    0.168881 0.027699 0.853879 0.159749
H2    H     H_    0.776043 0.898263 0.073815 0.142902
N1    N     N_R   0.293810 0.002730 0.945950 -0.070625
N2    N     N_R   0.706190 0.997270 0.054050 -0.053156
C3    C     C_R   0.808281 0.209578 0.297620 -0.005936
C4    C     C_R   0.254951 0.776164 0.686826 -0.043109
H3    H     H_    0.840761 0.176502 0.344179 0.181742
H4    H     H_    0.248880 0.796442 0.624116 0.150259
N3    N     N_R   0.706160 0.152130 0.208910 -0.080567
N4    N     N_R   0.293840 0.847870 0.791090 -0.043054
C5    C     C_R   0.408079 0.968787 0.220499 -0.129504
C6    C     C_R   0.591553 0.087247 0.788793 -0.138360
H5    H     H_    0.322875 0.934042 0.198644 0.151057
H6    H     H_    0.676429 0.140533 0.815930 0.182282
N5    N     N_R   0.443140 0.945920 0.152090 -0.056097
N6    N     N_R   0.556860 0.054080 0.847910 -0.086027
C7    C     C_R   0.589422 0.315210 0.048491 0.474523
C8    C     C_R   0.410824 0.704641 0.009321 0.459946
N7    N     N_R   0.556830 0.208940 0.002760 -0.105312
N8    N     N_R   0.443170 0.791060 0.997240 -0.111435
C9    C     C_R   0.593068 0.050534 0.316028 0.537706
C10   C     C_R   0.407497 0.999982 0.698950 0.416893
N9    N     N_R   0.556790 0.002750 0.208910 -0.103990
N10   N     N_R   0.443210 0.997250 0.791090 -0.109807
C11   C     C_R   0.406375 0.217546 0.972863 -0.144110
C12   C     C_R   0.594023 0.792249 0.091641 -0.142906
H7    H     H_    0.322117 0.191573 0.948795 0.134466
H8    H     H_    0.679890 0.822428 0.143902 0.162895
N11   N     N_R   0.443180 0.152110 0.945950 -0.058927
N12   N     N_R   0.556820 0.847890 0.054050 -0.081095
C13   C     C_R   0.804263 0.300483 0.209738 -0.047412
C14   C     C_R   0.251017 0.686184 0.778020 -0.009619
H9    H     H_    0.828663 0.351565 0.178147 0.223007
H10   H     H_    0.238224 0.624901 0.800715 0.185030
N13   N     N_R   0.706170 0.208950 0.152090 -0.086599
N14   N     N_R   0.293830 0.791050 0.847910 -0.055267
C15   C     C_R   0.198685 0.908904 0.999336 -0.083291
C16   C     C_R   0.760600 0.038295 0.946860 0.017448
H11   H     H_    0.171101 0.855973 0.029467 0.171196
H12   H     H_    0.782305 0.078807 0.904234 0.168723
N15   N     N_R   0.293800 0.945910 0.002760 -0.061872
N16   N     N_R   0.706200 0.054090 0.997240 -0.060999
C17   C     C_R   0.138217 0.940515 0.940451 0.145344
C18   C     C_R   0.793023 0.970147 0.970759 0.049854
C19   C     C_R   0.872433 0.302361 0.300155 0.070998
C20   C     C_R   0.229020 0.673910 0.676047 0.039767
C21   C     C_R   0.500448 0.034485 0.323981 -0.185565
C22   C     C_R   0.498771 0.052988 0.695068 -0.090289
C23   C     C_R   0.494798 0.321114 0.034612 -0.114968
C24   C     C_R   0.503982 0.701428 0.064536 -0.066996
Ni1   Ni    Ni4+2 0.369690 0.999990 0.869700 0.315870
Ni2   Ni    Ni4+2 0.630310 0.000010 0.130300 0.278113
Ni3   Ni    Ni4+2 0.369670 0.869670 0.000000 0.317367
Ni4   Ni    Ni4+2 0.630330 0.130330 0.000000 0.287194
H13   H     H_    0.993076 0.086638 0.641481 0.152124
H14   H     H_    0.984278 0.949544 0.485386 0.190469
C25   C     C_R   0.162755 0.181199 0.691741 0.013382
C26   C     C_R   0.813933 0.857316 0.435562 -0.078420
H15   H     H_    0.147064 0.143468 0.609176 0.193571
H16   H     H_    0.827487 0.902970 0.515867 0.192507
C27   C     C_R   0.269461 0.264076 0.779147 0.021557
C28   C     C_R   0.707698 0.771949 0.349364 -0.050252
H17   H     H_    0.335977 0.290736 0.763724 0.174725
H18   H     H_    0.640024 0.751286 0.363965 0.154519
C29   C     C_R   0.289177 0.314859 0.885677 -0.044172
C30   C     C_R   0.690195 0.711638 0.245691 0.003548
C31   C     C_R   0.201017 0.283107 0.903588 -0.247864
C32   C     C_R   0.779513 0.736798 0.229233 -0.270888
H19   H     H_    0.215305 0.325034 0.985185 0.197562
H20   H     H_    0.766427 0.688649 0.149718 0.198703
C33   C     C_R   0.094303 0.199745 0.816201 0.574228
C34   C     C_R   0.885014 0.824080 0.314204 0.617305
C35   C     C_R   0.075467 0.149110 0.710128 -0.222401
C36   C     C_R   0.902504 0.883483 0.418162 -0.213596
C37   C     C_R   0.411160 0.508525 0.982200 -0.099829
C38   C     C_R   0.571825 0.514571 0.149790 -0.141873
H21   H     H_    0.351715 0.504132 0.912432 0.195993
H22   H     H_    0.636491 0.515708 0.212286 0.162490
C39   C     C_R   0.501227 0.608206 0.072028 0.087357
C40   C     C_R   0.483674 0.415563 0.056386 0.107270
C41   C     C_R   0.583351 0.612263 0.157864 0.076053
C42   C     C_R   0.397101 0.412585 0.976239 0.063290
C43   C     C_R   0.050102 0.475326 0.375734 0.344388
C44   C     C_R   0.139597 0.469009 0.568523 0.368520
C45   C     C_R   0.138201 0.570070 0.473578 -0.270366
C46   C     C_R   0.044299 0.376970 0.473593 -0.258070
H23   H     H_    0.175337 0.643910 0.471825 0.186704
H24   H     H_    0.010281 0.302420 0.474962 0.191994
C47   C     C_R   0.174499 0.570321 0.572726 -0.049408
C48   C     C_R   0.991604 0.382882 0.380323 -0.017046
C49   C     C_R   0.567469 0.150311 0.610845 -0.102184
C50   C     C_R   0.420659 0.953760 0.409726 -0.105761
H25   H     H_    0.624692 0.225411 0.689409 0.167825
H26   H     H_    0.366770 0.876068 0.333379 0.168411
C51   C     C_R   0.566465 0.145765 0.517616 -0.067794
C52   C     C_R   0.421820 0.958279 0.501586 -0.127377
H27   H     H_    0.623477 0.217117 0.522989 0.157634
H28   H     H_    0.368806 0.884240 0.495531 0.157666
C53   C     C_R   0.493995 0.046799 0.418244 0.163620
C54   C     C_R   0.495206 0.055962 0.601480 0.109821
C55   C     C_R   0.067409 0.007031 0.046423 -0.301055
C56   C     C_R   0.858201 0.895170 0.858817 -0.231740
H29   H     H_    0.149732 0.051236 0.117919 0.198530
H30   H     H_    0.776329 0.853007 0.787382 0.202371
C57   C     C_R   0.985657 0.019877 0.057697 0.653546
C58   C     C_R   0.942211 0.885845 0.847465 0.623250
C59   C     C_R   0.880058 0.960667 0.962799 -0.148418
C60   C     C_R   0.046037 0.941619 0.942906 -0.189456
S1    S     S_3+6 0.983905 0.163950 0.839166 -0.012290
O1    O     O_2   0.022306 0.169961 0.948275 -0.273269
O2    O     O_2   0.945030 0.243387 0.841038 -0.219753
O3    O     O_3   0.878761 0.036884 0.739571 -0.539008
H31   H     H_    0.834285 0.045486 0.680468 0.376364
S2    S     S_3+6 0.994163 0.856453 0.289327 0.029711
O4    O     O_2   0.036018 0.780337 0.295077 -0.175819
O5    O     O_2   0.952823 0.842111 0.176487 -0.309416
O6    O     O_3   0.096976 0.985984 0.383455 -0.496507
H32   H     H_    0.147963 0.001696 0.356045 0.378699
N17   N     N_R   0.023970 0.474371 0.274339 0.235404
O7    O     O_R   0.008563 0.393568 0.192313 -0.301099
O8    O     O_R   0.035514 0.561784 0.270010 -0.289913
N18   N     N_R   0.199546 0.457998 0.657854 0.222727
O9    O     O_R   0.306994 0.511589 0.711596 -0.438029
O10   O     O_R   0.147960 0.383967 0.675994 -0.379700
S3    S     S_3+6 0.021508 0.117272 0.188632 -0.015183
O11   O     O_2   0.973914 0.187818 0.175782 -0.263240
O12   O     O_2   0.976482 0.059893 0.240745 -0.287276
O13   O     O_3   0.159545 0.196970 0.271394 -0.527988
H33   H     H_    0.171857 0.248719 0.341261 0.383127
S4    S     S_3+6 0.915918 0.805378 0.715461 -0.011208
O14   O     O_2   0.969692 0.879265 0.680465 -0.292446
O15   O     O_2   0.963207 0.732919 0.719113 -0.261016
O16   O     O_3   0.779233 0.727955 0.623971 -0.531601
H34   H     H_    0.772378 0.696857 0.551400 0.374679
S5    S     S_3+6 0.703092 0.412295 0.057119 -0.041058
O17   O     O_2   0.787898 0.499392 0.174977 -0.291826
O18   O     O_2   0.753421 0.357055 0.007215 -0.270406
O19   O     O_3   0.659293 0.470018 0.987153 -0.539205
H35   H     H_    0.725173 0.518601 0.990020 0.391568
S6    S     S_3+6 0.288733 0.647846 0.012643 -0.040084
O20   O     O_2   0.240210 0.719584 0.014944 -0.319124
O21   O     O_2   0.204526 0.536215 0.913308 -0.254663
O22   O     O_3   0.319973 0.638067 0.126088 -0.530171
H36   H     H_    0.248987 0.606326 0.123159 0.402294
S7    S     S_3+6 0.714462 0.069355 0.414983 -0.077257
O23   O     O_2   0.795307 0.189293 0.494391 -0.310925
O24   O     O_2   0.687673 0.015217 0.477078 -0.297888
O25   O     O_3   0.769547 0.012677 0.352121 -0.580052
H37   H     H_    0.847742 0.048331 0.409978 0.367121
S8    S     S_3+6 0.281579 0.993693 0.631683 -0.047239
O26   O     O_2   0.205163 0.891556 0.520890 -0.262953
O27   O     O_2   0.227263 0.993717 0.698209 -0.287365
O28   O     O_3   0.306750 0.102885 0.615944 -0.540012
H38   H     H_    0.310908 0.083227 0.548747 0.362884

loop_
_geom_bond_atom_site_label_1
_geom_bond_atom_site_label_2
_geom_bond_distance
_ccdc_geom_bond_type
C27   H17   1.082762 S    
C45   C47   1.401014 A    
C11   H7    1.069487 S    
C33   C35   1.399905 A    
C19   C48   1.482425 S    
C6    N6    1.328453 A    
S1    O1    1.502122 D    
N6    N10   1.376833 A    
C56   H30   1.083822 S    
O3    H31   0.990277 S    
H14   C36   1.081024 S    
O16   H34   0.990671 S    
C15   H11   1.080338 S    
C2    C18   1.375569 A    
C16   C18   1.377867 A    
N7    N11   1.376836 A    
N8    N12   1.376837 A    
C55   C60   1.392891 A    
C1    N1    1.331095 A    
C28   C30   1.400298 A    
N1    Ni1   1.886189 S    
C7    N7    1.341781 A    
C10   N10   1.325354 A    
N18   O10   1.301246 A    
C44   C47   1.412910 A    
C21   C53   1.415849 S    
C56   C59   1.395975 A    
C44   C46   1.394344 A    
C9    C21   1.388878 A    
C50   C52   1.359616 A    
S2    O4    1.502070 D    
C26   H16   1.081253 S    
C31   H19   1.083635 S    
C38   C40   1.394677 A    
C50   H26   1.084102 S    
C10   S8    1.763681 S    
S7    O23   1.503256 D    
C39   C41   1.410970 A    
N13   Ni4   1.854159 S    
C38   C41   1.387045 A    
N14   Ni3   1.854162 S    
C46   C48   1.404203 A    
C50   C53   1.394267 A    
C58   C60   1.401120 A    
S4    O14   1.502783 D    
C20   C47   1.478373 S    
C32   C34   1.396312 A    
C31   C33   1.400272 A    
C6    H6    1.081419 S    
N5    Ni3   1.854969 S    
N4    Ni1   1.865524 S    
C7    S5    1.765565 S    
C15   C17   1.364212 A    
C40   C42   1.410759 A    
C43   C45   1.393427 A    
N1    N15   1.400345 A    
C29   C42   1.476958 S    
C49   H25   1.083436 S    
N2    N16   1.400345 A    
C57   C59   1.407294 A    
S6    O22   1.681708 S    
C2    N2    1.322596 A    
C25   C35   1.397820 A    
N2    Ni2   1.886191 S    
N12   Ni2   1.866448 S    
C51   H27   1.083350 S    
C43   C48   1.416780 A    
C11   C23   1.360645 A    
O22   H36   0.990519 S    
C37   H21   1.082053 S    
C10   C22   1.369897 A    
S5    O19   1.681739 S    
C27   C29   1.401269 A    
C25   H15   1.081609 S    
C58   S4    1.770788 S    
C11   N11   1.312083 A    
C8    S6    1.773596 S    
C12   N12   1.326624 A    
C33   S1    1.759938 S    
O19   H35   0.990461 S    
S1    O2    1.503241 D    
C17   C60   1.408800 S    
C15   N15   1.324845 A    
C37   C42   1.361467 A    
C52   C54   1.392284 A    
C9    S7    1.765517 S    
C26   C36   1.400998 A    
C13   N13   1.332898 A    
C29   C31   1.404536 A    
C28   H18   1.082981 S    
C2    H2    1.079754 S    
C4    C20   1.397620 A    
S3    O12   1.501961 D    
S5    O18   1.503425 D    
N16   Ni4   1.882322 S    
C3    N3    1.342289 A    
S8    O28   1.681427 S    
C37   C39   1.389969 A    
C4    N4    1.340891 A    
C34   S2    1.758847 S    
S7    O25   1.681535 S    
C38   H22   1.084525 S    
C55   H29   1.084698 S    
N11   Ni1   1.866448 S    
C43   N17   1.435001 S    
C23   C40   1.439895 S    
N17   O7    1.301234 A    
N3    Ni2   1.865524 S    
C34   C36   1.401041 A    
N9    Ni2   1.886233 S    
S4    O15   1.503186 D    
C5    C21   1.372551 A    
N15   Ni3   1.882323 S    
C46   H24   1.079726 S    
C22   C54   1.411429 S    
C52   H28   1.083997 S    
C45   H23   1.080465 S    
C44   N18   1.436111 S    
C13   C19   1.376533 A    
S6    O21   1.502801 D    
C14   C20   1.388567 A    
S3    O11   1.501327 D    
N10   Ni1   1.886235 S    
C49   C51   1.380997 A    
C56   C58   1.382515 A    
N3    N13   1.400467 A    
S8    O27   1.501535 D    
C3    H3    1.068940 S    
S7    O24   1.502848 D    
C14   N14   1.332219 A    
C30   C41   1.470177 S    
C8    N8    1.329426 A    
C16   H12   1.080565 S    
C49   C54   1.395369 A    
N7    Ni4   1.882480 S    
C32   H20   1.082888 S    
O6    H32   0.990696 S    
N8    Ni3   1.882479 S    
N6    Ni4   1.854972 S    
S5    O17   1.502866 D    
C25   C27   1.398829 A    
O25   H37   0.990546 S    
S2    O6    1.680905 S    
C5    N5    1.318073 A    
C26   C28   1.398868 A    
N5    N9    1.376833 A    
H13   C35   1.080413 S    
C5    H5    1.079505 S    
O13   H33   0.990763 S    
S3    O13   1.682139 S    
C57   S3    1.779848 S    
C8    C24   1.387440 A    
C12   C24   1.368034 A    
C1    C17   1.366638 A    
C6    C22   1.366804 A    
S4    O16   1.682175 S    
C12   H8    1.074071 S    
C13   H9    1.064156 S    
S2    O5    1.503584 D    
S1    O3    1.682120 S    
C14   H10   1.071807 S    
C9    N9    1.334585 A    
N4    N14   1.400467 A    
C24   C39   1.440333 S    
N17   O8    1.301436 A    
C7    C23   1.406259 A    
C16   N16   1.326130 A    
S8    O26   1.501769 D    
C4    H4    1.071859 S    
C18   C59   1.408613 S    
O28   H38   0.990203 S    
C30   C32   1.402590 A    
S6    O20   1.499943 D    
C55   C57   1.369035 A    
C1    H1    1.080689 S    
C51   C53   1.396689 A    
C3    C19   1.386937 A    
N18   O9    1.301702 A    
