data_mof_unit_26650.cif
_audit_creation_date              2012-12-10T17:19:52-0500
_audit_creation_method            fapswitch 2.2
_symmetry_space_group_name_H-M    P1
_symmetry_Int_Tables_number       1
_space_group_crystal_system       triclinic
_cell_length_a                    9.698379
_cell_length_b                    10.826161
_cell_length_c                    15.441238
_cell_angle_alpha                 85.720027
_cell_angle_beta                  73.098132
_cell_angle_gamma                 90.099519
_cell_volume                      1546.4466148

loop_
_atom_site_label
_atom_site_type_symbol
_atom_type_description
_atom_site_fract_x
_atom_site_fract_y
_atom_site_fract_z
_atom_type_partial_charge
C1    C     C_R   0.003468 0.263315 0.494130 0.757535
C2    C     C_R   0.673707 0.434314 0.913293 0.099198
C3    C     C_R   0.771113 0.457029 0.963571 0.098824
C4    C     C_R   0.526143 0.403741 0.960705 0.076219
C5    C     C_R   0.479174 0.405728 0.056840 0.090230
C6    C     C_R   0.583225 0.411642 0.103829 -0.147456
C7    C     C_R   0.725646 0.441084 0.057929 -0.157821
C8    C     C_R   0.422876 0.374446 0.916281 -0.164304
C9    C     C_R   0.277151 0.358960 0.964112 -0.173263
C10   C     C_R   0.228774 0.379991 0.056084 0.150161
C11   C     C_R   0.329361 0.406068 0.102792 0.098670
C12   C     C_R   0.917154 0.498564 0.672591 0.811352
C13   C     C_R   0.080726 0.378594 0.101566 -0.181754
C14   C     C_R   0.030910 0.417132 0.189611 -0.184764
C15   C     C_R   0.276922 0.441581 0.192015 -0.174789
C16   C     C_R   0.276339 0.117318 0.454615 -0.179282
C17   C     C_R   0.393302 0.058155 0.474722 0.123361
C18   C     C_R   0.366474 0.944436 0.528096 0.377148
C19   C     C_R   0.233376 0.883598 0.546327 -0.141584
C20   C     C_R   0.122544 0.937049 0.515230 0.040326
C21   C     C_R   0.136616 0.063014 0.485127 0.058728
C22   C     C_R   0.009692 0.129120 0.487756 -0.087603
C23   C     C_R   0.997575 0.736460 0.506822 0.891333
C24   C     C_R   0.881451 0.063763 0.497518 -0.192115
C25   C     C_R   0.878122 0.935921 0.504013 -0.101694
C26   C     C_R   0.997809 0.870685 0.513058 -0.095139
C27   C     C_R   0.713723 0.605821 0.345458 0.379869
C28   C     C_R   0.683440 0.606589 0.263231 -0.389575
C29   C     C_R   0.542890 0.623351 0.263041 0.278227
C30   C     C_R   0.434218 0.618825 0.346304 0.343871
C31   C     C_R   0.460368 0.559350 0.426370 0.021365
C32   C     C_R   0.609255 0.556929 0.426183 0.105805
C33   C     C_R   0.541058 0.444817 0.569501 -0.009763
C34   C     C_R   0.082482 0.489438 0.328826 0.868974
C35   C     C_R   0.394213 0.444191 0.569226 0.021064
C36   C     C_R   0.869531 0.488494 0.773091 -0.128930
C37   C     C_R   0.129429 0.453117 0.234374 -0.047282
C38   C     C_R   0.913177 0.496828 0.919435 -0.226393
C39   C     C_R   0.962939 0.513654 0.825197 0.371809
C40   C     C_R   0.726124 0.449871 0.817849 -0.271973
Cu1   Cu    Cu3+1 0.140660 0.499990 0.500010 1.006823
Cu2   Cu    Cu3+1 0.859340 0.500010 0.499990 1.007728
H1    H     H_    0.799019 0.455949 0.097191 0.132131
H2    H     H_    0.004176 0.349278 0.068048 0.132622
H3    H     H_    0.784068 0.111907 0.499586 0.167527
H4    H     H_    0.294516 0.204117 0.413650 0.181497
H5    H     H_    0.216807 0.796323 0.587242 0.216212
H6    H     H_    0.781493 0.888100 0.502645 0.240702
H7    H     H_    0.568352 0.398374 0.626568 0.120963
H8    H     H_    0.768196 0.631936 0.200963 0.236628
H9    H     H_    0.350063 0.465662 0.228720 0.154623
H10   H     H_    0.313811 0.397177 0.625958 0.154588
H11   H     H_    0.916081 0.417325 0.222843 0.143322
H12   H     H_    0.201075 0.337274 0.927724 0.164132
H13   H     H_    0.985616 0.517533 0.958513 0.176785
H14   H     H_    0.656416 0.433993 0.776647 0.166762
H15   H     H_    0.556384 0.396731 0.176764 0.124825
H16   H     H_    0.451251 0.361849 0.844727 0.147009
N1    N     N_R   0.648320 0.501210 0.499140 -0.178127
N2    N     N_R   0.352470 0.501290 0.499110 -0.183834
O1    O     O_R   0.118810 0.319640 0.500010 -0.604982
O2    O     O_R   0.881240 0.319660 0.500000 -0.594824
O3    O     O_R   0.055570 0.499980 0.629840 -0.540379
O4    O     O_R   0.818000 0.500010 0.629830 -0.587939
O5    O     O_R   0.118760 0.680340 0.500000 -0.535785
O6    O     O_R   0.881190 0.680360 0.499990 -0.515649
O7    O     O_R   0.182000 0.499990 0.370170 -0.583315
O8    O     O_R   0.944430 0.500020 0.370160 -0.569536
C41   C     C_3   0.542262 0.118483 0.447084 -0.345131
C42   C     C_3   0.573423 0.217747 0.367384 -0.858290
H17   H     H_    0.547839 0.181430 0.308282 0.272602
H18   H     H_    0.510745 0.301920 0.387306 0.229848
H19   H     H_    0.689550 0.245167 0.346797 0.248868
H20   H     H_    0.557388 0.160590 0.507166 0.199640
H21   H     H_    0.622768 0.045307 0.426458 0.250472
Cl1   Cl    Cl    0.496062 0.872753 0.572673 -0.632734
Cl2   Cl    Cl    0.826506 0.734083 0.342425 -0.540245
Cl3   Cl    Cl    0.515488 0.690106 0.161316 -0.510866
Cl4   Cl    Cl    0.318223 0.743478 0.348506 -0.491729
Cl5   Cl    Cl    0.141314 0.571496 0.777628 -0.611526

loop_
_geom_bond_atom_site_label_1
_geom_bond_atom_site_label_2
_ccdc_geom_bond_type
C17   C41   S    
C16   C21   A    
C34   C37   S    
Cu1   Cu2   S    
C19   C20   A    
Cu1   O1    S    
C4    C8    A    
C1    O2    A    
Cu1   O7    S    
C24   H3    S    
C23   O6    A    
C28   C29   A    
C5    C11   A    
C3    C7    A    
C5    C6    A    
C12   O4    A    
C19   H5    S    
C33   H7    S    
C18   C19   A    
C23   C26   S    
C15   C37   A    
C8    H16   S    
C11   C15   A    
C29   Cl3   S    
C3    C38   A    
C8    C9    A    
C40   H14   S    
C42   H17   S    
C15   H9    S    
C12   C36   S    
C9    C10   A    
Cu2   O2    S    
C1    C22   S    
C33   N1    A    
C21   C22   A    
Cu2   O8    S    
C6    H15   S    
C28   H8    S    
C38   C39   A    
C38   H13   S    
C36   C40   A    
C24   C25   A    
C34   O8    A    
C12   O3    A    
C16   C17   A    
Cu1   O5    S    
C25   C26   A    
C35   N2    A    
C31   N2    A    
Cu2   N1    S    
C2    C4    A    
C29   C30   A    
C31   C32   A    
C42   H19   S    
C17   C18   A    
C41   H20   S    
C25   H6    S    
C30   Cl4   S    
C7    H1    S    
C22   C24   A    
Cu1   O3    S    
C16   H4    S    
Cu2   O4    S    
C35   H10   S    
C18   Cl1   S    
C27   C32   A    
C36   C39   A    
Cu1   N2    S    
C4    C5    A    
C27   Cl2   S    
C10   C13   A    
C1    O1    A    
C34   O7    A    
C6    C7    A    
C39   Cl5   S    
C23   O5    A    
C2    C3    A    
C14   C37   A    
C30   C31   A    
C20   C26   A    
C33   C35   A    
C41   H21   S    
C41   C42   S    
C10   C11   A    
C2    C40   A    
C14   H11   S    
C20   C21   A    
C27   C28   A    
Cu2   O6    S    
C42   H18   S    
C9    H12   S    
C32   N1    A    
C13   C14   A    
C13   H2    S    
