data_mof_unit_8064.cif
_audit_creation_date              2012-12-10T17:03:58-0500
_audit_creation_method            fapswitch 2.2
_symmetry_space_group_name_H-M    P1
_symmetry_Int_Tables_number       1
_space_group_crystal_system       triclinic
_cell_length_a                    9.867237
_cell_length_b                    11.039219
_cell_length_c                    15.805864
_cell_angle_alpha                 96.115287
_cell_angle_beta                  78.183506
_cell_angle_gamma                 111.266847
_cell_volume                      1569.45219292

loop_
_atom_site_label
_atom_site_type_symbol
_atom_type_description
_atom_site_fract_x
_atom_site_fract_y
_atom_site_fract_z
_atom_type_partial_charge
C1    C     C_R   0.556132 0.745284 0.506236 0.881765
C2    C     C_R   0.443868 0.254716 0.493764 0.881766
C3    C     C_R   0.326140 0.465979 0.080579 -0.208705
C4    C     C_R   0.673860 0.534021 0.919421 -0.208705
C5    C     C_R   0.220700 0.431607 0.027914 -0.160742
C6    C     C_R   0.779300 0.568393 0.972085 -0.160743
C7    C     C_2   0.587414 0.884759 0.509845 -0.310160
C8    C     C_2   0.412586 0.115241 0.490155 -0.310160
C9    C     C_2   0.484979 0.930492 0.498002 -0.112510
C10   C     C_2   0.515021 0.069508 0.501998 -0.112510
C11   C     C_2   0.924247 0.489154 0.492143 0.359483
C12   C     C_2   0.075753 0.510845 0.507857 0.359483
C13   C     C_R   0.409108 0.483119 0.663067 0.812999
C14   C     C_R   0.590892 0.516881 0.336933 0.812997
C15   C     C_R   0.350191 0.464974 0.757264 -0.115447
C16   C     C_R   0.649809 0.535026 0.242736 -0.115447
C17   C     C_R   0.153159 0.389885 0.883176 -0.029107
C18   C     C_R   0.846841 0.610115 0.116824 -0.029106
C19   C     C_R   0.198246 0.403963 0.792521 -0.063133
C20   C     C_R   0.801754 0.596037 0.207479 -0.063133
C21   C     C_R   0.453851 0.502124 0.812247 -0.228627
C22   C     C_R   0.546149 0.497876 0.187752 -0.228627
C23   C     C_R   0.413776 0.478026 0.900905 0.075617
C24   C     C_R   0.586224 0.521973 0.099095 0.075617
C25   C     C_R   0.261257 0.430949 0.937539 0.110807
C26   C     C_R   0.738743 0.569050 0.062461 0.110807
C27   C     C_R   0.522341 0.504088 0.954425 0.089046
C28   C     C_R   0.477659 0.495912 0.045575 0.089046
Cu1   Cu    Cu3+1 0.362980 0.479380 0.485080 1.021745
Cu2   Cu    Cu3+1 0.637020 0.520620 0.514920 1.021746
H1    H     H_    0.107031 0.409926 0.059672 0.174245
H2    H     H_    0.892969 0.590073 0.940328 0.174245
H3    H     H_    0.432718 0.446536 0.215572 0.167357
H4    H     H_    0.567282 0.553464 0.784428 0.167358
H5    H     H_    0.284896 0.470436 0.149043 0.150751
H6    H     H_    0.715104 0.529564 0.850957 0.150751
H7    H     H_    0.622229 0.134824 0.514793 0.214354
H8    H     H_    0.377771 0.865176 0.485207 0.214354
H9    H     H_    0.305407 0.049538 0.477623 0.170661
H10   H     H_    0.694592 0.950462 0.522377 0.170661
H11   H     H_    0.117033 0.382325 0.414797 0.226045
H12   H     H_    0.882967 0.617675 0.585203 0.226045
N1    N     N_2   0.842890 0.551600 0.537350 -0.298447
N2    N     N_2   0.157110 0.448400 0.462650 -0.298447
O1    O     O_R   0.426810 0.668300 0.492040 -0.525530
O2    O     O_R   0.573190 0.331700 0.507960 -0.525531
O3    O     O_R   0.658240 0.703130 0.517240 -0.573207
O4    O     O_R   0.341760 0.296870 0.482760 -0.573208
O5    O     O_R   0.319390 0.472820 0.610170 -0.547426
O6    O     O_R   0.680610 0.527180 0.389830 -0.547426
O7    O     O_R   0.550820 0.507640 0.635370 -0.582583
O8    O     O_R   0.449180 0.492360 0.364630 -0.582583
C29   C     C_2   0.913774 0.651529 0.264336 0.347569
H13   H     H_    0.929738 0.590674 0.307815 0.142963
O9    O     O_2   0.990663 0.766630 0.261944 -0.508903
C30   C     C_2   0.086226 0.348471 0.735664 0.347569
H14   H     H_    0.070261 0.409326 0.692185 0.142962
O10   O     O_2   0.009336 0.233370 0.738056 -0.508903
C31   C     C_2   0.992391 0.331106 0.919162 0.405758
H15   H     H_    0.912611 0.355908 0.893084 0.071754
O11   O     O_2   0.947325 0.249435 0.974397 -0.498507
C32   C     C_2   0.007609 0.668894 0.080838 0.405757
H16   H     H_    0.087389 0.644092 0.106916 0.071754
O12   O     O_2   0.052675 0.750564 0.025603 -0.498507
Cl1   Cl    Cl    0.143308 0.624793 0.590285 -0.659883
Cl2   Cl    Cl    0.856691 0.375207 0.409715 -0.659883

loop_
_geom_bond_atom_site_label_1
_geom_bond_atom_site_label_2
_ccdc_geom_bond_type
C19   C30   S    
C13   O5    A    
C6    H2    S    
Cu2   O7    S    
C4    H6    S    
C14   O8    A    
C11   N1    D    
C32   H16   S    
C8    H9    S    
C23   C27   A    
C12   Cl1   S    
C18   C20   A    
C18   C26   A    
C11   Cl2   S    
C3    H5    S    
C16   C20   A    
C17   C25   A    
C29   O9    D    
Cu2   O6    S    
C31   H15   S    
C12   N2    D    
C14   O6    A    
C29   H13   S    
Cu1   O5    S    
C15   C19   A    
C1    O1    A    
Cu1   Cu2   S    
C17   C31   S    
C10   H7    S    
C5    C25   A    
C4    C6    A    
C3    C28   A    
C17   C19   A    
C30   O10   D    
C14   C16   S    
C13   C15   S    
Cu1   N2    S    
H11   N2    S    
C22   C24   A    
Cu2   N1    S    
C31   O11   D    
H12   N1    S    
C16   C22   A    
Cu1   O4    S    
C9    H8    S    
C3    C5    A    
Cu2   O3    S    
C15   C21   A    
C4    C27   A    
C30   H14   S    
C8    C10   D    
C23   C25   A    
C9    C10   S    
Cu1   O1    S    
C27   C28   A    
C7    C9    D    
C22   H3    S    
C18   C32   S    
C6    C26   A    
C1    O3    A    
C1    C7    S    
C32   O12   D    
C21   H4    S    
C2    O2    A    
C2    O4    A    
C13   O7    A    
C7    H10   S    
C21   C23   A    
Cu2   O2    S    
C2    C8    S    
C24   C28   A    
C11   C12   S    
C24   C26   A    
C20   C29   S    
C5    H1    S    
Cu1   O8    S    
