data_mof_unit_39842.cif
_audit_creation_date              2012-12-10T20:39:59-0500
_audit_creation_method            fapswitch 2.2
_symmetry_space_group_name_H-M    P1
_symmetry_Int_Tables_number       1
_space_group_crystal_system       triclinic
_cell_length_a                    23.449059
_cell_length_b                    10.679687
_cell_length_c                    9.867894
_cell_angle_alpha                 89.797487
_cell_angle_beta                  89.137567
_cell_angle_gamma                 90.391421
_cell_volume                      2470.84902767

loop_
_atom_site_label
_atom_site_type_symbol
_atom_type_description
_atom_site_fract_x
_atom_site_fract_y
_atom_site_fract_z
_atom_type_partial_charge
C1    C     C_R   0.499374 0.260484 0.500243 0.892490
C2    C     C_R   0.968076 0.304330 0.593139 -0.042413
C3    C     C_R   0.027074 0.301054 0.571870 -0.094288
C4    C     C_R   0.057927 0.409879 0.539405 -0.066055
C5    C     C_R   0.029884 0.525127 0.526127 -0.002657
C6    C     C_R   0.061768 0.636608 0.502324 -0.104215
C7    C     C_R   0.032615 0.749926 0.474332 -0.044867
C8    C     C_R   0.972972 0.750916 0.481199 -0.088584
C9    C     C_R   0.117033 0.406472 0.524521 0.510321
C10   C     C_R   0.121621 0.629511 0.512062 0.495388
C11   C     C_R   0.238932 0.559080 0.406925 -0.054723
C12   C     C_R   0.389444 0.496252 0.500922 0.865791
C13   C     C_R   0.297822 0.553855 0.401842 -0.242147
C14   C     C_R   0.327257 0.491253 0.503479 -0.181972
C15   C     C_R   0.296912 0.431029 0.610705 0.427398
C16   C     C_R   0.237965 0.451212 0.625638 -0.028603
C17   C     C_R   0.208747 0.510092 0.518621 0.135291
C18   C     C_R   0.768283 0.479001 0.400266 -0.043768
C19   C     C_R   0.708391 0.464613 0.391486 -0.068936
C20   C     C_R   0.673415 0.507377 0.499982 -0.242755
C21   C     C_R   0.698106 0.563183 0.613505 -0.178512
C22   C     C_R   0.756541 0.575961 0.624237 0.542201
C23   C     C_R   0.497309 0.739414 0.499697 0.868924
C24   C     C_R   0.791847 0.533934 0.517189 0.074516
C25   C     C_R   0.531514 0.062472 0.589294 0.019471
C26   C     C_R   0.498629 0.128925 0.498729 -0.132848
C27   C     C_R   0.468194 0.067330 0.397762 -0.143011
C28   C     C_R   0.464859 0.937351 0.397910 -0.041898
C29   C     C_R   0.495722 0.871496 0.497568 -0.136805
C30   C     C_R   0.530969 0.934831 0.586959 0.035009
C31   C     C_3   0.536713 0.922735 0.737615 -0.482193
C32   C     C_3   0.536458 0.065765 0.741403 0.352950
C33   C     C_R   0.451047 0.521877 0.073081 0.090081
C34   C     C_R   0.610823 0.499529 0.499143 0.891839
C35   C     C_R   0.549342 0.487448 0.070047 -0.097664
C36   C     C_R   0.549388 0.487152 0.926395 -0.083937
C37   C     C_R   0.451040 0.521835 0.930406 0.099212
C38   C     C_3   0.397458 0.446223 0.925890 -0.446751
C39   C     C_3   0.397190 0.445950 0.079884 0.260469
C40   C     C_R   0.882173 0.642405 0.509122 0.504721
C41   C     C_R   0.878480 0.423920 0.562497 0.498176
C42   C     C_R   0.938426 0.417449 0.566431 -0.103955
C43   C     C_R   0.969953 0.528090 0.534755 -0.008064
C44   C     C_R   0.941660 0.641698 0.510353 -0.062890
H1    H     H_    0.671679 0.597467 0.696298 0.187651
H2    H     H_    0.443867 0.120901 0.325385 0.219365
H3    H     H_    0.498895 0.877079 0.786722 0.223723
H4    H     H_    0.578158 0.880486 0.765395 0.207391
H5    H     H_    0.588934 0.476038 0.122316 0.181628
H6    H     H_    0.049528 0.214135 0.588977 0.241724
H7    H     H_    0.589176 0.474800 0.871581 0.180875
H8    H     H_    0.361767 0.501090 0.883479 0.221971
H9    H     H_    0.404251 0.352672 0.879581 0.250549
H10   H     H_    0.360782 0.497516 0.125479 0.143297
H11   H     H_    0.950758 0.836950 0.458305 0.242188
H12   H     H_    0.216533 0.604063 0.325030 0.166421
H13   H     H_    0.320413 0.600043 0.319047 0.162348
N1    N     N_R   0.852362 0.534363 0.532558 -0.365783
N2    N     N_R   0.147716 0.515554 0.518673 -0.345612
N3    N     N_R   0.499610 0.499140 0.142800 -0.109600
N4    N     N_R   0.499610 0.499180 0.857150 -0.111203
O1    O     O_R   0.500010 0.316790 0.614690 -0.616764
O2    O     O_2   0.845984 0.320537 0.581572 -0.547976
O3    O     O_2   0.143966 0.295179 0.519074 -0.517854
O4    O     O_2   0.153611 0.734504 0.520412 -0.558463
O5    O     O_R   0.500000 0.316760 0.385350 -0.606864
O6    O     O_R   0.416160 0.499980 0.614700 -0.613122
O7    O     O_R   0.416150 0.499940 0.385360 -0.599939
O8    O     O_R   0.500000 0.683240 0.614650 -0.602500
O9    O     O_R   0.499990 0.683210 0.385310 -0.630249
O10   O     O_R   0.583850 0.500060 0.614640 -0.615914
O11   O     O_R   0.583840 0.500020 0.385300 -0.635874
O12   O     O_2   0.854075 0.749329 0.482084 -0.514348
Zn1   Zn    Zn3+2 0.500000 0.500020 0.653130 0.975521
Zn2   Zn    Zn3+2 0.500000 0.499980 0.346870 0.980201
C45   C     C_2   0.940274 0.190397 0.651443 0.533850
H14   H     H_    0.904332 0.198050 0.721147 0.123317
O13   O     O_2   0.958584 0.086218 0.625951 -0.514929
C46   C     C_2   0.682527 0.402959 0.272394 0.525039
H15   H     H_    0.648252 0.335192 0.286757 0.054931
O14   O     O_2   0.698109 0.429978 0.157258 -0.533678
O15   O     O_3   0.777137 0.627163 0.742458 -0.721078
H16   H     H_    0.819276 0.625421 0.741707 0.352432
C47   C     C_2   0.425166 0.874570 0.302890 0.451501
H17   H     H_    0.410379 0.779557 0.321450 0.061754
O16   O     O_2   0.407671 0.929373 0.203095 -0.536103
C48   C     C_2   0.485881 0.119791 0.816951 0.514948
H18   H     H_    0.492768 0.187216 0.897159 0.067664
O17   O     O_2   0.437179 0.088792 0.789384 -0.569810
O18   O     O_3   0.588274 0.118516 0.784820 -0.765625
H19   H     H_    0.619829 0.085187 0.727434 0.356746
O19   O     O_3   0.404081 0.326140 0.137427 -0.677757
H20   H     H_    0.437981 0.286127 0.094873 0.340873
C49   C     C_2   0.062065 0.864906 0.423348 0.528959
H21   H     H_    0.101919 0.858919 0.366840 0.113642
O20   O     O_2   0.041051 0.968107 0.439965 -0.513777
O21   O     O_3   0.323157 0.349702 0.698680 -0.696690
H22   H     H_    0.356584 0.312180 0.652023 0.346574
C50   C     C_2   0.206675 0.413577 0.752302 0.549682
H23   H     H_    0.162831 0.442052 0.768858 0.027699
O22   O     O_2   0.229395 0.352642 0.841131 -0.473048
C51   C     C_2   0.808052 0.432196 0.293030 0.582239
H24   H     H_    0.847350 0.482920 0.270564 0.037300
O23   O     O_2   0.799122 0.333629 0.234508 -0.499181

loop_
_geom_bond_atom_site_label_1
_geom_bond_atom_site_label_2
_ccdc_geom_bond_type
C48   H18   S    
C19   C46   S    
C28   C47   S    
C9    O3    S    
C41   C42   A    
C23   O8    A    
C19   C20   A    
C1    O1    A    
O21   H22   S    
C7    C8    A    
O7    Zn2   S    
C12   O7    A    
C26   C27   A    
C33   C39   S    
C22   O15   S    
C18   C24   A    
C23   C29   S    
C28   C29   A    
C37   C38   S    
C47   O16   D    
C41   N1    A    
C30   C31   S    
C39   H10   S    
C38   H8    S    
C15   C16   A    
C40   O12   S    
C18   C19   A    
C18   C51   S    
C32   O18   S    
C35   C36   A    
C16   C17   A    
C35   H5    S    
C20   C34   S    
C25   C32   S    
C5    C43   A    
C31   H3    S    
C21   C22   A    
C23   O9    A    
C51   H24   S    
C15   O21   S    
O11   Zn2   S    
C8    H11   S    
C3    H6    S    
C21   H1    S    
C38   C39   S    
C12   O6    A    
C40   N1    A    
C45   H14   S    
C46   O14   D    
C25   C26   A    
C32   C48   S    
C33   C37   A    
C35   N3    A    
C9    N2    A    
C49   O20   D    
C43   C44   A    
C29   C30   A    
C31   C32   S    
C1    O5    A    
O8    Zn1   S    
O6    Zn1   S    
C47   H17   S    
C51   O23   D    
C36   H7    S    
C17   N2    S    
C27   H2    S    
C50   O22   D    
C12   C14   S    
C33   N3    A    
C31   H4    S    
C48   O17   D    
C1    C26   S    
C22   C24   A    
C42   C43   A    
C41   O2    S    
C3    C4    A    
C34   O11   A    
C39   O19   S    
O9    Zn2   S    
C2    C45   S    
C10   O4    S    
C25   C30   A    
C7    C49   S    
C11   C17   A    
C8    C44   A    
C45   O13   D    
C4    C5    A    
C6    C10   A    
O10   Zn1   S    
C37   N4    A    
C16   C50   S    
C6    C7    A    
N4    Zn1   S    
N3    Zn2   S    
C50   H23   S    
C2    C3    A    
C11   C13   A    
O18   H19   S    
C5    C6    A    
C38   H9    S    
C2    C42   A    
O5    Zn2   S    
O19   H20   S    
C10   N2    A    
C49   H21   S    
C46   H15   S    
C40   C44   A    
C13   H13   S    
C20   C21   A    
C24   N1    S    
O15   H16   S    
C27   C28   A    
C14   C15   A    
O1    Zn1   S    
C4    C9    A    
C13   C14   A    
C34   O10   A    
C11   H12   S    
C36   N4    A    
