data_mof_unit_49612.cif
_audit_creation_date              2012-12-10T19:24:06-0500
_audit_creation_method            fapswitch 2.2
_symmetry_space_group_name_H-M    P1
_symmetry_Int_Tables_number       1
_space_group_crystal_system       triclinic
_cell_length_a                    10.496085
_cell_length_b                    10.481624
_cell_length_c                    9.816131
_cell_angle_alpha                 89.641873
_cell_angle_beta                  87.421267
_cell_angle_gamma                 89.970235
_cell_volume                      1078.81691959

loop_
_atom_site_label
_atom_site_type_symbol
_atom_type_description
_atom_site_fract_x
_atom_site_fract_y
_atom_site_fract_z
_atom_type_partial_charge
C1    C     C_R   0.500048 0.257696 0.500493 0.851507
C2    C     C_R   0.499952 0.742304 0.499507 0.851506
C3    C     C_3   0.394815 0.957136 0.568901 -0.183002
C4    C     C_3   0.605185 0.042864 0.431099 -0.183002
C5    C     C_3   0.466476 0.389513 0.051468 -0.122910
C6    C     C_3   0.533524 0.610487 0.948532 -0.122910
C7    C     C_3   0.578286 0.415307 0.947576 -0.129067
C8    C     C_3   0.421714 0.584693 0.052424 -0.129067
C9    C     C_3   0.388996 0.474450 0.959051 0.267273
C10   C     C_3   0.611004 0.525550 0.040949 0.267274
C11   C     C_R   0.257577 0.498707 0.502528 0.849839
C12   C     C_R   0.742423 0.501293 0.497472 0.849839
C13   C     C_3   0.030754 0.480764 0.630184 -0.161462
C14   C     C_3   0.969246 0.519236 0.369816 -0.161462
C15   C     C_3   0.953062 0.387775 0.545454 -0.186079
C16   C     C_3   0.046937 0.612225 0.454546 -0.186080
C17   C     C_3   0.877824 0.501688 0.493931 0.039645
C18   C     C_3   0.122175 0.498312 0.506069 0.039645
C19   C     C_3   0.952952 0.594796 0.578661 -0.164841
C20   C     C_3   0.047047 0.405204 0.421339 -0.164840
C21   C     C_3   0.499629 0.039315 0.630180 -0.141175
C22   C     C_3   0.500371 0.960685 0.369820 -0.141175
C23   C     C_3   0.604786 0.957018 0.559508 -0.187403
C24   C     C_3   0.395214 0.042982 0.440491 -0.187403
C25   C     C_3   0.499972 0.877545 0.498410 0.040417
C26   C     C_3   0.500028 0.122455 0.501590 0.040417
H1    H     H_    0.910334 0.296106 0.581769 0.123248
H2    H     H_    0.089665 0.703894 0.418230 0.123248
H3    H     H_    0.055059 0.463045 0.736967 0.143063
H4    H     H_    0.944940 0.536954 0.263033 0.143063
H5    H     H_    0.910348 0.672549 0.642134 0.129929
H6    H     H_    0.089651 0.327451 0.357866 0.129929
H7    H     H_    0.689935 0.917028 0.607665 0.122101
H8    H     H_    0.310065 0.082971 0.392335 0.122101
H9    H     H_    0.499324 0.075408 0.736306 0.134888
H10   H     H_    0.500676 0.924591 0.263694 0.134888
H11   H     H_    0.309320 0.917277 0.624669 0.126017
H12   H     H_    0.690679 0.082723 0.375331 0.126018
H13   H     H_    0.644857 0.344815 0.899277 0.127084
H14   H     H_    0.355143 0.655185 0.100723 0.127084
H15   H     H_    0.437894 0.296759 0.098734 0.130655
H16   H     H_    0.562106 0.703241 0.901266 0.130655
N1    N     N_3   0.499910 0.500030 0.863290 -0.104806
N2    N     N_3   0.500090 0.499970 0.136710 -0.104806
O1    O     O_R   0.500010 0.313960 0.616610 -0.629840
O2    O     O_R   0.499990 0.686040 0.383390 -0.629841
O3    O     O_R   0.500060 0.313950 0.383350 -0.621795
O4    O     O_R   0.499940 0.686050 0.616650 -0.621795
O5    O     O_R   0.313930 0.499970 0.616610 -0.642609
O6    O     O_R   0.686070 0.500030 0.383390 -0.642609
O7    O     O_R   0.313980 0.499960 0.383350 -0.612020
O8    O     O_R   0.686020 0.500040 0.616650 -0.612020
Zn1   Zn    Zn3+2 0.499970 0.500010 0.655740 0.921577
Zn2   Zn    Zn3+2 0.500030 0.499990 0.344260 0.921577
C27   C     C_3   0.255971 0.446621 0.911462 -0.393965
C28   C     C_3   0.163628 0.413535 0.031106 -0.951455
H17   H     H_    0.196047 0.326731 0.084967 0.261569
H18   H     H_    0.156401 0.494001 0.104151 0.273067
H19   H     H_    0.067540 0.394638 0.992916 0.255167
H20   H     H_    0.221031 0.533437 0.859798 0.214715
H21   H     H_    0.260689 0.365587 0.839057 0.220671
C29   C     C_3   0.744028 0.553379 0.088538 -0.393966
C30   C     C_3   0.836372 0.586466 0.968894 -0.951457
H22   H     H_    0.843600 0.505999 0.895849 0.273067
H23   H     H_    0.803952 0.673269 0.915033 0.261569
H24   H     H_    0.932458 0.605365 0.007084 0.255167
H25   H     H_    0.739310 0.634414 0.160943 0.220671
H26   H     H_    0.778969 0.466564 0.140203 0.214715

loop_
_geom_bond_atom_site_label_1
_geom_bond_atom_site_label_2
_ccdc_geom_bond_type
C16   H2    S    
C7    C10   S    
C27   C28   S    
C30   H23   S    
C11   C18   S    
C21   C26   S    
C19   H5    S    
C2    O2    A    
O6    Zn2   S    
C13   C18   S    
C13   H3    S    
C24   C26   S    
C28   H17   S    
N1    Zn1   S    
C8    C9    S    
C23   H7    S    
C22   C25   S    
C12   C17   S    
C9    C27   S    
C7    N1    S    
C18   C20   S    
C30   H24   S    
O1    Zn1   S    
C27   H20   S    
C14   C17   S    
C3    C24   S    
C10   C29   S    
C14   H4    S    
C12   O8    A    
O4    Zn1   S    
C4    C26   S    
C9    N1    S    
C13   C19   S    
C10   N2    S    
C14   C20   S    
C3    C25   S    
C5    C7    S    
C4    C23   S    
C1    O3    A    
C6    C8    S    
C2    O4    A    
C24   H8    S    
C15   C20   S    
C5    C9    S    
C29   C30   S    
C11   O5    A    
C4    C22   S    
C15   H1    S    
O2    Zn2   S    
O3    Zn2   S    
C29   H25   S    
C5    N2    S    
C4    H12   S    
C6    N1    S    
C13   C15   S    
C1    C26   S    
C14   C16   S    
C3    C21   S    
O8    Zn1   S    
C20   H6    S    
C15   C17   S    
C5    H15   S    
C8    N2    S    
C6    C10   S    
C12   O6    A    
C21   H9    S    
C22   H10   S    
C28   H19   S    
C29   H26   S    
O7    Zn2   S    
C21   C23   S    
C1    O1    A    
C16   C19   S    
O5    Zn1   S    
C27   H21   S    
C17   C19   S    
C28   H18   S    
C2    C25   S    
C22   C24   S    
C23   C25   S    
C11   O7    A    
C30   H22   S    
N2    Zn2   S    
C3    H11   S    
C16   C18   S    
C6    H16   S    
C7    H13   S    
C8    H14   S    
