data_mof_unit_48601.cif
_audit_creation_date              2012-12-10T20:57:51-0500
_audit_creation_method            fapswitch 2.2
_symmetry_space_group_name_H-M    P1
_symmetry_Int_Tables_number       1
_space_group_crystal_system       triclinic
_cell_length_a                    18.209514
_cell_length_b                    18.185196
_cell_length_c                    18.387663
_cell_angle_alpha                 119.893442
_cell_angle_beta                  90.096917
_cell_angle_gamma                 119.798306
_cell_volume                      4321.91771366

loop_
_atom_site_label
_atom_site_type_symbol
_atom_type_description
_atom_site_fract_x
_atom_site_fract_y
_atom_site_fract_z
_atom_type_partial_charge
C1    C     C_R   0.359466 0.220044 0.361239 0.499723
C2    C     C_3   0.794185 0.939601 0.744289 -0.284260
C3    C     C_3   0.697851 0.897379 0.696507 0.041000
C4    C     C_R   0.640758 0.780931 0.639520 0.550361
C5    C     C_3   0.799542 0.102740 0.801059 0.032432
C6    C     C_3   0.720354 0.058223 0.833493 -0.255866
C7    C     C_3   0.854325 0.058957 0.801719 -0.247092
C8    C     C_3   0.647655 0.395769 0.210619 -0.269469
C9    C     C_3   0.707235 0.393477 0.151363 -0.251067
C10   C     C_3   0.726242 0.591936 0.285285 0.210462
C11   C     C_3   0.782727 0.517904 0.343726 -0.220616
C12   C     C_3   0.343015 0.611578 0.327246 -0.218320
C13   C     C_3   0.698355 0.503999 0.301659 0.071781
C14   C     C_3   0.799748 0.499787 0.200091 0.020909
C15   C     C_3   0.786467 0.586120 0.224209 -0.163471
C16   C     C_R   0.358505 0.500074 0.640136 0.500500
C17   C     C_3   0.844890 0.522712 0.287231 -0.235577
C18   C     C_R   0.423224 0.176954 0.580013 -0.087226
C19   C     C_R   0.409887 0.141797 0.490785 -0.121636
C20   C     C_R   0.325320 0.095247 0.435136 0.049036
C21   C     C_R   0.255470 0.086968 0.470300 -0.131706
C22   C     C_R   0.269399 0.123906 0.559621 -0.093038
C23   C     C_3   0.300362 0.500305 0.301600 0.057130
C24   C     C_R   0.353188 0.168604 0.614822 0.308377
C25   C     C_R   0.265525 0.945221 0.278969 -0.017000
C26   C     C_R   0.202120 0.892152 0.195928 0.032736
C27   C     C_R   0.196297 0.948750 0.166934 -0.037684
C28   C     C_R   0.640730 0.501416 0.359448 0.514400
C29   C     C_R   0.253498 0.055681 0.220012 -0.161268
C30   C     C_R   0.305654 0.107660 0.306630 0.006146
C31   C     C_R   0.305750 0.051738 0.339049 -0.010609
C32   C     C_R   0.155650 0.908721 0.015679 -0.070846
C33   C     C_R   0.091763 0.866035 0.938658 0.276526
C34   C     C_3   0.198154 0.499718 0.199740 0.068901
C35   C     C_R   0.000854 0.815472 0.930719 -0.082669
C36   C     C_R   0.973540 0.806412 0.998398 -0.156100
C37   C     C_R   0.037157 0.849142 0.075222 -0.085674
C38   C     C_R   0.128574 0.900313 0.084176 0.018121
C39   C     C_R   0.919481 0.629312 0.572026 -0.083389
C40   C     C_R   0.641834 0.499863 0.639847 0.496910
C41   C     C_R   0.872738 0.573942 0.607194 -0.051962
C42   C     C_R   0.842193 0.615212 0.676818 0.058601
C43   C     C_R   0.860174 0.713259 0.711601 -0.037448
C44   C     C_R   0.906589 0.768141 0.675977 -0.019481
C45   C     C_3   0.146457 0.459453 0.252837 -0.229935
C46   C     C_R   0.936267 0.726239 0.606294 -0.029456
C47   C     C_R   0.842045 0.552449 0.767382 -0.142535
C48   C     C_R   0.799764 0.493571 0.800759 0.009264
C49   C     C_R   0.705304 0.431864 0.776312 -0.045535
C50   C     C_R   0.656132 0.438547 0.725930 -0.150511
C51   C     C_R   0.698456 0.499713 0.694508 0.012804
C52   C     C_R   0.358246 0.500405 0.359393 0.512617
C53   C     C_R   0.792644 0.555825 0.713661 -0.050252
C54   C     C_R   0.638279 0.256403 0.742697 -0.072652
C55   C     C_R   0.598651 0.186518 0.766048 -0.071219
C56   C     C_3   0.283490 0.610962 0.266557 -0.245824
C57   C     C_R   0.575862 0.214746 0.843580 -0.063571
C58   C     C_R   0.591305 0.312244 0.897050 -0.060372
C59   C     C_R   0.631276 0.382633 0.874183 -0.004604
C60   C     C_R   0.655536 0.355185 0.797107 0.072446
C61   C     C_R   0.376108 0.810666 0.741957 -0.084055
C62   C     C_R   0.346869 0.733854 0.756879 -0.096449
C63   C     C_R   0.286188 0.628895 0.686741 0.098467
C64   C     C_3   0.288632 0.430259 0.202101 -0.232748
C65   C     C_R   0.256378 0.601691 0.600945 0.012339
C66   C     C_R   0.285570 0.679015 0.586532 -0.065618
C67   C     C_3   0.707739 0.942400 0.640292 0.158663
C68   C     C_R   0.345008 0.783285 0.657003 -0.048519
C69   C     C_R   0.189449 0.534205 0.747084 0.185548
C70   C     C_R   0.181178 0.486041 0.791467 -0.007487
C71   C     C_R   0.222375 0.432905 0.775232 -0.078390
C72   C     C_R   0.276966 0.436617 0.723289 -0.158046
C73   C     C_R   0.296466 0.496577 0.690796 -0.027770
C74   C     C_R   0.254719 0.548870 0.704876 -0.044473
C75   C     C_R   0.278861 0.415973 0.886175 -0.047327
C76   C     C_3   0.228192 0.429129 0.142566 -0.230121
C77   C     C_R   0.267619 0.360076 0.921644 -0.065616
C78   C     C_3   0.758596 0.063094 0.703431 -0.099488
C79   C     C_R   0.189165 0.260946 0.882841 -0.045974
C80   C     C_R   0.122475 0.216785 0.807490 -0.059172
C81   C     C_R   0.133540 0.272231 0.771555 -0.041628
C82   C     C_R   0.211416 0.372746 0.811498 0.073316
C83   C     C_R   0.857150 0.498311 0.142670 0.492167
C84   C     C_R   0.134310 0.495675 0.857303 0.519494
C85   C     C_R   0.856986 0.219096 0.862503 0.498327
C86   C     C_R   0.141025 0.779764 0.141149 0.488507
C87   C     C_R   0.856054 0.498187 0.860355 0.503842
C88   C     C_3   0.206068 0.458079 0.311537 -0.238179
C89   C     C_3   0.659242 0.938726 0.770529 -0.238508
C90   C     C_R   0.139961 0.499913 0.142629 0.495063
C91   C     C_3   0.827927 0.117622 0.667103 -0.271734
C92   C     C_3   0.824601 0.203112 0.672845 -0.307081
C93   C     C_3   0.890181 0.251831 0.633501 -0.413340
C94   C     C_3   0.641437 0.581214 0.244906 -0.234998
C95   C     C_3   0.600466 0.517432 0.142819 -0.327777
C96   C     C_3   0.503292 0.480966 0.114492 -0.459064
C97   C     C_3   0.296641 0.894251 0.304200 -0.241271
C98   C     C_3   0.392939 0.930704 0.303390 -0.322535
C99   C     C_3   0.437058 0.912715 0.357603 -0.434204
H1    H     H_    0.258408 0.349519 0.181169 0.135387
H2    H     H_    0.355200 0.459428 0.192616 0.120726
H3    H     H_    0.824958 0.910304 0.694871 0.153592
H4    H     H_    0.910520 0.085481 0.776399 0.128501
H5    H     H_    0.884586 0.088375 0.871035 0.132925
H6    H     H_    0.653255 0.906478 0.809884 0.096625
H7    H     H_    0.746676 0.082969 0.902043 0.114899
H8    H     H_    0.583243 0.374193 0.175853 0.143373
H9    H     H_    0.628972 0.334622 0.221599 0.120821
H10   H     H_    0.716980 0.331777 0.134679 0.123146
H11   H     H_    0.672852 0.372472 0.087430 0.131035
H12   H     H_    0.264559 0.664191 0.308481 0.131716
H13   H     H_    0.265669 0.456804 0.104042 0.121589
H14   H     H_    0.760077 0.574003 0.162203 0.086010
H15   H     H_    0.820240 0.587032 0.413266 0.195558
H16   H     H_    0.761509 0.451423 0.347732 0.089866
H17   H     H_    0.860244 0.465376 0.271605 0.109086
H18   H     H_    0.909548 0.600842 0.326438 0.175298
H19   H     H_    0.853852 0.660869 0.257576 0.177931
H20   H     H_    0.487858 0.210068 0.621773 0.130043
H21   H     H_    0.465194 0.150890 0.465625 0.102885
H22   H     H_    0.168639 0.348163 0.094126 0.131558
H23   H     H_    0.211553 0.505360 0.382018 0.114782
H24   H     H_    0.189896 0.051362 0.428144 0.126849
H25   H     H_    0.214430 0.116528 0.585159 0.157565
H26   H     H_    0.250995 0.098698 0.196351 0.137383
H27   H     H_    0.226183 0.948420 0.022727 0.126746
H28   H     H_    0.951160 0.783218 0.872243 0.124211
H29   H     H_    0.903052 0.766766 0.991470 0.111534
H30   H     H_    0.015431 0.842804 0.127848 0.111507
H31   H     H_    0.972412 0.768930 0.578953 0.157091
H32   H     H_    0.173827 0.377428 0.291680 0.111291
H33   H     H_    0.942592 0.597026 0.518107 0.110748
H34   H     H_    0.125452 0.509905 0.295754 0.131802
H35   H     H_    0.860017 0.498856 0.580060 0.120688
H36   H     H_    0.837005 0.746203 0.765231 0.087209
H37   H     H_    0.919776 0.843267 0.702558 0.119329
H38   H     H_    0.914241 0.595923 0.782563 0.204379
H39   H     H_    0.583989 0.394065 0.710149 0.174785
H40   H     H_    0.657013 0.234490 0.683241 0.091337
H41   H     H_    0.585959 0.110716 0.724309 0.137596
H42   H     H_    0.545286 0.160649 0.861692 0.099345
H43   H     H_    0.572241 0.333092 0.956140 0.082489
H44   H     H_    0.084499 0.379912 0.206237 0.107539
H45   H     H_    0.748643 0.923083 0.599558 0.135613
H46   H     H_    0.644609 0.458722 0.916996 0.101841
H47   H     H_    0.366779 0.842936 0.645848 0.133945
H48   H     H_    0.422470 0.891466 0.796367 0.112808
H49   H     H_    0.370897 0.756034 0.823186 0.094591
H50   H     H_    0.210038 0.521091 0.545996 0.103032
H51   H     H_    0.261756 0.658527 0.521021 0.088022
H52   H     H_    0.307544 0.395197 0.711386 0.179163
H53   H     H_    0.339580 0.493030 0.917142 0.099438
H54   H     H_    0.319768 0.393537 0.979127 0.090408
H55   H     H_    0.351020 0.663601 0.397830 0.146755
H56   H     H_    0.707811 0.080591 0.705044 0.182487
H57   H     H_    0.180529 0.217922 0.910541 0.119439
H58   H     H_    0.062444 0.139457 0.776760 0.102722
H59   H     H_    0.081249 0.237667 0.713526 0.094913
H60   H     H_    0.411048 0.643413 0.320871 0.151545
H61   H     H_    0.322271 0.640591 0.229621 0.105295
H62   H     H_    0.477655 0.864121 0.560876 0.355633
H63   H     H_    0.960270 0.292248 0.673442 0.171087
H64   H     H_    0.876381 0.191691 0.563677 0.161658
H65   H     H_    0.882070 0.308509 0.633736 0.188436
H66   H     H_    0.755841 0.169424 0.635109 0.181929
H67   H     H_    0.590630 0.912697 0.741402 0.200506
H68   H     H_    0.841325 0.264738 0.742985 0.178826
H69   H     H_    0.897177 0.150825 0.702839 0.146620
H70   H     H_    0.813811 0.060737 0.595865 0.187530
H71   H     H_    0.460793 0.425444 0.130765 0.155622
H72   H     H_    0.498249 0.547918 0.148590 0.151030
H73   H     H_    0.478040 0.441003 0.041525 0.163301
H74   H     H_    0.639431 0.566245 0.119291 0.161314
H75   H     H_    0.601934 0.448766 0.108050 0.150866
H76   H     H_    0.587998 0.552238 0.271962 0.158075
H77   H     H_    0.658024 0.658946 0.269279 0.183740
H78   H     H_    0.679635 0.088706 0.836360 0.136223
H79   H     H_    0.692005 0.742908 0.435975 0.351947
H80   H     H_    0.386632 0.156840 0.801409 0.366919
H81   H     H_    0.443140 0.959033 0.428531 0.169181
H82   H     H_    0.396947 0.829549 0.331480 0.150568
H83   H     H_    0.505246 0.936885 0.353387 0.169033
H84   H     H_    0.391166 0.887394 0.233560 0.156465
H85   H     H_    0.435501 0.014107 0.330251 0.163807
H86   H     H_    0.291921 0.912243 0.370592 0.160147
H87   H     H_    0.256075 0.809040 0.258605 0.173992
H88   H     H_    0.263002 0.009198 0.918735 0.334620
H89   H     H_    0.791627 0.912011 0.786990 0.121666
H90   H     H_    0.208918 0.739392 0.824931 0.366364
O1    O     O_3   0.500000 0.500000 0.500000 -0.445793
O2    O     O_R   0.113800 0.731630 0.056520 -0.522251
O3    O     O_R   0.819390 0.439310 0.886160 -0.552829
O4    O     O_R   0.383400 0.268380 0.323710 -0.553875
O5    O     O_R   0.115110 0.560720 0.179280 -0.555178
O6    O     O_R   0.941380 0.560750 0.885620 -0.504574
O7    O     O_R   0.115110 0.439270 0.057830 -0.551178
O8    O     O_R   0.942690 0.268390 0.886930 -0.552436
O9    O     O_R   0.114340 0.731630 0.178520 -0.559610
O10   O     O_R   0.820160 0.439310 0.057830 -0.550874
O11   O     O_R   0.113800 0.560730 0.885620 -0.446729
O12   O     O_R   0.383400 0.560740 0.616060 -0.555546
O13   O     O_R   0.555060 0.731630 0.615290 -0.483218
O14   O     O_R   0.383950 0.439280 0.616600 -0.540573
O15   O     O_R   0.677590 0.560710 0.444390 -0.486624
O16   O     O_R   0.556370 0.439260 0.616600 -0.550486
O17   O     O_R   0.382640 0.439290 0.322940 -0.555931
O18   O     O_R   0.678360 0.560700 0.616060 -0.553095
O19   O     O_R   0.382640 0.560750 0.444390 -0.525019
O20   O     O_2   0.626173 0.942792 0.517788 -0.321263
O21   O     O_2   0.566358 0.773661 0.488419 -0.305600
O22   O     O_3   0.529036 0.892942 0.609022 -0.571835
O23   O     O_R   0.555060 0.439270 0.322940 -0.570676
O24   O     O_2   0.879572 0.747375 0.434033 -0.301273
O25   O     O_2   0.818364 0.800430 0.368241 -0.306818
O26   O     O_3   0.736156 0.737542 0.460472 -0.488091
O27   O     O_2   0.448274 0.323800 0.785437 -0.321287
O28   O     O_2   0.287559 0.200968 0.749612 -0.302171
O29   O     O_3   0.391511 0.140251 0.742271 -0.522113
O30   O     O_2   0.076726 0.769431 0.767373 -0.201719
O31   O     O_2   0.098751 0.937121 0.840500 -0.321581
O32   O     O_3   0.235995 0.934523 0.874519 -0.525222
O33   O     O_2   0.107946 0.574943 0.660177 -0.285904
O34   O     O_R   0.383950 0.268380 0.445700 -0.535760
O35   O     O_2   0.024120 0.496915 0.732472 -0.283467
O36   O     O_3   0.157373 0.690506 0.832232 -0.452524
O37   O     O_R   0.677590 0.731610 0.615290 -0.530555
O38   O     O_3   0.997750 0.500010 0.002220 -0.444941
O39   O     O_R   0.942690 0.560750 0.179280 -0.544643
O40   O     O_R   0.114340 0.439270 0.886160 -0.559543
O41   O     O_R   0.820160 0.268410 0.886930 -0.555445
S1    S     S_3+6 0.605092 0.885201 0.560031 -0.046081
S2    S     S_3+6 0.793681 0.722563 0.389098 -0.031918
S3    S     S_3+6 0.369971 0.212060 0.726716 -0.019807
S4    S     S_3+6 0.124643 0.876108 0.852275 0.008752
S5    S     S_3+6 0.116715 0.572219 0.739882 0.031718
Zn1   Zn    Zn3+2 0.456040 0.586770 0.543190 0.974395
Zn2   Zn    Zn3+2 0.456820 0.413240 0.543960 0.932091
Zn3   Zn    Zn3+2 0.631110 0.586750 0.543190 0.967735
Zn4   Zn    Zn3+2 0.456040 0.413240 0.369660 0.916617
Zn5   Zn    Zn3+2 0.041710 0.413240 0.959030 0.909473
Zn6   Zn    Zn3+2 0.866640 0.413270 0.959030 0.908498
Zn7   Zn    Zn3+2 0.040930 0.586780 0.958260 1.013638
Zn8   Zn    Zn3+2 0.041710 0.586770 0.132560 0.909835

loop_
_geom_bond_atom_site_label_1
_geom_bond_atom_site_label_2
_ccdc_geom_bond_type
C44   H37   S    
C66   C68   A    
C63   C65   A    
C34   C56   S    
C8    C13   S    
O37   Zn3   S    
C29   H26   S    
O32   S4    S    
C27   C29   A    
C41   C42   A    
C92   C93   S    
C95   C96   S    
O1    Zn3   S    
C43   C44   A    
O25   S2    D    
O38   Zn7   S    
C97   C98   S    
C57   C58   A    
C68   H47   S    
C39   C41   A    
C54   C60   A    
C84   O11   A    
C97   H86   S    
H62   O22   S    
C12   C23   S    
C26   C27   A    
C37   C38   A    
C49   C60   S    
O22   S1    S    
H79   O26   S    
C52   O17   A    
C76   H22   S    
O31   S4    D    
C36   C37   A    
O35   S5    D    
C66   H51   S    
C10   C15   S    
C42   C53   S    
O38   Zn8   S    
C30   C31   A    
C33   C35   A    
O8    Zn5   S    
C78   H56   S    
C39   H33   S    
C10   C94   S    
C27   C38   S    
C98   C99   S    
C2    H3    S    
C86   O2    A    
C94   H77   S    
C18   C19   A    
O20   S1    D    
C32   H27   S    
C98   H84   S    
C11   H15   S    
O4    Zn4   S    
C99   H83   S    
C24   S3    S    
O18   Zn3   S    
C77   H54   S    
C79   H57   S    
C54   C55   A    
C92   H66   S    
C11   C17   S    
C2    C7    S    
C8    C9    S    
C96   H72   S    
O21   S1    D    
C15   H14   S    
C13   C28   S    
C70   C71   A    
C81   H59   S    
C4    O37   A    
C16   O14   A    
C11   H16   S    
O19   Zn1   S    
C56   H12   S    
C17   H18   S    
C94   H76   S    
C47   C53   A    
C71   C82   S    
C5    C85   S    
C64   C76   S    
C62   H49   S    
C40   O18   A    
C67   S1    S    
C59   C60   A    
C7    H4    S    
C21   C22   A    
C65   H50   S    
O27   S3    D    
C14   C17   S    
C69   C70   A    
C67   C78   S    
C14   C83   S    
C54   H40   S    
C67   H45   S    
C8    H9    S    
C41   H35   S    
C44   C46   A    
C81   C82   A    
C83   O39   A    
C77   C79   A    
C73   C74   A    
C9    H10   S    
C64   H2    S    
C3    C89   S    
H90   O36   S    
O33   S5    D    
C99   H82   S    
O5    Zn8   S    
C91   H70   S    
C16   C73   S    
C28   O15   A    
C91   H69   S    
C45   C88   S    
C97   H87   S    
O29   S3    S    
C88   H23   S    
O34   Zn2   S    
O28   S3    D    
C91   C92   S    
C5    C7    S    
C72   C73   A    
O12   Zn1   S    
C26   C86   S    
H88   O32   S    
C93   H65   S    
C25   C26   A    
O13   Zn1   S    
C55   H41   S    
O26   S2    S    
C51   C53   A    
C35   C36   A    
O36   S5    S    
C21   H24   S    
C1    O4    A    
C9    C14   S    
C34   C90   S    
O38   Zn6   S    
C62   C63   A    
C43   H36   S    
C58   H43   S    
C4    O13   A    
C47   C48   A    
C90   O5    A    
C64   H1    S    
C75   H53   S    
C76   H13   S    
C72   H52   S    
C47   H38   S    
C10   S2    S    
C50   C51   A    
C6    H7    S    
C48   C87   S    
C69   C74   A    
C34   C45   S    
O40   Zn5   S    
O16   Zn2   S    
C84   O40   A    
C75   C77   A    
C80   H58   S    
C12   C56   S    
O24   S2    D    
C86   O9    A    
C39   C46   A    
C59   H46   S    
O15   Zn3   S    
C23   C64   S    
O6    Zn7   S    
C19   H21   S    
C65   C66   A    
C94   C95   S    
C32   C38   A    
C23   C88   S    
C55   C57   A    
C6    H78   S    
C78   C91   S    
C18   C24   A    
C58   C59   A    
O1    Zn1   S    
C42   C43   A    
C83   O10   A    
C3    C4    S    
C6    C89   S    
C8    H8    S    
O11   Zn7   S    
C95   H74   S    
C35   H28   S    
C70   C84   S    
O10   Zn6   S    
O7    Zn5   S    
C25   C97   S    
C9    H11   S    
C61   C68   A    
C40   O16   A    
C48   C49   A    
O3    Zn6   S    
O1    Zn2   S    
C61   H48   S    
C52   O19   A    
O2    Zn7   S    
C25   C31   A    
C95   H75   S    
C3    C67   S    
C85   O41   A    
C14   C15   S    
C36   H29   S    
C12   H55   S    
C80   C81   A    
C10   C13   S    
C1    O34   A    
C46   H31   S    
C50   H39   S    
C75   C82   A    
C22   H25   S    
O30   S4    D    
C63   C74   S    
O9    Zn8   S    
C28   O23   A    
C40   C51   S    
C45   H34   S    
C15   H19   S    
C57   H42   S    
C7    H5    S    
C32   C33   A    
C19   C20   A    
C2    C3    S    
C69   S5    S    
C87   O6    A    
C99   H81   S    
H80   O29   S    
O41   Zn6   S    
C11   C13   S    
C92   H68   S    
C23   C52   S    
C5    C6    S    
O39   Zn8   S    
C93   H63   S    
O38   Zn5   S    
C1    C30   S    
O1    Zn4   S    
C37   H30   S    
C22   C24   A    
C12   H60   S    
C98   H85   S    
C61   C62   A    
C2    H89   S    
C89   H67   S    
O14   Zn2   S    
O23   Zn4   S    
C29   C30   A    
C79   C80   A    
C71   C72   A    
O17   Zn4   S    
C90   O7    A    
C20   C21   A    
C56   H61   S    
C49   C50   A    
C96   H73   S    
C89   H6    S    
C45   H44   S    
C93   H64   S    
C85   O8    A    
C96   H71   S    
C88   H32   S    
C5    C78   S    
C18   H20   S    
C33   S4    S    
C16   O12   A    
C17   H17   S    
C34   C76   S    
C87   O3    A    
C20   C31   S    
