data_mof_unit_29272.cif
_audit_creation_date              2012-12-10T21:37:22-0500
_audit_creation_method            fapswitch 2.2
_symmetry_space_group_name_H-M    P1
_symmetry_Int_Tables_number       1
_space_group_crystal_system       triclinic
_cell_length_a                    16.093483
_cell_length_b                    15.71566
_cell_length_c                    16.848327
_cell_angle_alpha                 90.219529
_cell_angle_beta                  87.761968
_cell_angle_gamma                 91.318315
_cell_volume                      4256.87807227

loop_
_atom_site_label
_atom_site_type_symbol
_atom_type_description
_atom_site_fract_x
_atom_site_fract_y
_atom_site_fract_z
_atom_type_partial_charge
C1    C     C_R   0.510881 0.503098 0.347155 0.950216
C2    C     C_R   0.428491 0.456756 0.865162 0.286979
C3    C     C_R   0.581443 0.566452 0.225824 0.319550
C4    C     C_R   0.424179 0.457033 0.782445 0.317468
C5    C     C_R   0.235901 0.535564 0.542948 -0.034550
C6    C     C_R   0.764554 0.466515 0.455876 -0.000794
C7    C     C_R   0.148937 0.533348 0.540357 -0.364138
C8    C     C_R   0.851447 0.468968 0.458962 -0.355737
C9    C     C_R   0.109362 0.484457 0.481664 0.255172
C10   C     C_R   0.890552 0.516397 0.518979 0.252614
C11   C     C_R   0.159425 0.439403 0.426170 0.384632
C12   C     C_R   0.488972 0.499988 0.652633 0.988797
C13   C     C_R   0.840114 0.560128 0.575221 0.385480
C14   C     C_R   0.247011 0.441573 0.433287 -0.153640
C15   C     C_R   0.752445 0.557391 0.567742 -0.163888
C16   C     C_R   0.500901 0.337813 0.499966 0.905122
C17   C     C_R   0.499112 0.662099 0.500240 0.872275
C18   C     C_3   0.544768 0.971182 0.438181 0.262406
C19   C     C_3   0.456153 0.028193 0.565523 0.266467
C20   C     C_3   0.467539 0.026773 0.434423 0.265389
C21   C     C_3   0.533390 0.972526 0.569219 0.261600
C22   C     C_1   0.503079 0.249062 0.500305 -0.166200
C23   C     C_R   0.445768 0.495183 0.219314 -0.389325
C24   C     C_1   0.497041 0.750685 0.501144 -0.188222
C25   C     C_3   0.580545 0.026214 0.505052 0.269404
C26   C     C_3   0.420397 0.973183 0.498616 0.265086
C27   C     C_3   0.503351 0.083057 0.501291 -0.159153
C28   C     C_3   0.497526 0.916467 0.502329 -0.152864
C29   C     C_1   0.504183 0.173859 0.500712 0.156141
C30   C     C_1   0.496300 0.825805 0.501941 0.146880
C31   C     C_R   0.515288 0.518689 0.262269 -0.269449
C32   C     C_R   0.482742 0.506219 0.737968 -0.253725
C33   C     C_3   0.402021 0.998175 0.317072 0.119952
C34   C     C_R   0.538987 0.560778 0.774993 -0.430428
C35   C     C_3   0.384770 0.035513 0.236393 -0.869148
C36   C     C_3   0.598964 0.999143 0.686981 0.128778
C37   C     C_3   0.616236 0.960233 0.767045 -0.891082
C38   C     C_3   0.160552 0.397892 0.293782 0.097098
C39   C     C_3   0.099951 0.371604 0.230638 -0.801393
C40   C     C_3   0.834509 0.607512 0.706662 0.102007
C41   C     C_3   0.892803 0.632776 0.772088 -0.808721
C42   C     C_3   0.622240 0.995164 0.321400 0.114412
C43   C     C_3   0.683684 0.953964 0.263037 -0.880328
C44   C     C_3   0.378801 0.002948 0.682139 0.115490
C45   C     C_R   0.440759 0.518664 0.140945 0.425644
C46   C     C_3   0.317740 0.043429 0.741336 -0.859360
C47   C     C_3   0.280371 0.003141 0.497172 0.117633
C48   C     C_3   0.196008 0.965873 0.476100 -0.852672
C49   C     C_3   0.720483 0.995843 0.506449 0.113937
C50   C     C_3   0.804854 0.032724 0.527968 -0.848929
C51   C     C_3   0.575235 0.705153 0.882042 0.119825
C52   C     C_3   0.634637 0.762897 0.926584 -0.815045
C53   C     C_3   0.317342 0.564574 0.099098 0.116293
C54   C     C_3   0.241976 0.540259 0.051506 -0.795998
C55   C     C_3   0.706535 0.563970 0.083647 0.185442
C56   C     C_R   0.538545 0.567016 0.857170 0.427603
C57   C     C_3   0.778642 0.607705 0.037841 -0.824779
C58   C     C_3   0.411085 0.324854 0.918588 0.169328
C59   C     C_3   0.354079 0.268943 0.971436 -0.808940
C60   C     C_3   0.633751 0.678977 0.294073 0.173108
C61   C     C_3   0.703250 0.708536 0.347014 -0.777844
C62   C     C_3   0.290577 0.434881 0.746697 0.152360
C63   C     C_3   0.234507 0.378589 0.697045 -0.790089
C64   C     C_R   0.509877 0.559737 0.102095 0.022944
C65   C     C_R   0.484505 0.512163 0.902469 0.051243
C66   C     C_R   0.580110 0.583445 0.144256 0.293070
H1    H     H_    0.286726 0.404894 0.393659 0.137569
H2    H     H_    0.445161 0.944431 0.307655 0.168424
H3    H     H_    0.443426 0.060834 0.207590 0.253783
H4    H     H_    0.357954 0.985417 0.197712 0.209316
H5    H     H_    0.339868 0.087886 0.243485 0.266151
H6    H     H_    0.555908 0.052812 0.697246 0.172364
H7    H     H_    0.658568 0.025007 0.660900 0.180344
H8    H     H_    0.660926 0.907765 0.759081 0.265530
H9    H     H_    0.643265 0.009478 0.806490 0.215613
H10   H     H_    0.557560 0.934565 0.795546 0.249384
H11   H     H_    0.214295 0.354734 0.288987 0.146396
H12   H     H_    0.712047 0.592802 0.607766 0.135976
H13   H     H_    0.182067 0.464671 0.281151 0.130354
H14   H     H_    0.045830 0.414267 0.232871 0.252475
H15   H     H_    0.131349 0.375961 0.170886 0.203413
H16   H     H_    0.077641 0.304975 0.240760 0.258351
H17   H     H_    0.807726 0.543050 0.721073 0.139785
H18   H     H_    0.784128 0.654744 0.706395 0.144858
H19   H     H_    0.919753 0.697463 0.760603 0.256036
H20   H     H_    0.857939 0.632972 0.830309 0.208443
H21   H     H_    0.943957 0.586709 0.774472 0.252009
H22   H     H_    0.655315 0.047709 0.352482 0.175239
H23   H     H_    0.584097 0.598354 0.739843 0.188338
H24   H     H_    0.572229 0.022856 0.286947 0.182283
H25   H     H_    0.651979 0.902334 0.229697 0.260809
H26   H     H_    0.709390 0.002262 0.220266 0.217865
H27   H     H_    0.735624 0.926701 0.295399 0.254300
H28   H     H_    0.428925 0.974657 0.716011 0.176945
H29   H     H_    0.345453 0.950876 0.650675 0.170610
H30   H     H_    0.265792 0.071502 0.709581 0.257160
H31   H     H_    0.291985 0.994490 0.783442 0.207480
H32   H     H_    0.349785 0.094277 0.775382 0.265268
H33   H     H_    0.297109 0.055177 0.454485 0.174808
H34   H     H_    0.393607 0.460205 0.247102 0.200001
H35   H     H_    0.274095 0.031069 0.557567 0.181395
H36   H     H_    0.176288 0.915239 0.519104 0.265015
H37   H     H_    0.149019 0.016568 0.478219 0.216220
H38   H     H_    0.199517 0.938278 0.415313 0.253508
H39   H     H_    0.726909 0.968233 0.445942 0.178056
H40   H     H_    0.703472 0.943592 0.548820 0.172647
H41   H     H_    0.801204 0.059985 0.588881 0.254213
H42   H     H_    0.851694 0.981884 0.525754 0.214235
H43   H     H_    0.824871 0.083541 0.485263 0.266032
H44   H     H_    0.510809 0.716526 0.905860 0.134417
H45   H     H_    0.734953 0.429575 0.410139 0.156442
H46   H     H_    0.580097 0.723294 0.818201 0.136590
H47   H     H_    0.617564 0.830355 0.918963 0.202268
H48   H     H_    0.631095 0.747385 0.990868 0.294739
H49   H     H_    0.699330 0.754693 0.902894 0.244724
H50   H     H_    0.348943 0.620872 0.070111 0.133145
H51   H     H_    0.295364 0.582011 0.160449 0.123681
H52   H     H_    0.208573 0.484548 0.079079 0.250063
H53   H     H_    0.199003 0.594488 0.050332 0.191820
H54   H     H_    0.261997 0.523888 0.989573 0.276150
H55   H     H_    0.679531 0.513929 0.044572 0.144057
H56   H     H_    0.265918 0.573813 0.587505 0.143575
H57   H     H_    0.731473 0.533440 0.137042 0.155250
H58   H     H_    0.806055 0.659269 0.074490 0.255192
H59   H     H_    0.827317 0.560774 0.022586 0.198355
H60   H     H_    0.756675 0.635169 0.982047 0.276000
H61   H     H_    0.472490 0.330933 0.946738 0.129835
H62   H     H_    0.419269 0.292881 0.859767 0.160401
H63   H     H_    0.292575 0.260526 0.944383 0.251993
H64   H     H_    0.381921 0.205533 0.978385 0.194410
H65   H     H_    0.345371 0.298843 0.030949 0.277532
H66   H     H_    0.573721 0.683280 0.329022 0.115701
H67   H     H_    0.887359 0.433799 0.414780 0.194512
H68   H     H_    0.632917 0.722697 0.242252 0.158185
H69   H     H_    0.763759 0.708402 0.313015 0.243667
H70   H     H_    0.691335 0.774100 0.368766 0.227690
H71   H     H_    0.706432 0.665482 0.398860 0.270041
H72   H     H_    0.291481 0.500346 0.721387 0.120129
H73   H     H_    0.263516 0.436718 0.808453 0.166573
H74   H     H_    0.229668 0.313554 0.722626 0.252993
H75   H     H_    0.171413 0.405669 0.696318 0.200126
H76   H     H_    0.260428 0.374609 0.635108 0.272968
H77   H     H_    0.113384 0.569879 0.583778 0.193138
H78   H     H_    0.342414 0.972594 0.343376 0.179818
N1    N     N_2   0.512032 0.571559 0.019498 -0.088487
N2    N     N_2   0.486682 0.506271 0.985467 -0.085225
N3    N     N_R   0.283080 0.489710 0.490280 -0.101408
N4    N     N_R   0.716920 0.510290 0.509720 -0.105403
N5    N     N_2   0.020540 0.479634 0.475094 -0.138321
N6    N     N_2   0.979376 0.521334 0.525761 -0.138002
O1    O     O_R   0.577460 0.503680 0.387340 -0.578233
O2    O     O_3   0.565355 0.935375 0.637511 -0.619559
O3    O     O_3   0.120144 0.389876 0.369543 -0.603580
O4    O     O_3   0.879499 0.608499 0.632830 -0.605914
O5    O     O_3   0.589466 0.932481 0.374477 -0.630239
O6    O     O_3   0.411379 0.066251 0.629545 -0.608543
O7    O     O_3   0.339226 0.937702 0.494838 -0.614721
O8    O     O_3   0.661801 0.061459 0.508889 -0.611799
O9    O     O_3   0.596843 0.619334 0.892698 -0.582207
O10   O     O_3   0.370676 0.494674 0.100733 -0.567141
O11   O     O_3   0.646739 0.624911 0.105799 -0.592797
O12   O     O_R   0.422540 0.496320 0.612660 -0.602926
O13   O     O_3   0.374788 0.405095 0.910567 -0.582651
O14   O     O_3   0.648244 0.594573 0.268875 -0.587291
O15   O     O_3   0.371043 0.400810 0.744941 -0.588994
O16   O     O_R   0.438150 0.497080 0.381100 -0.637010
O17   O     O_R   0.561850 0.502920 0.618900 -0.629727
O18   O     O_R   0.569640 0.380080 0.503110 -0.614910
O19   O     O_R   0.430360 0.619920 0.496890 -0.614031
O20   O     O_R   0.430330 0.373470 0.496870 -0.604535
O21   O     O_R   0.569670 0.626530 0.503130 -0.620153
O22   O     O_3   0.435418 0.062884 0.365711 -0.614587
Zn1   Zn    Zn3+2 0.593020 0.504410 0.504170 0.959070
Zn2   Zn    Zn3+2 0.406980 0.495590 0.495830 0.952734

loop_
_geom_bond_atom_site_label_1
_geom_bond_atom_site_label_2
_ccdc_geom_bond_type
C37   H8    S    
C55   H55   S    
C59   H64   S    
C34   C56   A    
C51   H46   S    
C47   H35   S    
C22   C29   T    
C54   H54   S    
C64   N1    S    
C27   C29   S    
C6    H45   S    
C40   H18   S    
C2    C65   A    
C60   H66   S    
C12   O17   A    
C7    H77   S    
N1    N2    D    
N3    Zn2   S    
C53   C54   S    
C58   H62   S    
C41   H20   S    
C45   O10   S    
C59   H65   S    
C33   H2    S    
C5    N3    A    
C36   C37   S    
C19   C21   S    
C56   O9    S    
C57   H59   S    
C38   C39   S    
C11   C14   A    
C17   O19   A    
C15   H12   S    
C38   H13   S    
C56   C65   A    
C48   H38   S    
C1    C31   S    
C47   H33   S    
C4    O15   S    
C26   O7    S    
C63   H74   S    
C21   O2    S    
C19   C26   S    
C64   C66   A    
C33   C35   S    
C35   H4    S    
O19   Zn2   S    
C62   H73   S    
C19   C27   S    
C53   H50   S    
O17   Zn1   S    
C23   H34   S    
C46   H32   S    
C35   H5    S    
C58   H61   S    
C54   H53   S    
C12   C32   S    
C50   H42   S    
C19   O6    S    
C40   H17   S    
C40   O4    S    
C18   C25   S    
C23   C45   A    
C58   O13   S    
C44   C46   S    
C33   H78   S    
O18   Zn1   S    
C41   H21   S    
C55   H57   S    
O16   Zn2   S    
C17   C24   S    
C51   C52   S    
C44   O6    S    
C18   C28   S    
C55   O11   S    
C57   H60   S    
C5    C7    A    
C36   O2    S    
C6    C8    A    
O20   Zn2   S    
C58   C59   S    
C52   H47   S    
C48   H37   S    
C5    H56   S    
C50   H43   S    
C43   H25   S    
C66   O11   S    
C60   C61   S    
C42   H24   S    
C23   C31   A    
C60   O14   S    
C2    C4    A    
C62   C63   S    
C6    N4    A    
C47   C48   S    
C13   C15   A    
C14   H1    S    
C9    N5    S    
C63   H75   S    
C62   H72   S    
C3    C31   A    
C9    C11   A    
C39   H15   S    
C4    C32   A    
C3    O14   S    
C40   C41   S    
C20   O22   S    
C37   H10   S    
C51   H44   S    
C55   C57   S    
C50   H41   S    
C49   O8    S    
C3    C66   A    
C42   H22   S    
C42   C43   S    
C60   H68   S    
C61   H69   S    
C47   O7    S    
C52   H49   S    
C21   C28   S    
C7    C9    A    
C21   C25   S    
C59   H63   S    
C53   O10   S    
C16   C22   S    
C8    H67   S    
C46   H31   S    
C43   H26   S    
C39   H16   S    
C10   C13   A    
C2    O13   S    
C49   H39   S    
O1    Zn1   S    
C17   O21   A    
C49   H40   S    
O12   Zn2   S    
C20   C27   S    
C52   H48   S    
O21   Zn1   S    
C41   H19   S    
C45   C64   A    
C26   C28   S    
N4    Zn1   S    
C48   H36   S    
C39   H14   S    
C38   H11   S    
C54   H52   S    
C42   O5    S    
C34   H23   S    
C28   C30   S    
C44   H29   S    
N5    N6    D    
C10   N6    S    
C57   H58   S    
C61   H71   S    
C15   N4    A    
C20   C26   S    
C1    O16   A    
C16   O18   A    
C53   H51   S    
C14   N3    A    
C51   O9    S    
C43   H27   S    
C63   H76   S    
C1    O1    A    
C18   C20   S    
C37   H9    S    
C24   C30   T    
C13   O4    S    
C44   H28   S    
C36   H7    S    
C11   O3    S    
C12   O12   A    
C16   O20   A    
C62   O15   S    
C46   H30   S    
C35   H3    S    
C8    C10   A    
C49   C50   S    
C25   O8    S    
C38   O3    S    
C65   N2    S    
C33   O22   S    
C18   O5    S    
C36   H6    S    
C61   H70   S    
C32   C34   A    
C25   C27   S    
