data_mof_unit_33618.cif
_audit_creation_date              2012-10-26T21:19:40-0400
_audit_creation_method            fapswitch 2.2
_symmetry_space_group_name_H-M    P1
_symmetry_Int_Tables_number       1
_space_group_crystal_system       triclinic
_cell_length_a                    10.806126
_cell_length_b                    15.148173
_cell_length_c                    13.849383
_cell_angle_alpha                 89.665953
_cell_angle_beta                  90.311865
_cell_angle_gamma                 89.833433
_cell_volume                      2266.96606411

loop_
_atom_site_label
_atom_site_type_symbol
_atom_type_description
_atom_site_fract_x
_atom_site_fract_y
_atom_site_fract_z
_atom_type_partial_charge
Br1   Br    Br    0.289834 0.243109 0.635249 -0.560968
Br2   Br    Br    0.579342 0.766639 0.291562 -0.577043
C1    C     C_R   0.497964 0.330255 0.500385 0.571908
C2    C     C_R   0.536745 0.816848 0.414301 0.141774
C3    C     C_R   0.498688 0.234453 0.501761 0.024995
C4    C     C_R   0.508889 0.767493 0.498713 0.017602
C5    C     C_R   0.586239 0.190070 0.445988 -0.171226
C6    C     C_R   0.485831 0.812531 0.585240 -0.162070
C7    C     C_R   0.592794 0.098570 0.448751 -0.131593
C8    C     C_R   0.488053 0.904164 0.588009 -0.131356
C9    C     C_R   0.509297 0.050079 0.505282 -0.000686
C10   C     C_R   0.511637 0.952946 0.503930 0.002299
C11   C     C_R   0.591935 0.541763 0.107215 -0.151581
C12   C     C_R   0.503415 0.670419 0.499470 0.558417
C13   C     C_R   0.524348 0.423802 0.893841 -0.159259
C14   C     C_R   0.590935 0.541979 0.208636 0.071154
C15   C     C_R   0.523699 0.424403 0.792338 0.058947
C16   C     C_R   0.262218 0.502184 0.499785 0.556598
C17   C     C_R   0.737710 0.497288 0.500275 0.542954
C18   C     C_R   0.409571 0.455531 0.210262 0.059752
C19   C     C_R   0.477734 0.576606 0.789903 0.049733
C20   C     C_R   0.405924 0.452972 0.108019 -0.008873
C21   C     C_R   0.479194 0.580214 0.892008 -0.010892
C22   C     C_R   0.498462 0.498522 0.054772 0.029411
C23   C     C_R   0.871533 0.495332 0.500394 -0.000887
C24   C     C_R   0.500189 0.501348 0.945793 0.030960
C25   C     C_R   0.235848 0.747061 0.329286 -0.068714
C26   C     C_R   0.755305 0.259647 0.679438 -0.101191
C27   C     C_R   0.189785 0.684447 0.394178 -0.059450
C28   C     C_R   0.807636 0.317128 0.611768 -0.052137
C29   C     C_R   0.118197 0.613572 0.360527 0.050481
C30   C     C_R   0.880458 0.388471 0.642498 0.058690
C31   C     C_R   0.093519 0.606440 0.261162 -0.093320
C32   C     C_R   0.900697 0.401060 0.741773 -0.076351
C33   C     C_R   0.139968 0.669178 0.196602 -0.118943
C34   C     C_R   0.128316 0.503649 0.499851 -0.002238
C35   C     C_R   0.847733 0.343659 0.809213 -0.108666
C36   C     C_R   0.211427 0.739286 0.230578 -0.075612
C37   C     C_R   0.775351 0.272899 0.778066 -0.114419
C38   C     C_R   0.932002 0.545747 0.430345 -0.145069
C39   C     C_R   0.067791 0.453329 0.570133 -0.133711
C40   C     C_3   0.304293 0.400109 0.059586 -0.281573
C41   C     C_3   0.206737 0.458961 0.011613 -0.434208
C42   C     C_3   0.459966 0.669063 0.939610 -0.280791
C43   C     C_3   0.333383 0.676476 0.986781 -0.432518
C44   C     C_R   0.939450 0.447838 0.570876 -0.033255
C45   C     C_R   0.060256 0.551521 0.429815 -0.034155
C46   C     C_R   0.420868 0.094841 0.560623 -0.085911
C47   C     C_R   0.535698 0.908586 0.417603 -0.087584
C48   C     C_R   0.415845 0.186678 0.559962 0.143698
Cu1   Cu    Cu3+1 0.500000 0.499990 0.596430 0.966156
Cu2   Cu    Cu3+1 0.500000 0.500010 0.403570 0.975670
H1    H     H_    0.246634 0.788204 0.180644 0.122271
H2    H     H_    0.458105 0.636180 0.749664 0.121340
H3    H     H_    0.288749 0.802453 0.355661 0.130496
H4    H     H_    0.699306 0.204774 0.655469 0.123092
H5    H     H_    0.207519 0.692291 0.470700 0.091758
H6    H     H_    0.792381 0.305715 0.535527 0.092639
H7    H     H_    0.037246 0.552909 0.233943 0.098593
H8    H     H_    0.957030 0.455434 0.766827 0.102893
H9    H     H_    0.119097 0.664049 0.120364 0.097635
H10   H     H_    0.862976 0.353951 0.885625 0.105080
H11   H     H_    0.878578 0.584033 0.378291 0.137317
H12   H     H_    0.734400 0.228547 0.830360 0.111140
H13   H     H_    0.121032 0.415726 0.622813 0.175657
H14   H     H_    0.353776 0.058591 0.602847 0.140693
H15   H     H_    0.552520 0.945301 0.351675 0.142688
H16   H     H_    0.651413 0.226441 0.401952 0.119326
H17   H     H_    0.465345 0.777029 0.651287 0.119591
H18   H     H_    0.129517 0.417523 0.984557 0.140833
H19   H     H_    0.169017 0.506630 0.064490 0.140895
H20   H     H_    0.246122 0.495088 0.949224 0.169589
H21   H     H_    0.343913 0.354303 0.005757 0.156869
H22   H     H_    0.256472 0.357851 0.113575 0.130771
H23   H     H_    0.663638 0.065878 0.406972 0.124553
H24   H     H_    0.319283 0.745011 0.012513 0.144278
H25   H     H_    0.327334 0.631417 0.049815 0.177808
H26   H     H_    0.259003 0.660777 0.934001 0.139960
H27   H     H_    0.533682 0.681638 0.993705 0.167931
H28   H     H_    0.467288 0.723164 0.885335 0.125738
H29   H     H_    0.471520 0.936766 0.656123 0.116160
H30   H     H_    0.666165 0.575127 0.069697 0.099916
H31   H     H_    0.544406 0.362661 0.931782 0.095405
H32   H     H_    0.663712 0.575791 0.247316 0.158512
H33   H     H_    0.542284 0.363586 0.754939 0.158555
H34   H     H_    0.339668 0.421303 0.251579 0.129155
N1    N     N_R   0.500000 0.500020 0.258690 -0.228754
N2    N     N_R   0.500000 0.499980 0.741310 -0.229646
O1    O     O_R   0.500010 0.371450 0.581430 -0.481682
O2    O     O_R   0.499990 0.628550 0.418570 -0.444361
O3    O     O_R   0.500010 0.371460 0.418560 -0.511758
O4    O     O_R   0.499990 0.628540 0.581440 -0.535148
O5    O     O_R   0.319640 0.500000 0.581430 -0.491779
O6    O     O_R   0.680360 0.500000 0.418570 -0.520362
O7    O     O_R   0.319640 0.500010 0.418560 -0.500406
O8    O     O_R   0.680360 0.499990 0.581440 -0.490188

loop_
_geom_bond_atom_site_label_1
_geom_bond_atom_site_label_2
_ccdc_geom_bond_type
C38   C45   A    
C41   H20   S    
C25   C27   A    
C32   C35   A    
Cu2   O2    S    
C10   C47   A    
C9    C46   A    
C37   H12   S    
C6    H17   S    
C38   H11   S    
C34   C45   A    
C43   H24   S    
C15   H33   S    
C22   C24   S    
C23   C38   A    
C19   H2    S    
C25   H3    S    
C25   C36   A    
C15   N2    A    
C18   N1    A    
C14   H32   S    
Cu2   O7    S    
C1    O3    A    
C21   C24   A    
C12   O2    A    
C5    H16   S    
C18   H34   S    
C14   N1    A    
C39   C44   A    
C29   C31   A    
Cu2   O6    S    
C43   H26   S    
Br1   C48   S    
Cu1   O8    S    
C46   C48   A    
C19   N2    A    
C31   H7    S    
C29   C45   S    
C32   H8    S    
C16   O7    A    
C34   C39   A    
C35   H10   S    
Cu2   N1    S    
C26   H4    S    
C35   C37   A    
C40   H22   S    
Cu1   Cu2   S    
C42   H28   S    
C33   C36   A    
C2    C4    A    
C3    C5    A    
C13   C24   A    
C4    C6    A    
C26   C37   A    
C11   H30   S    
C21   C42   S    
C11   C22   A    
C30   C32   A    
Br2   C2    S    
Cu1   O4    S    
C4    C12   S    
C33   H9    S    
C7    C9    A    
C12   O4    A    
C17   O6    A    
C8    C10   A    
Cu1   O5    S    
C18   C20   A    
C41   H18   S    
C19   C21   A    
C20   C22   A    
C3    C48   A    
C40   C41   S    
C42   C43   S    
C5    C7    A    
C40   H21   S    
C41   H19   S    
C47   H15   S    
C30   C44   S    
C42   H27   S    
C27   H5    S    
C1    C3    S    
Cu1   N2    S    
C13   H31   S    
C9    C10   S    
C13   C15   A    
C8    H29   S    
C2    C47   A    
C1    O1    A    
C26   C28   A    
C27   C29   A    
Cu1   O1    S    
C28   C30   A    
C20   C40   S    
C36   H1    S    
C28   H6    S    
C31   C33   A    
C39   H13   S    
C17   C23   S    
C6    C8    A    
C11   C14   A    
C16   O5    A    
Cu2   O3    S    
C43   H25   S    
C7    H23   S    
C46   H14   S    
C16   C34   S    
C23   C44   A    
C17   O8    A    
