data_mof_unit_39604.cif
_audit_creation_date              2012-12-10T18:53:02-0500
_audit_creation_method            fapswitch 2.2
_symmetry_space_group_name_H-M    P1
_symmetry_Int_Tables_number       1
_space_group_crystal_system       triclinic
_cell_length_a                    9.919328
_cell_length_b                    10.696754
_cell_length_c                    16.753236
_cell_angle_alpha                 91.291869
_cell_angle_beta                  82.664083
_cell_angle_gamma                 88.250828
_cell_volume                      1761.59672646

loop_
_atom_site_label
_atom_site_type_symbol
_atom_type_description
_atom_site_fract_x
_atom_site_fract_y
_atom_site_fract_z
_atom_type_partial_charge
C1    C     C_R   0.498057 0.739951 0.498630 0.915613
C2    C     C_R   0.054102 0.552319 0.563431 0.004486
C3    C     C_R   0.088239 0.446526 0.437738 -0.064986
C4    C     C_R   0.911527 0.552339 0.562559 -0.147949
C5    C     C_R   0.477997 0.507119 0.652877 0.859767
C6    C     C_R   0.521785 0.496551 0.346875 0.906061
C7    C     C_R   0.455670 0.539602 0.738156 -0.141129
C8    C     C_R   0.540336 0.502313 0.259908 -0.101489
C9    C     C_R   0.518352 0.643344 0.769734 -0.022426
C10   C     C_R   0.457252 0.435868 0.212621 -0.017947
C11   C     C_R   0.493283 0.669297 0.852177 -0.103688
C12   C     C_R   0.501967 0.260342 0.499011 0.958032
C13   C     C_R   0.459170 0.466959 0.132524 -0.227338
C14   C     C_R   0.407528 0.594992 0.902573 0.044534
C15   C     C_R   0.543000 0.560595 0.098908 0.097707
C16   C     C_R   0.335919 0.498022 0.870181 0.021594
C17   C     C_R   0.635312 0.618517 0.143954 0.023401
C18   C     C_R   0.361088 0.471875 0.787430 -0.163276
C19   C     C_R   0.632525 0.588338 0.224804 -0.197880
C20   C     C_2   0.413520 0.605913 0.988901 -0.230238
C21   C     C_2   0.534619 0.591764 0.015403 -0.237494
C22   C     C_2   0.606077 0.727824 0.718104 0.395556
C23   C     C_R   0.606913 0.929462 0.454045 -0.343139
C24   C     C_2   0.368182 0.333371 0.243016 0.369019
C25   C     C_2   0.241373 0.419046 0.921797 0.402437
C26   C     C_2   0.728816 0.714895 0.109122 0.376155
C27   C     C_3   0.672447 0.116999 0.322190 0.054935
C28   C     C_3   0.793024 0.067835 0.262705 -0.349385
C29   C     C_3   0.762691 0.077256 0.175959 -0.819029
C30   C     C_3   0.176423 0.885891 0.494772 0.177275
C31   C     C_3   0.101986 0.011125 0.483987 -0.442931
C32   C     C_3   0.004079 0.998837 0.421556 -0.865141
C33   C     C_2   0.892647 0.376258 0.371577 0.392189
C34   C     C_R   0.392433 0.071170 0.539039 -0.344429
C35   C     C_2   0.100236 0.608219 0.635907 0.449310
C36   C     C_R   0.608387 0.058181 0.451557 0.510112
C37   C     C_R   0.380337 0.944361 0.530533 0.517138
C38   C     C_R   0.504290 0.127996 0.498331 -0.180544
C39   C     C_R   0.494168 0.872693 0.494638 -0.230511
C40   C     C_R   0.945008 0.444454 0.437723 0.040372
H1    H     H_    0.696590 0.637555 0.262012 0.193492
H2    H     H_    0.843955 0.594869 0.612254 0.148116
H3    H     H_    0.608854 0.724379 0.653422 0.095226
H4    H     H_    0.288002 0.303677 0.209106 0.102604
H5    H     H_    0.222170 0.435327 0.986325 0.058395
H6    H     H_    0.724135 0.747362 0.048676 0.077068
H7    H     H_    0.648228 0.215531 0.308244 0.186951
H8    H     H_    0.581768 0.061363 0.312761 0.156769
H9    H     H_    0.884000 0.122758 0.270226 0.259528
H10   H     H_    0.816076 0.968416 0.275335 0.245399
H11   H     H_    0.741146 0.176309 0.161828 0.260038
H12   H     H_    0.310083 0.395900 0.761140 0.184078
H13   H     H_    0.673724 0.020701 0.166451 0.260975
H14   H     H_    0.852124 0.041168 0.134256 0.284136
H15   H     H_    0.098963 0.814667 0.510401 0.182314
H16   H     H_    0.235806 0.853165 0.436539 0.117093
H17   H     H_    0.044750 0.044110 0.542416 0.253725
H18   H     H_    0.176035 0.082637 0.462798 0.236975
H19   H     H_    0.058521 0.962100 0.363288 0.256453
H20   H     H_    0.959500 0.092706 0.411862 0.303261
H21   H     H_    0.921497 0.935240 0.442870 0.272322
H22   H     H_    0.793607 0.337178 0.380872 0.160566
H23   H     H_    0.628291 0.590213 0.973820 0.164236
H24   H     H_    0.043506 0.593017 0.694506 0.048251
H25   H     H_    0.320224 0.605711 0.030609 0.165173
H26   H     H_    0.394956 0.417343 0.095583 0.134742
H27   H     H_    0.543980 0.745595 0.878356 0.185992
H28   H     H_    0.690126 0.874249 0.421020 0.183925
H29   H     H_    0.309692 0.126003 0.572951 0.191831
H30   H     H_    0.155893 0.402084 0.388881 0.203964
N1    N     N_R   0.142790 0.500030 0.500020 -0.116216
N2    N     N_R   0.857210 0.499970 0.499980 -0.123778
O1    O     O_R   0.385380 0.683250 0.500010 -0.562319
O2    O     O_2   0.385730 0.277732 0.303848 -0.617271
O3    O     O_2   0.182716 0.333943 0.892574 -0.555333
O4    O     O_2   0.812915 0.759588 0.147758 -0.579747
O5    O     O_3   0.708447 0.114765 0.401427 -0.674135
O6    O     O_3   0.257830 0.892783 0.558501 -0.577349
O7    O     O_2   0.961486 0.360346 0.306104 -0.611842
O8    O     O_2   0.194326 0.679000 0.631351 -0.490986
O9    O     O_R   0.614620 0.316750 0.499990 -0.608475
O10   O     O_R   0.614710 0.683220 0.500000 -0.636616
O11   O     O_R   0.385290 0.316780 0.500000 -0.615262
O12   O     O_R   0.371780 0.500040 0.615800 -0.577369
O13   O     O_R   0.628220 0.499960 0.384200 -0.662679
O14   O     O_R   0.601110 0.500010 0.615800 -0.636389
O15   O     O_R   0.398890 0.499990 0.384200 -0.592979
O16   O     O_2   0.675660 0.804248 0.747583 -0.567539
Zn1   Zn    Zn3+2 0.346870 0.500020 0.500000 1.002624
Zn2   Zn    Zn3+2 0.653130 0.499980 0.500000 0.945320

loop_
_geom_bond_atom_site_label_1
_geom_bond_atom_site_label_2
_ccdc_geom_bond_type
C27   H8    S    
C2    C35   S    
C34   C37   A    
C2    C4    A    
C18   H12   S    
C6    O13   A    
C4    H2    S    
C17   C26   S    
C31   H18   S    
C28   C29   S    
C32   H21   S    
C36   O5    S    
C30   C31   S    
C11   C14   A    
C9    C22   S    
C29   H14   S    
C35   O8    D    
C15   C17   A    
C28   H10   S    
C22   H3    S    
C33   H22   S    
C26   O4    D    
C35   H24   S    
C22   O16   D    
C11   H27   S    
C13   H26   S    
O11   Zn1   S    
C33   C40   S    
C8    C19   A    
C14   C20   S    
C20   H25   S    
C3    H30   S    
O14   Zn2   S    
C5    C7    S    
C5    O12   A    
C1    C39   S    
C33   O7    D    
C6    C8    S    
C10   C24   S    
C1    O10   A    
C30   H16   S    
C6    O15   A    
C12   O11   A    
C25   O3    D    
C23   H28   S    
C3    N1    A    
N2    Zn2   S    
C28   H9    S    
C31   C32   S    
N1    Zn1   S    
C7    C18   A    
C9    C11   A    
C34   H29   S    
O9    Zn2   S    
C16   C18   A    
C3    C40   A    
C13   C15   A    
C24   H4    S    
C14   C16   A    
O12   Zn1   S    
C5    O14   A    
C2    N1    A    
C25   H5    S    
C4    N2    A    
C29   H11   S    
C27   H7    S    
C16   C25   S    
C7    C9    A    
C40   N2    A    
C34   C38   A    
C27   O5    S    
C10   C13   A    
O13   Zn2   S    
C30   H15   S    
O10   Zn2   S    
C1    O1    A    
C31   H17   S    
C36   C38   A    
O1    Zn1   S    
C37   C39   A    
C24   O2    D    
C29   H13   S    
C23   C39   A    
C17   C19   A    
C12   O9    A    
C12   C38   S    
C21   H23   S    
C26   H6    S    
C30   O6    S    
C15   C21   S    
C20   C21   D    
C8    C10   A    
C23   C36   A    
C27   C28   S    
O15   Zn1   S    
C32   H20   S    
C32   H19   S    
C37   O6    S    
C19   H1    S    
