data_mof_unit_48806.cif
_audit_creation_date              2012-12-11T14:46:25-0500
_audit_creation_method            fapswitch 2.2
_symmetry_space_group_name_H-M    P1
_symmetry_Int_Tables_number       1
_space_group_crystal_system       triclinic
_cell_length_a                    17.448205
_cell_length_b                    17.513799
_cell_length_c                    6.945239
_cell_angle_alpha                 90.002416
_cell_angle_beta                  89.67734
_cell_angle_gamma                 90.022867
_cell_volume                      2122.32255772

loop_
_atom_site_label
_atom_site_type_symbol
_atom_type_description
_atom_site_fract_x
_atom_site_fract_y
_atom_site_fract_z
_atom_type_partial_charge
O1    O     O_R   0.796490 0.328940 0.373020 -0.536879
O2    O     O_R   0.203510 0.671060 0.626980 -0.537027
O3    O     O_R   0.203510 0.828940 0.626980 -0.537982
O4    O     O_R   0.796490 0.171060 0.373020 -0.537652
O5    O     O_R   0.805560 0.173330 0.702970 -0.543077
O6    O     O_R   0.194440 0.826670 0.297030 -0.537685
O7    O     O_R   0.194440 0.673330 0.297030 -0.539305
O8    O     O_R   0.805560 0.326670 0.702970 -0.537396
O9    O     O_R   0.658440 0.172360 0.870170 -0.531996
O10   O     O_R   0.341560 0.827640 0.129830 -0.531341
O11   O     O_R   0.341560 0.672360 0.129830 -0.531972
O12   O     O_R   0.658440 0.327640 0.870170 -0.530787
C1    C     C_R   0.824001 0.146187 0.533142 0.715923
C2    C     C_R   0.176284 0.854117 0.466460 0.722433
C3    C     C_R   0.176154 0.646036 0.466578 0.720784
C4    C     C_R   0.824075 0.353728 0.533624 0.723828
O13   O     O_3   0.679200 0.250000 0.537050 -0.364453
O14   O     O_3   0.320800 0.750000 0.462950 -0.365944
V1    V     V_3+5 0.736420 0.250000 0.813120 1.411134
V2    V     V_3+5 0.263580 0.750000 0.186880 1.420427
O15   O     O_R   0.649370 0.327980 0.199650 -0.536847
O16   O     O_R   0.350630 0.672020 0.800350 -0.537285
O17   O     O_R   0.350630 0.827980 0.800350 -0.537597
O18   O     O_R   0.649370 0.172020 0.199650 -0.536800
C5    C     C_R   0.630508 0.354369 0.030620 0.722981
C6    C     C_R   0.369474 0.645615 0.969378 0.717846
C7    C     C_R   0.369487 0.854369 0.969378 0.719897
C8    C     C_R   0.630573 0.145582 0.030625 0.715223
V3    V     V_3+5 0.718510 0.250000 0.312740 1.423889
V4    V     V_3+5 0.281490 0.750000 0.687260 1.425724
O19   O     O_3   0.775740 0.250000 0.038930 -0.367714
O20   O     O_3   0.224260 0.750000 0.961070 -0.366676
C9    C     C_1   0.574146 0.083157 0.019359 -0.200053
C10   C     C_1   0.425973 0.916747 0.980623 -0.199152
C11   C     C_1   0.425921 0.583202 0.980632 -0.198209
C12   C     C_1   0.574037 0.416761 0.019365 -0.198875
C13   C     C_1   0.527508 0.030836 0.007467 0.005280
C14   C     C_1   0.472642 0.969045 0.992491 0.005211
C15   C     C_1   0.472550 0.530882 0.992511 0.005947
C16   C     C_1   0.527394 0.469070 0.007487 0.005699
H1    H     H_    0.815111 0.027657 0.290615 0.123214
H2    H     H_    0.186645 0.974973 0.704074 0.131561
H3    H     H_    0.192453 0.517321 0.673849 0.127047
H4    H     H_    0.809767 0.479294 0.315617 0.128035
C17   C     C_R   0.880819 0.083809 0.511522 -0.134902
C18   C     C_R   0.120515 0.917640 0.485100 -0.140331
C19   C     C_R   0.119842 0.583069 0.485668 -0.131323
C20   C     C_R   0.879971 0.417064 0.516355 -0.125921
C21   C     C_R   0.079233 0.031569 0.660762 0.410960
C22   C     C_R   0.925526 0.974877 0.319915 0.418693
C23   C     C_R   0.918003 0.535518 0.355534 0.411309
C24   C     C_R   0.081140 0.465717 0.651286 0.406105
C25   C     C_R   0.133524 0.974482 0.623958 -0.221535
C26   C     C_R   0.868609 0.028256 0.369062 -0.235155
C27   C     C_R   0.864256 0.477361 0.389623 -0.244329
C28   C     C_R   0.136108 0.521992 0.610036 -0.240204
C29   C     C_R   0.051953 0.918846 0.380822 -0.210808
C30   C     C_R   0.950559 0.084308 0.610210 -0.249440
C31   C     C_R   0.951405 0.414320 0.607377 -0.229316
C32   C     C_R   0.047621 0.586936 0.399067 -0.223603
C33   C     C_R   0.995014 0.974060 0.421755 0.017511
C34   C     C_R   0.008073 0.030092 0.565977 -0.009957
C35   C     C_R   0.007709 0.470463 0.568487 0.016619
C36   C     C_R   0.991055 0.531383 0.440264 0.014367
O21   O     O_3   0.096362 0.088384 0.791857 -0.579790
C37   C     C_3   0.128509 0.151879 0.693530 0.063654
H5    H     H_    0.091387 0.202294 0.720823 0.138933
H6    H     H_    0.132504 0.145210 0.533434 0.113190
C38   C     C_3   0.208471 0.168040 0.772535 -0.298573
H7    H     H_    0.204097 0.181972 0.928352 0.196559
H8    H     H_    0.244704 0.116235 0.756170 0.194615
C39   C     C_3   0.246733 0.234304 0.666287 -0.842186
H9    H     H_    0.255571 0.219511 0.512216 0.231997
H10   H     H_    0.303356 0.246433 0.731726 0.232991
H11   H     H_    0.210838 0.286481 0.676075 0.264103
O22   O     O_3   0.913094 0.923118 0.172373 -0.575890
C40   C     C_3   0.909330 0.961799 0.993052 0.111911
H12   H     H_    0.957757 0.941972 0.901321 0.150275
H13   H     H_    0.915835 0.025200 0.002552 0.084681
C41   C     C_3   0.832892 0.944388 0.894755 -0.303109
H14   H     H_    0.786096 0.942311 0.003785 0.187572
H15   H     H_    0.818833 0.990901 0.792499 0.162896
C42   C     C_3   0.835646 0.869317 0.783741 -0.756951
H16   H     H_    0.877002 0.873777 0.662100 0.222511
H17   H     H_    0.777951 0.856413 0.725545 0.212706
H18   H     H_    0.853467 0.821889 0.878962 0.244045
O23   O     O_3   0.900754 0.593709 0.228468 -0.576680
C43   C     C_3   0.852261 0.646436 0.322964 0.051899
H19   H     H_    0.879868 0.668712 0.456232 0.121380
H20   H     H_    0.796424 0.619304 0.361145 0.121133
C44   C     C_3   0.836933 0.713480 0.188248 -0.280613
H21   H     H_    0.892137 0.741877 0.151794 0.210469
H22   H     H_    0.810678 0.692077 0.053106 0.194174
C45   C     C_3   0.783153 0.771561 0.281370 -0.804014
H23   H     H_    0.728047 0.744128 0.322575 0.219570
H24   H     H_    0.770986 0.818358 0.178496 0.248876
H25   H     H_    0.810250 0.796362 0.411057 0.239401
O24   O     O_3   0.103174 0.400512 0.748286 -0.585171
C46   C     C_3   0.098421 0.413302 0.948344 0.058131
H26   H     H_    0.038521 0.427855 0.991507 0.135214
H27   H     H_    0.137656 0.460305 0.992583 0.125155
C47   C     C_3   0.122388 0.339865 0.050711 -0.322567
H28   H     H_    0.086233 0.291749 0.999816 0.202352
H29   H     H_    0.183176 0.326990 0.015043 0.204052
C48   C     C_3   0.114013 0.346390 0.268249 -0.786547
H30   H     H_    0.149889 0.393979 0.322748 0.243715
H31   H     H_    0.133068 0.292462 0.336996 0.228563
H32   H     H_    0.053064 0.356194 0.307082 0.239473
H33   H     H_    0.960432 0.128085 0.717445 0.153335
H34   H     H_    0.041904 0.874876 0.274105 0.161382
H35   H     H_    0.035002 0.634573 0.304856 0.159245
H36   H     H_    0.963918 0.366735 0.701816 0.153813

loop_
_geom_bond_atom_site_label_1
_geom_bond_atom_site_label_2
_ccdc_geom_bond_type
O10   C7    A    
C30   C34   A    
C20   C27   A    
C37   H6    S    
O23   C43   S    
C38   C39   S    
C30   H33   S    
O13   V3    S    
C3    C19   S    
V1    O19   S    
C4    C20   S    
C2    C18   S    
C23   C27   A    
C40   H12   S    
C48   H31   S    
C22   C26   A    
C21   O21   S    
C41   C42   S    
H2    C25   S    
C47   H29   S    
C37   C38   S    
C44   H22   S    
C18   C25   A    
C47   C48   S    
O4    C1    A    
C38   H8    S    
O18   V3    S    
C19   C32   A    
O9    V1    S    
C46   H26   S    
O10   V2    S    
O14   V4    S    
O17   C7    A    
V4    O20   S    
O5    C1    A    
C33   C34   A    
O7    C3    A    
C37   H5    S    
O8    C4    A    
C38   H7    S    
C39   H11   S    
C40   H13   S    
C7    C10   S    
O11   V2    S    
C48   H32   S    
C17   C30   A    
O8    V1    S    
C47   H28   S    
O17   V4    S    
O18   C8    A    
C12   C16   T    
O22   C40   S    
C39   H10   S    
C23   O23   S    
C44   H21   S    
C41   H14   S    
O11   C6    A    
O15   V3    S    
O7    V2    S    
C9    C13   T    
O3    V4    S    
C11   C15   T    
C13   C14   S    
C22   O22   S    
O6    C2    A    
C6    C11   S    
C42   H16   S    
C43   C44   S    
C42   H18   S    
O1    V3    S    
C31   H36   S    
O1    C4    A    
C45   H24   S    
O2    C3    A    
O3    C2    A    
C41   H15   S    
C46   H27   S    
C43   H20   S    
C17   C26   A    
O24   C46   S    
C18   C29   A    
C15   C16   S    
C20   C31   A    
V2    O20   S    
C40   C41   S    
O15   C5    A    
C21   C34   A    
O16   V4    S    
C42   H17   S    
C10   C14   T    
C23   C36   A    
O4    V3    S    
C39   H9    S    
C24   C35   A    
C8    C9    S    
C29   H34   S    
C29   C33   A    
O5    V1    S    
O6    V2    S    
C48   H30   S    
C31   C35   A    
C45   H25   S    
O2    V4    S    
O12   C5    A    
C32   C36   A    
V3    O19   S    
C32   H35   S    
C44   C45   S    
C1    C17   S    
H4    C27   S    
C21   C25   A    
O12   V1    S    
C24   O24   S    
O13   V1    S    
O14   V2    S    
C45   H23   S    
H1    C26   S    
C5    C12   S    
C35   C36   A    
H3    C28   S    
C46   C47   S    
C43   H19   S    
O21   C37   S    
O16   C6    A    
C22   C33   A    
C24   C28   A    
O9    C8    A    
C19   C28   A    
