data_mof_unit_34058.cif
_audit_creation_date              2013-03-05T15:51:27-0500
_audit_creation_method            fapswitch 2.2
_symmetry_space_group_name_H-M    P1
_symmetry_Int_Tables_number       1
_space_group_crystal_system       triclinic
_cell_length_a                    19.353834
_cell_length_b                    11.457865
_cell_length_c                    18.753578
_cell_angle_alpha                 89.476327
_cell_angle_beta                  92.280941
_cell_angle_gamma                 90.401046
_cell_volume                      4155.11359679

loop_
_atom_site_label
_atom_site_type_symbol
_atom_site_description
_atom_site_fract_x
_atom_site_fract_y
_atom_site_fract_z
_atom_type_partial_charge
O1    O     O_R   0.957020 0.451640 0.669920 -0.548486
O2    O     O_R   0.042980 0.451640 0.330080 -0.538236
O3    O     O_R   0.457020 0.951640 0.669920 -0.547111
O4    O     O_R   0.542980 0.951640 0.330080 -0.541662
O5    O     O_R   0.821450 0.543440 0.674610 -0.436503
O6    O     O_R   0.178550 0.543440 0.325390 -0.420234
O7    O     O_R   0.321450 0.043440 0.674610 -0.437229
O8    O     O_R   0.678550 0.043440 0.325390 -0.424267
C1    C     C_R   0.774820 0.477050 0.639122 0.589983
C2    C     C_R   0.225374 0.478056 0.361418 0.591840
C3    C     C_R   0.274821 0.977049 0.639123 0.590005
C4    C     C_R   0.725375 0.978060 0.361418 0.588836
O9    O     O_R   0.715320 0.458650 0.668100 -0.506875
O10   O     O_R   0.284680 0.458650 0.331900 -0.489133
O11   O     O_R   0.215320 0.958650 0.668100 -0.507793
O12   O     O_R   0.784680 0.958650 0.331900 -0.498734
O13   O     O_R   0.737170 0.209590 0.674530 -0.553408
O14   O     O_R   0.262830 0.209590 0.325470 -0.549104
O15   O     O_R   0.237170 0.709590 0.674530 -0.554769
O16   O     O_R   0.762830 0.709590 0.325470 -0.551122
C5    C     C_R   0.769937 0.116676 0.650700 0.546439
C6    C     C_R   0.229846 0.116561 0.349318 0.562510
C7    C     C_R   0.269936 0.616673 0.650701 0.543776
C8    C     C_R   0.729847 0.616560 0.349318 0.560203
O17   O     O_R   0.832710 0.092740 0.669580 -0.367362
O18   O     O_R   0.167290 0.092740 0.330420 -0.364621
O19   O     O_R   0.332710 0.592740 0.669580 -0.368737
O20   O     O_R   0.667290 0.592740 0.330420 -0.366650
O21   O     O_R   0.946290 0.250060 0.676040 -0.446638
O22   O     O_R   0.053710 0.250060 0.323960 -0.428007
O23   O     O_R   0.446290 0.750060 0.676040 -0.446183
O24   O     O_R   0.553710 0.750060 0.323960 -0.432254
C9    C     C_R   0.970240 0.346848 0.647058 0.522189
C10   C     C_R   0.028429 0.344045 0.352085 0.550024
C11   C     C_R   0.470238 0.846847 0.647056 0.523537
C12   C     C_R   0.528433 0.844045 0.352089 0.535503
O25   O     O_R   0.956270 0.452200 0.830470 -0.524756
O26   O     O_R   0.043730 0.452200 0.169530 -0.514521
O27   O     O_R   0.456270 0.952200 0.830470 -0.522377
O28   O     O_R   0.543730 0.952200 0.169530 -0.543173
O29   O     O_R   0.820760 0.543950 0.823440 -0.500445
O30   O     O_R   0.179240 0.543950 0.176560 -0.487779
O31   O     O_R   0.320760 0.043950 0.823440 -0.500236
O32   O     O_R   0.679240 0.043950 0.176560 -0.496825
C13   C     C_R   0.761204 0.529144 0.852448 0.558863
C14   C     C_R   0.227932 0.494560 0.140234 0.562815
C15   C     C_R   0.260606 0.030078 0.851912 0.555821
C16   C     C_R   0.737591 0.027978 0.146962 0.593037
O33   O     O_R   0.714570 0.459210 0.828640 -0.465786
O34   O     O_R   0.285430 0.459210 0.171360 -0.447860
O35   O     O_R   0.214570 0.959210 0.828640 -0.464841
O36   O     O_R   0.785430 0.959210 0.171360 -0.477401
O37   O     O_R   0.736470 0.210100 0.823360 -0.508204
O38   O     O_R   0.263530 0.210100 0.176640 -0.530025
O39   O     O_R   0.236470 0.710100 0.823360 -0.509885
O40   O     O_R   0.763530 0.710100 0.176640 -0.506672
C17   C     C_R   0.773734 0.127695 0.852749 0.528464
C18   C     C_R   0.226010 0.131351 0.145718 0.537472
C19   C     C_R   0.272214 0.624204 0.851168 0.528161
C20   C     C_R   0.726444 0.629465 0.146418 0.547288
O41   O     O_R   0.831960 0.093290 0.830130 -0.478445
O42   O     O_R   0.168040 0.093290 0.169870 -0.475277
O43   O     O_R   0.331960 0.593290 0.830130 -0.467129
O44   O     O_R   0.668040 0.593290 0.169870 -0.468208
O45   O     O_R   0.945600 0.250580 0.824860 -0.473187
O46   O     O_R   0.054400 0.250580 0.175140 -0.460439
O47   O     O_R   0.445600 0.750580 0.824860 -0.456188
O48   O     O_R   0.554400 0.750580 0.175140 -0.471500
C21   C     C_R   0.971654 0.347791 0.851759 0.562031
C22   C     C_R   0.060925 0.351728 0.140761 0.541494
C23   C     C_R   0.470015 0.847963 0.852539 0.548589
C24   C     C_R   0.532963 0.846941 0.145898 0.554365
Cr1   Cr    Cr6+3 0.885860 0.491680 0.749630 1.067350
Cr2   Cr    Cr6+3 0.114140 0.491680 0.250370 1.081419
Cr3   Cr    Cr6+3 0.385860 0.991680 0.749630 1.068279
Cr4   Cr    Cr6+3 0.614140 0.991680 0.250370 1.074542
Cr5   Cr    Cr6+3 0.730490 0.332970 0.748720 1.064706
Cr6   Cr    Cr6+3 0.269510 0.332970 0.251280 1.041616
Cr7   Cr    Cr6+3 0.230490 0.832970 0.748720 1.060153
Cr8   Cr    Cr6+3 0.769510 0.832970 0.251280 1.051648
Cr9   Cr    Cr6+3 0.887570 0.179310 0.750150 1.163591
Cr10  Cr    Cr6+3 0.112430 0.179310 0.249850 1.169156
Cr11  Cr    Cr6+3 0.387570 0.679310 0.750150 1.172930
Cr12  Cr    Cr6+3 0.612430 0.679310 0.249850 1.189825
O49   O     O_3   0.834640 0.334650 0.749500 -0.328455
O50   O     O_3   0.165360 0.334650 0.250500 -0.374541
O51   O     O_3   0.334640 0.834650 0.749500 -0.331838
O52   O     O_3   0.665360 0.834650 0.250500 -0.344104
C25   C     C_R   0.728205 0.985189 0.441347 -0.041132
C26   C     C_R   0.271617 0.984911 0.559676 -0.038373
C27   C     C_R   0.228204 0.485183 0.441349 -0.043156
C28   C     C_R   0.771615 0.484914 0.559674 -0.038621
C29   C     C_R   0.677404 0.044319 0.475822 -0.019383
C30   C     C_R   0.318924 0.053803 0.526216 -0.017909
C31   C     C_R   0.177402 0.544310 0.475825 -0.020461
C32   C     C_R   0.818924 0.553804 0.526215 -0.017879
C33   C     C_R   0.684470 0.074516 0.548913 -0.099772
C34   C     C_R   0.311531 0.085248 0.453532 -0.095930
C35   C     C_R   0.184468 0.574508 0.548917 -0.099898
C36   C     C_R   0.811531 0.585248 0.453531 -0.095098
C37   C     C_R   0.787289 0.962769 0.558526 0.265584
C38   C     C_R   0.212350 0.961139 0.442649 0.254204
C39   C     C_R   0.287285 0.462760 0.558534 0.266149
C40   C     C_R   0.712350 0.461139 0.442646 0.254672
C41   C     C_R   0.787118 0.957079 0.483237 -0.147666
C42   C     C_R   0.213995 0.949946 0.517784 -0.151329
C43   C     C_R   0.287117 0.457073 0.483242 -0.147514
C44   C     C_R   0.713992 0.449950 0.517782 -0.151607
C45   C     C_3   0.665471 0.166551 0.455925 0.183878
C46   C     C_3   0.325298 0.176056 0.547312 0.172993
C47   C     C_3   0.165467 0.666542 0.455930 0.183833
C48   C     C_3   0.825298 0.676058 0.547310 0.172725
C49   C     C_3   0.671149 0.197374 0.533419 -0.234943
C50   C     C_3   0.319015 0.209514 0.470114 -0.235321
C51   C     C_3   0.171146 0.697366 0.533424 -0.234782
C52   C     C_3   0.819015 0.709514 0.470113 -0.235551
C53   C     C_R   0.741885 0.041127 0.590674 0.012181
C54   C     C_R   0.256844 0.044001 0.410837 0.011002
C55   C     C_R   0.241882 0.541120 0.590679 0.011916
C56   C     C_R   0.756845 0.544000 0.410835 0.013342
H1    H     H_    0.833007 0.930272 0.457366 0.161367
H2    H     H_    0.169232 0.916867 0.543807 0.151113
H3    H     H_    0.333007 0.430269 0.457373 0.161411
H4    H     H_    0.669229 0.416873 0.543804 0.151145
H5    H     H_    0.114327 0.674002 0.428066 0.239069
H6    H     H_    0.875845 0.686249 0.575986 0.233263
H7    H     H_    0.614331 0.174011 0.428061 0.239298
H8    H     H_    0.375846 0.186245 0.575987 0.233283
H9    H     H_    0.718451 0.247025 0.547757 0.133702
H10   H     H_    0.269960 0.253962 0.455229 0.134199
H11   H     H_    0.218448 0.747018 0.547761 0.134060
H12   H     H_    0.769961 0.753964 0.455228 0.134100
H13   H     H_    0.624722 0.228221 0.558343 0.165359
H14   H     H_    0.365102 0.250106 0.448602 0.186880
H15   H     H_    0.124721 0.728212 0.558351 0.165144
H16   H     H_    0.865102 0.750105 0.448601 0.186846
C57   C     C_R   0.992542 0.330236 0.421935 -0.011125
C58   C     C_R   0.999142 0.340063 0.573981 -0.009543
C59   C     C_R   0.492539 0.830233 0.421933 -0.010751
C60   C     C_R   0.499136 0.840061 0.573978 -0.009643
C61   C     C_R   0.991400 0.110274 0.433588 0.183701
C62   C     C_R   0.014445 0.123322 0.577196 0.167965
C63   C     C_R   0.491387 0.610269 0.433582 0.184796
C64   C     C_R   0.514440 0.623317 0.577191 0.168932
C65   C     C_R   0.989398 0.014026 0.478388 0.028337
C66   C     C_R   0.031516 0.026346 0.539967 -0.015234
C67   C     C_R   0.489386 0.514021 0.478383 0.027986
C68   C     C_R   0.531508 0.526341 0.539960 -0.015557
C69   C     C_R   0.006224 0.231203 0.539069 -0.003455
C70   C     C_R   0.993695 0.224655 0.463682 0.006535
C71   C     C_R   0.506217 0.731198 0.539065 -0.003572
C72   C     C_R   0.493688 0.724651 0.463678 0.006874
H17   H     H_    0.980819 0.928895 0.456193 0.255314
H18   H     H_    0.049632 0.950903 0.569562 0.178789
H19   H     H_    0.480809 0.428889 0.456187 0.255473
H20   H     H_    0.549626 0.450900 0.569554 0.178994
C73   C     C_R   0.997058 0.442566 0.530963 -0.030638
C74   C     C_R   0.980469 0.434500 0.457634 -0.038142
C75   C     C_R   0.497052 0.942565 0.530959 -0.030795
C76   C     C_R   0.480463 0.934498 0.457630 -0.036743
C77   C     C_R   0.010841 0.554305 0.558799 -0.138598
C78   C     C_R   0.961059 0.535453 0.419136 -0.116313
C79   C     C_R   0.510836 0.054305 0.558794 -0.138731
C80   C     C_R   0.461055 0.035450 0.419131 -0.115883
C81   C     C_R   0.999587 0.654734 0.517051 0.252710
C82   C     C_R   0.978309 0.644946 0.445592 0.273547
C83   C     C_R   0.499585 0.154733 0.517043 0.252395
C84   C     C_R   0.478307 0.144944 0.445584 0.274225
H21   H     H_    0.938446 0.528691 0.365474 0.140270
H22   H     H_    0.034082 0.564849 0.611767 0.144032
H23   H     H_    0.438443 0.028688 0.365469 0.135896
H24   H     H_    0.534077 0.064850 0.611761 0.145212
C85   C     C_R   0.743649 0.066090 0.073458 0.001363
C86   C     C_R   0.245471 0.077825 0.921610 -0.044178
C87   C     C_R   0.234504 0.527480 0.065461 -0.008276
C88   C     C_R   0.748071 0.576069 0.922859 -0.049750
C89   C     C_R   0.808070 0.058608 0.044145 -0.000390
C90   C     C_R   0.194017 0.024309 0.961729 -0.019462
C91   C     C_R   0.295132 0.497776 0.032845 0.032264
C92   C     C_R   0.692703 0.530246 0.960648 -0.019049
C93   C     C_R   0.815352 0.073846 0.972357 -0.041106
C94   C     C_R   0.193420 0.036670 0.034265 -0.075735
C95   C     C_R   0.303673 0.520450 0.961788 -0.044431
C96   C     C_R   0.689612 0.543075 0.033301 -0.067153
C97   C     C_R   0.691589 0.082297 0.952036 0.206982
C98   C     C_R   0.287468 0.174982 0.029901 0.195738
C99   C     C_R   0.185793 0.586854 0.948148 0.197209
C100  C     C_R   0.795531 0.656546 0.034454 0.212058
C101  C     C_R   0.684776 0.072390 0.026463 -0.094182
C102  C     C_R   0.286971 0.162867 0.955172 -0.108595
C103  C     C_R   0.179163 0.570698 0.022329 -0.105172
C104  C     C_R   0.796247 0.647422 0.959676 -0.108095
C105  C     C_3   0.874972 0.118842 0.063651 0.138935
C106  C     C_3   0.166827 0.900795 0.965595 0.145128
C107  C     C_3   0.369000 0.527471 0.053509 0.146220
C108  C     C_3   0.662622 0.408510 0.963251 0.142270
C109  C     C_3   0.881736 0.141612 0.983796 0.122309
C110  C     C_3   0.169521 0.914066 0.046908 0.120992
C111  C     C_3   0.377857 0.557348 0.975273 0.121584
C112  C     C_3   0.659409 0.423445 0.043848 0.125934
C113  C     C_R   0.758775 0.089312 0.924745 -0.005788
C114  C     C_R   0.241510 0.105358 0.071496 -0.006176
C115  C     C_R   0.251437 0.570913 0.918443 -0.018694
C116  C     C_R   0.742066 0.599717 0.072828 0.007416
H25   H     H_    0.633555 0.065579 0.047085 0.153068
H26   H     H_    0.323114 0.213260 0.924523 0.159293
H27   H     H_    0.131438 0.593659 0.046302 0.174302
H28   H     H_    0.838511 0.686819 0.931683 0.165982
H29   H     H_    0.914518 0.057279 0.086262 0.117812
H30   H     H_    0.202913 0.834126 0.946399 0.116590
H31   H     H_    0.399698 0.450149 0.071387 0.154063
H32   H     H_    0.699078 0.339433 0.947913 0.104985
H33   H     H_    0.926462 0.097015 0.961040 0.155779
H34   H     H_    0.209641 0.859192 0.074591 0.173759
H35   H     H_    0.415229 0.500236 0.948940 0.182366
H36   H     H_    0.694200 0.363984 0.075189 0.191062
C117  C     C_R   0.048830 0.347663 0.064202 0.023100
C118  C     C_R   0.012308 0.346843 0.918486 0.060790
C119  C     C_R   0.507626 0.834449 0.073830 0.077952
C120  C     C_R   0.492506 0.846186 0.925992 0.068993
C121  C     C_R   0.030773 0.449955 0.028564 0.003018
C122  C     C_R   0.013888 0.450235 0.957549 0.086135
C123  C     C_R   0.466455 0.919548 0.041925 0.033626
C124  C     C_R   0.459350 0.925013 0.969397 0.028439
C125  C     C_R   0.040412 0.245618 0.950586 -0.137787
C126  C     C_R   0.059019 0.246391 0.023900 -0.149365
C127  C     C_R   0.528618 0.752766 0.957165 -0.101018
C128  C     C_R   0.536393 0.747208 0.031258 -0.108533
C129  C     C_3   0.977770 0.538694 0.045090 -0.223967
C130  C     C_3   0.958320 0.538899 0.966560 -0.204050
C131  C     C_3   0.468105 0.049187 0.048882 -0.255923
C132  C     C_3   0.461748 0.055087 0.968501 -0.229975
H37   H     H_    0.042298 0.165021 0.921230 0.172213
H38   H     H_    0.076596 0.167095 0.049810 0.134695
H39   H     H_    0.551113 0.686538 0.924743 0.171022
H40   H     H_    0.569490 0.680656 0.054735 0.139130
H41   H     H_    0.001307 0.622451 0.063558 0.193322
H42   H     H_    0.905880 0.502100 0.954926 0.166433
H43   H     H_    0.517794 0.086113 0.070060 0.182119
H44   H     H_    0.412937 0.092691 0.947377 0.164337
H45   H     H_    0.936263 0.502842 0.078518 0.194317
H46   H     H_    0.969650 0.622988 0.939359 0.212396
H47   H     H_    0.421858 0.079351 0.075643 0.156875
H48   H     H_    0.508539 0.090215 0.943583 0.242243
N1    N     N_R   0.841242 0.905715 0.600010 0.161570
O53   O     O_R   0.831674 0.870916 0.665315 -0.257430
O54   O     O_R   0.898620 0.880369 0.570543 -0.338826
N2    N     N_R   0.157643 0.904877 0.401422 0.169464
O55   O     O_R   0.166693 0.872875 0.335881 -0.231343
O56   O     O_R   0.101147 0.874016 0.431705 -0.323010
N3    N     N_R   0.341235 0.405707 0.600023 0.161646
O57   O     O_R   0.331664 0.370918 0.665329 -0.260114
O58   O     O_R   0.398616 0.380362 0.570560 -0.338683
N4    N     N_R   0.657644 0.404877 0.401415 0.169237
O59   O     O_R   0.666699 0.372875 0.335875 -0.233507
O60   O     O_R   0.601144 0.374022 0.431693 -0.323445
O61   O     O_3   0.007440 0.763512 0.545726 -0.682143
H49   H     H_    0.014232 0.756075 0.598329 0.325528
O62   O     O_3   0.976132 0.742733 0.402134 -0.665550
H50   H     H_    0.961420 0.719907 0.352918 0.325181
O63   O     O_3   0.507438 0.263511 0.545717 -0.682214
H51   H     H_    0.514230 0.256076 0.598320 0.325922
O64   O     O_3   0.476130 0.242730 0.402125 -0.665009
H52   H     H_    0.461416 0.219904 0.352910 0.324978
O65   O     O_3   0.632243 0.085064 0.908930 -0.683477
H53   H     H_    0.644264 0.070192 0.859028 0.339899
O66   O     O_3   0.334454 0.253550 0.058964 -0.725431
H54   H     H_    0.353611 0.221568 0.104545 0.343896
O67   O     O_3   0.128384 0.621190 0.907777 -0.646235
H55   H     H_    0.135013 0.599959 0.857453 0.338077
O68   O     O_3   0.849173 0.717522 0.067520 -0.678222
H56   H     H_    0.862277 0.675748 0.112446 0.339625
N5    N     N_R   0.867191 0.222845 0.107731 0.110623
O69   O     O_R   0.819587 0.299942 0.092860 -0.387654
O70   O     O_R   0.904170 0.232511 0.166831 -0.296858
N6    N     N_R   0.096514 0.890067 0.933923 0.111573
O71   O     O_R   0.077244 0.953565 0.878883 -0.328010
O72   O     O_R   0.055626 0.807228 0.955023 -0.291358
N7    N     N_R   0.377300 0.626127 0.102734 0.112442
O73   O     O_R   0.336546 0.716099 0.098394 -0.362598
O74   O     O_R   0.421542 0.617809 0.156529 -0.295173
N8    N     N_R   0.594688 0.398339 0.926314 0.105849
O75   O     O_R   0.574010 0.475411 0.878873 -0.333051
O76   O     O_R   0.556989 0.305734 0.936309 -0.306012
O77   O     O_3   0.877576 0.260644 0.964292 -0.683895
H57   H     H_    0.828559 0.285542 0.960871 0.334387
O78   O     O_3   0.105241 0.906262 0.079506 -0.617118
H58   H     H_    0.074254 0.967860 0.059342 0.345010
O79   O     O_3   0.389856 0.676624 0.961999 -0.668231
H59   H     H_    0.347192 0.722036 0.968867 0.342150
O80   O     O_3   0.592250 0.424447 0.070335 -0.627248
H60   H     H_    0.564419 0.484439 0.044071 0.347262
O81   O     O_3   0.720774 0.212116 0.416539 -0.624146
H61   H     H_    0.765007 0.208140 0.445288 0.326585
O82   O     O_3   0.268373 0.213586 0.586478 -0.634733
H62   H     H_    0.224441 0.202666 0.557934 0.329296
O83   O     O_3   0.220769 0.712111 0.416545 -0.623707
H63   H     H_    0.265002 0.708134 0.445293 0.326387
O84   O     O_3   0.768373 0.713590 0.586475 -0.634108
H64   H     H_    0.724441 0.702668 0.557931 0.329409
N9    N     N_R   0.048618 0.086315 0.395927 0.102663
O85   O     O_R   0.044593 0.020562 0.339407 -0.241444
O86   O     O_R   0.106439 0.115485 0.429529 -0.397720
N10   N     N_R   0.954068 0.086066 0.607934 0.117270
O87   O     O_R   0.955911 0.019458 0.664854 -0.256715
O88   O     O_R   0.897534 0.109029 0.570345 -0.380244
N11   N     N_R   0.548601 0.586304 0.395915 0.102820
O89   O     O_R   0.544572 0.520563 0.339389 -0.233853
O90   O     O_R   0.606424 0.615463 0.429517 -0.398283
N12   N     N_R   0.454065 0.586064 0.607934 0.116979
O91   O     O_R   0.455911 0.519462 0.664857 -0.254965
O92   O     O_R   0.397530 0.609018 0.570345 -0.380633

loop_
_geom_bond_atom_site_label_1
_geom_bond_atom_site_label_2
_geom_bond_distance
_ccdc_geom_bond_type
C98   O66   1.375660 S    
O4    C12   1.328354 A    
C73   C74   1.403399 A    
C96   C116  1.393185 A    
O39   C19   1.300222 A    
C62   C66   1.367094 A    
C123  C124  1.362541 A    
O1    Cr1   2.127680 S    
Cr7   O51   2.015133 S    
C65   C66   1.394440 A    
C91   C107  1.503771 S    
N9    O85   1.305518 A    
C61   N9    1.367677 S    
N8    O75   1.301449 A    
C89   C105  1.497028 S    
C57   C74   1.400345 A    
C64   C71   1.428986 A    
C108  N8    1.465916 S    
C60   C75   1.418664 A    
C31   C35   1.417895 A    
C34   C50   1.465122 S    
O68   H56   0.990239 S    
O21   C9    1.319833 A    
C59   C72   1.434763 A    
C98   C114  1.438733 A    
C1    O9    1.307735 A    
O44   Cr12  2.133041 S    
N4    O60   1.297482 A    
C3    O11   1.307737 A    
C45   H7    1.104156 S    
C4    O12   1.315183 A    
C47   H5    1.104153 S    
C67   H19   1.073282 S    
C92   C108  1.508819 S    
C61   C65   1.381512 A    
C117  C126  1.409848 A    
O2    C10   1.328344 A    
C94   C114  1.386064 A    
N1    O53   1.304315 A    
O17   Cr9   2.068622 S    
C50   H10   1.105311 S    
C44   H4    1.076111 S    
N2    O56   1.297480 A    
C117  C121  1.383956 A    
N12   O92   1.304817 A    
C8    C56   1.495231 S    
C48   O84   1.419506 S    
O16   Cr8   1.981612 S    
C107  N7    1.469861 S    
C21   C118  1.451426 S    
C27   C43   1.396498 A    
O64   H52   0.991866 S    
O13   C5    1.332658 A    
C23   C120  1.428030 S    
O28   Cr4   2.049251 S    
C120  C127  1.393734 A    
O12   Cr8   2.108150 S    
O22   Cr10  2.009855 S    
O15   C7    1.332658 A    
C129  C130  1.505469 S    
C63   N11   1.367688 S    
O46   Cr10  1.938530 S    
C127  C128  1.392606 A    
C66   H18   1.076173 S    
O14   Cr6   1.981612 S    
C79   H24   1.081419 S    
C90   C94   1.369465 A    
C2    C27   1.500759 S    
C129  H41   1.111677 S    
C110  H34   1.111993 S    
C6    C54   1.495246 S    
C111  O79   1.406271 S    
C93   C113  1.396297 A    
Cr12  O52   2.047276 S    
C87   C91   1.390435 A    
C17   O41   1.285520 A    
C19   O43   1.289491 A    
C20   O44   1.293284 A    
C39   N3    1.434765 S    
C37   C53   1.415925 A    
Cr8   O52   2.015400 S    
C3    C26   1.490664 S    
O46   C22   1.328732 A    
C78   H21   1.084519 S    
C45   O81   1.418375 S    
C112  O80   1.409973 S    
C81   O61   1.367035 S    
N7    O74   1.300258 A    
C33   C53   1.387682 A    
C15   C86   1.462666 S    
C35   C55   1.387677 A    
C108  H32   1.111362 S    
C16   O36   1.287374 A    
C18   C114  1.469099 S    
O27   C23   1.286517 A    
C39   C43   1.413950 A    
O31   C15   1.308079 A    
C77   C81   1.399281 A    
C92   C96   1.375455 A    
C46   H8    1.103421 S    
C17   C113  1.455574 S    
O47   Cr11  1.942691 S    
C131  H47   1.102592 S    
C67   C68   1.394446 A    
C93   C109  1.505564 S    
C97   O65   1.378349 S    
O39   Cr7   1.976887 S    
C121  C122  1.358585 A    
C111  H35   1.111854 S    
O24   C12   1.309791 A    
C62   C69   1.428986 A    
O30   C14   1.318347 A    
O63   H51   0.992975 S    
C64   N12   1.386387 S    
O8    Cr4   1.936578 S    
O61   H49   0.992976 S    
O32   Cr4   1.993800 S    
C20   C116  1.468140 S    
O11   Cr7   2.092018 S    
C96   C112  1.500890 S    
C5    C53   1.507932 S    
O27   Cr3   2.047343 S    
C119  C128  1.415740 A    
O3    Cr3   2.127680 S    
C46   C50   1.494707 S    
N10   O88   1.304818 A    
Cr5   O49   2.015133 S    
C1    C28   1.490674 S    
C102  H26   1.083224 S    
C61   C70   1.431348 A    
C34   C54   1.384603 A    
C107  C111  1.519631 S    
C58   C69   1.423975 A    
O22   C10   1.309788 A    
C2    O10   1.315185 A    
C100  C116  1.433129 A    
O5    C1    1.337106 A    
O81   H61   0.994476 S    
C130  H46   1.110651 S    
C106  H30   1.110572 S    
O25   C21   1.290729 A    
C52   H12   1.105313 S    
O3    C11   1.308979 A    
O8    C4    1.338090 A    
C42   H2    1.076112 S    
O79   H59   0.992382 S    
C50   H14   1.092740 S    
C103  H27   1.078470 S    
Cr1   O49   2.048128 S    
Cr3   O51   2.048128 S    
C57   C70   1.434768 A    
C29   C33   1.417883 A    
C48   C52   1.494702 S    
O26   Cr2   2.049251 S    
C5    O17   1.282654 A    
C62   N10   1.386393 S    
O28   C24   1.301258 A    
O14   C6    1.322191 A    
C8    O20   1.276287 A    
O66   H54   0.986607 S    
C97   C101  1.410670 A    
N8    O76   1.299892 A    
O40   Cr8   1.993882 S    
C100  C104  1.407822 A    
O82   H62   0.994309 S    
O41   Cr9   2.113321 S    
C106  C110  1.532637 S    
C51   H15   1.091621 S    
C89   C93   1.368674 A    
C32   C36   1.408718 A    
C112  H36   1.109332 S    
O33   Cr5   2.125112 S    
C25   C29   1.382618 A    
C12   C59   1.513401 S    
O35   Cr7   2.125112 S    
O29   Cr1   2.006657 S    
O32   C16   1.292902 A    
C88   C92   1.404253 A    
N6    O71   1.301263 A    
C122  C130  1.500036 S    
C25   C41   1.396472 A    
C14   C87   1.458989 S    
C49   H13   1.091630 S    
C40   C56   1.420544 A    
Cr9   O49   2.059514 S    
C29   C45   1.463599 S    
C18   O42   1.297725 A    
Cr11  O51   2.059514 S    
O26   C22   1.325932 A    
O20   Cr12  2.062496 S    
C36   C52   1.465127 S    
C43   H3    1.076722 S    
C37   N1    1.434752 S    
N3    O57   1.304325 A    
C90   C106  1.508556 S    
C76   C80   1.403412 A    
C35   C51   1.457435 S    
C30   C34   1.408718 A    
C99   C115  1.420989 A    
C83   O63   1.367032 S    
C97   C113  1.417740 A    
C78   C82   1.387026 A    
C101  H25   1.080401 S    
C71   C72   1.427446 A    
O6    Cr2   1.936578 S    
C86   C90   1.405835 A    
C48   H6    1.103422 S    
C64   C68   1.367096 A    
O42   Cr10  2.133041 S    
O18   Cr10  2.062496 S    
O67   H55   0.990252 S    
O31   Cr3   2.006657 S    
O34   Cr6   2.103418 S    
C123  C131  1.492296 S    
C26   C30   1.371745 A    
N9    O86   1.305222 A    
O24   Cr12  2.009855 S    
O30   Cr2   1.993800 S    
C22   C117  1.446600 S    
O1    C9    1.308971 A    
N11   O89   1.305525 A    
O48   Cr12  1.938530 S    
C26   C42   1.396827 A    
C83   C84   1.391500 A    
O37   C17   1.297594 A    
C15   O35   1.268488 A    
Cr10  O50   2.047276 S    
C30   C46   1.462081 S    
O40   C20   1.287599 A    
O43   Cr11  2.113321 S    
C63   C67   1.381518 A    
O84   H64   0.994309 S    
O21   Cr9   1.993122 S    
O77   H57   0.992016 S    
C11   C60   1.503539 S    
C129  H45   1.112587 S    
O45   Cr9   1.942691 S    
C75   C76   1.403389 A    
C80   C84   1.387022 A    
C9    C58   1.503531 S    
O13   Cr5   2.000952 S    
O15   Cr7   2.000952 S    
C60   C71   1.423996 A    
C86   C102  1.396685 A    
C63   C72   1.431378 A    
C59   C76   1.400341 A    
N1    O54   1.295843 A    
O23   C11   1.319828 A    
C73   C77   1.406831 A    
C40   C44   1.412836 A    
C109  H33   1.110008 S    
N2    O55   1.304666 A    
C110  O78   1.409743 S    
N12   O91   1.306007 A    
C132  H48   1.107065 S    
C126  H38   1.077225 S    
O6    C2    1.338100 A    
C52   H16   1.092735 S    
C125  H37   1.081015 S    
O19   Cr11  2.068622 S    
N7    O73   1.302382 A    
O29   C13   1.303364 A    
C69   C70   1.427446 A    
C7    C55   1.507929 S    
O45   C21   1.315865 A    
O47   C23   1.312033 A    
C88   C104  1.401030 A    
C119  C123  1.380546 A    
C19   C115  1.466001 S    
C99   O67   1.377025 S    
C6    O18   1.276283 A    
C121  C129  1.492584 S    
C68   H20   1.076171 S    
O36   Cr8   2.103418 S    
O38   Cr6   1.993882 S    
C98   C102  1.409203 A    
C81   C82   1.391501 A    
O83   H63   0.994479 S    
O37   Cr5   1.976887 S    
C94   C110  1.495698 S    
C28   C32   1.371744 A    
C108  C112  1.526463 S    
O23   Cr11  1.993122 S    
C51   H11   1.099979 S    
O7    C3    1.337099 A    
C32   C48   1.462087 S    
N4    O59   1.304669 A    
C49   H9    1.099980 S    
C124  C132  1.490734 S    
C87   C103  1.406336 A    
N3    O58   1.295844 A    
C105  N5    1.468498 S    
C40   N4    1.438330 S    
C131  H43   1.108386 S    
N5    O70   1.300333 A    
O78   H58   0.991858 S    
C47   O83   1.418370 S    
C36   C56   1.384605 A    
C7    O19   1.282658 A    
O65   H53   0.989832 S    
Cr4   O52   2.060243 S    
C118  C125  1.404782 A    
C99   C103  1.412541 A    
C38   C54   1.420555 A    
O48   C24   1.291945 A    
C65   H17   1.073280 S    
Cr6   O50   2.015400 S    
O80   H60   0.991508 S    
O5    Cr1   1.934046 S    
C104  H28   1.083098 S    
C28   C44   1.396845 A    
C118  C122  1.398057 A    
C91   C95   1.371570 A    
C37   C41   1.413922 A    
O9    Cr5   2.092018 S    
O4    Cr4   2.117610 S    
O16   C8    1.322194 A    
C4    C25   1.500711 S    
C38   N2    1.438316 S    
C13   C88   1.462508 S    
O7    Cr3   1.934046 S    
C27   C31   1.382629 A    
C95   C111  1.506182 S    
N11   O90   1.305215 A    
C79   C83   1.399289 A    
C107  H31   1.111920 S    
C105  H29   1.113272 S    
C13   O33   1.272933 A    
C85   C89   1.385976 A    
C125  C126  1.407444 A    
C41   H1    1.076723 S    
Cr2   O50   2.060243 S    
C77   H22   1.081426 S    
N10   O87   1.306002 A    
N6    O72   1.300470 A    
C100  O68   1.377318 S    
C75   C79   1.406836 A    
C130  H42   1.110624 S    
C33   C49   1.457440 S    
O62   H50   0.991866 S    
C120  C124  1.397592 A    
C16   C85   1.451119 S    
O38   C18   1.282407 A    
C24   C119  1.427365 S    
O25   Cr1   2.047343 S    
C39   C55   1.415912 A    
O2    Cr2   2.117610 S    
C109  O77   1.410827 S    
C45   C49   1.498335 S    
C127  H39   1.081290 S    
C46   O82   1.419508 S    
C14   O34   1.301304 A    
C10   C57   1.513430 S    
C106  N6    1.467799 S    
C95   C115  1.396882 A    
C82   O62   1.379338 S    
C31   C47   1.463601 S    
C58   C73   1.418655 A    
C105  C109  1.528380 S    
C85   C101  1.414307 A    
C38   C42   1.412829 A    
O10   Cr6   2.108150 S    
C84   O64   1.379343 S    
C128  H40   1.078840 S    
C74   C78   1.403403 A    
C131  C132  1.508496 S    
C132  H44   1.098990 S    
C80   H23   1.084516 S    
C47   C51   1.498333 S    
N5    O69   1.301309 A    
