data_mof_unit_19829.cif
_audit_creation_date              2012-12-10T17:17:24-0500
_audit_creation_method            fapswitch 2.2
_symmetry_space_group_name_H-M    P1
_symmetry_Int_Tables_number       1
_space_group_crystal_system       triclinic
_cell_length_a                    10.182521
_cell_length_b                    10.654434
_cell_length_c                    12.827087
_cell_angle_alpha                 90.861286
_cell_angle_beta                  110.252048
_cell_angle_gamma                 96.329627
_cell_volume                      1295.49598134

loop_
_atom_site_label
_atom_site_type_symbol
_atom_type_description
_atom_site_fract_x
_atom_site_fract_y
_atom_site_fract_z
_atom_type_partial_charge
C1    C     C_R   0.054893 0.733910 0.497135 0.863514
C2    C     C_R   0.430195 0.485404 0.980436 -0.045794
C3    C     C_R   0.351944 0.546629 0.885935 -0.006045
C4    C     C_R   0.574017 0.534897 0.034895 0.138553
C5    C     C_R   0.632746 0.648844 0.001501 0.060949
C6    C     C_R   0.544403 0.714741 0.916752 -0.154731
C7    C     C_R   0.422249 0.645503 0.844696 -0.111421
C8    C     C_R   0.657658 0.482245 0.129131 -0.151012
C9    C     C_R   0.862253 0.624661 0.136364 -0.161600
C10   C     C_R   0.207989 0.500727 0.830249 -0.132631
C11   C     C_2   0.098953 0.869595 0.513580 -0.254667
C12   C     C_R   0.137098 0.515821 0.712153 0.861585
C13   C     C_2   0.037363 0.937802 0.568657 -0.115154
C14   C     C_2   0.932790 0.134473 0.535380 0.231784
C15   C     C_2   0.048177 0.074148 0.567219 -0.218460
C16   C     C_2   0.420276 0.530259 0.458929 0.467156
C17   C     C_2   0.567243 0.495931 0.475248 -0.015370
C18   C     C_R   0.951028 0.266966 0.512214 0.843164
C19   C     C_R   0.866206 0.492588 0.289270 0.877985
C20   C     C_R   0.777641 0.691631 0.052953 -0.117668
C21   C     C_R   0.800108 0.523049 0.176806 -0.045034
C22   C     C_R   0.138155 0.414326 0.880124 -0.284394
C23   C     C_R   0.215003 0.348845 0.968539 0.414768
C24   C     C_R   0.362463 0.372568 0.009306 0.294290
H1    H     H_    0.972097 0.661622 0.178322 0.190774
H2    H     H_    0.961305 0.892088 0.602511 0.256878
H3    H     H_    0.573184 0.415954 0.424422 0.159082
H4    H     H_    0.827531 0.776721 0.031265 0.209817
H5    H     H_    0.611287 0.420070 0.175613 0.192043
H6    H     H_    0.026149 0.383970 0.840612 0.215718
H7    H     H_    0.151668 0.124770 0.580319 0.226855
N1    N     N_2   0.313640 0.446500 0.454900 0.010311
N2    N     N_2   0.686360 0.553430 0.545150 0.046577
O1    O     O_R   0.936910 0.692950 0.509080 -0.572715
O2    O     O_R   0.138320 0.658600 0.480130 -0.555254
O3    O     O_R   0.002900 0.525670 0.675280 -0.586964
O4    O     O_R   0.204310 0.491320 0.646330 -0.596469
O5    O     O_R   0.861680 0.341400 0.519870 -0.585293
O6    O     O_R   0.063090 0.307050 0.490920 -0.578534
O7    O     O_R   0.795690 0.508680 0.353670 -0.628089
O8    O     O_R   0.997100 0.474330 0.324720 -0.580407
Zn1   Zn    Zn3+2 0.865520 0.522940 0.519330 1.084575
Zn2   Zn    Zn3+2 0.134480 0.477060 0.480670 1.115854
Cl1   Cl    Cl    0.761828 0.058176 0.514790 -0.454450
C25   C     C_2   0.206947 0.926121 0.469302 1.056790
O9    O     O_2   0.191095 0.905756 0.371384 -0.543650
O10   O     O_R   0.329307 0.997716 0.540669 -0.710104
H8    H     H_    0.398667 0.024837 0.502133 0.414423
Cl2   Cl    Cl    0.388765 0.685215 0.422610 -0.431417
Cl3   Cl    Cl    0.691094 0.693706 0.616839 -0.362178
Cl4   Cl    Cl    0.349069 0.291541 0.476289 -0.497722
C26   C     C_2   0.587026 0.841722 0.883411 0.998921
O11   O     O_2   0.698150 0.864718 0.866721 -0.555149
O12   O     O_R   0.492591 0.931936 0.862608 -0.712879
H9    H     H_    0.529926 0.013585 0.837266 0.388437
Cl5   Cl    Cl    0.450770 0.240609 0.064211 -0.481752
Cl6   Cl    Cl    0.124407 0.223313 0.014112 -0.433542
C27   C     C_2   0.447269 0.613985 0.742639 0.991111
O13   O     O_2   0.424210 0.686435 0.667317 -0.540705
O14   O     O_R   0.501440 0.500198 0.736021 -0.746019
H10   H     H_    0.522101 0.486209 0.666030 0.355360

loop_
_geom_bond_atom_site_label_1
_geom_bond_atom_site_label_2
_ccdc_geom_bond_type
O4    Zn2   S    
O12   H9    S    
C2    C4    A    
C23   C24   A    
N1    Cl4   S    
C15   H7    S    
C6    C7    A    
C16   N1    D    
C11   C13   D    
C14   C18   S    
C9    C20   A    
O3    Zn1   S    
O10   H8    S    
O1    Zn1   S    
C24   Cl5   S    
C4    C8    A    
O7    Zn1   S    
C8    C21   A    
C18   O5    A    
C9    H1    S    
C5    C20   A    
C22   H6    S    
C25   O9    D    
C10   C22   A    
O8    Zn2   S    
C9    C21   A    
C17   N2    D    
O14   H10   S    
C23   Cl6   S    
N2    Zn1   S    
C10   C12   S    
C19   C21   S    
N1    Zn2   S    
C26   O12   S    
C1    O1    A    
C2    C3    A    
C3    C7    A    
C13   C15   S    
C2    C24   A    
C5    C6    A    
C13   H2    S    
C11   C25   S    
C12   O3    A    
C19   O7    A    
C8    H5    S    
C27   O14   S    
N2    Cl3   S    
C17   H3    S    
O5    Zn1   S    
O2    Zn2   S    
C16   Cl2   S    
C1    O2    A    
C7    C27   S    
C14   Cl1   S    
C25   O10   S    
C12   O4    A    
C3    C10   A    
C18   O6    A    
C22   C23   A    
C16   C17   S    
O6    Zn2   S    
C20   H4    S    
C6    C26   S    
C27   O13   D    
C14   C15   D    
C19   O8    A    
C26   O11   D    
C4    C5    A    
C1    C11   S    
