data_mof_unit_60427.cif
_audit_creation_date              2012-12-10T19:14:37-0500
_audit_creation_method            fapswitch 2.2
_symmetry_space_group_name_H-M    P1
_symmetry_Int_Tables_number       1
_space_group_crystal_system       triclinic
_cell_length_a                    38.940195
_cell_length_b                    38.93483
_cell_length_c                    29.13399
_cell_angle_alpha                 90.227263
_cell_angle_beta                  90.149777
_cell_angle_gamma                 90.034702
_cell_volume                      44170.4057716

loop_
_atom_site_label
_atom_site_type_symbol
_atom_type_description
_atom_site_fract_x
_atom_site_fract_y
_atom_site_fract_z
_atom_type_partial_charge
C1    C     C_R   0.567110 0.000009 0.500005 0.972011
C2    C     C_R   0.992119 0.767175 0.535214 -0.156112
C3    C     C_R   0.004909 0.323794 0.504314 0.058771
C4    C     C_R   0.176511 0.499984 0.000049 0.060534
C5    C     C_R   0.499924 0.176370 0.000761 0.059732
C6    C     C_R   0.823821 0.500108 0.000125 0.058506
C7    C     C_R   0.504316 0.823988 0.989670 0.051405
C8    C     C_R   0.999979 0.932153 0.499880 0.818742
C9    C     C_R   0.067972 0.000001 0.500107 0.810551
C10   C     C_R   0.999950 0.067845 0.500113 0.819204
C11   C     C_R   0.932102 0.000009 0.499946 0.815297
C12   C     C_R   0.500071 0.432097 0.999890 0.813334
C13   C     C_R   0.233752 0.971991 0.510443 -0.157027
C14   C     C_R   0.567813 0.499958 0.000069 0.820672
C15   C     C_R   0.500053 0.567967 0.000057 0.812673
C16   C     C_R   0.432134 0.499979 0.999941 0.817131
C17   C     C_R   0.499857 0.000051 0.585766 0.923539
C18   C     C_R   0.000032 0.499552 0.585757 0.944427
C19   C     C_R   0.500153 0.999941 0.414235 0.976980
C20   C     C_R   0.999954 0.500456 0.414243 0.943479
C21   C     C_R   0.999946 0.500068 0.085767 0.951307
C22   C     C_R   0.500039 0.000153 0.085764 0.977467
C23   C     C_R   0.999937 0.499931 0.914232 0.952199
C24   C     C_R   0.015709 0.232136 0.542006 -0.156572
C25   C     C_R   0.499952 0.999855 0.914234 0.923338
C26   C     C_1   0.499780 0.000130 0.636577 -0.162136
C27   C     C_1   0.000064 0.499173 0.636576 -0.177095
C28   C     C_1   0.500286 0.999839 0.363416 -0.162155
C29   C     C_1   0.999848 0.500848 0.363424 -0.177077
C30   C     C_1   0.999910 0.500239 0.136584 -0.170803
C31   C     C_1   0.500114 0.000223 0.136584 -0.162116
C32   C     C_1   0.999946 0.499760 0.863415 -0.170574
C33   C     C_1   0.499852 0.999848 0.863423 -0.161555
C34   C     C_1   0.499752 0.000113 0.678881 0.026871
C35   C     C_R   0.232590 0.034333 0.508222 -0.157437
C36   C     C_1   0.000048 0.499101 0.678880 0.019144
C37   C     C_1   0.500312 0.999863 0.321114 0.014870
C38   C     C_1   0.999808 0.500921 0.321120 0.019121
C39   C     C_1   0.999869 0.500423 0.178888 0.020403
C40   C     C_1   0.500171 0.000180 0.178887 0.014797
C41   C     C_1   0.999961 0.499580 0.821112 0.020083
C42   C     C_1   0.499799 0.999891 0.821119 0.026732
C43   C     C_1   0.499748 0.000044 0.728846 0.036576
C44   C     C_1   0.000016 0.499202 0.728842 0.039233
C45   C     C_1   0.500283 0.999962 0.271153 0.033193
C46   C     C_R   0.015047 0.767882 0.457824 -0.156791
C47   C     C_1   0.999805 0.500815 0.271158 0.039376
C48   C     C_1   0.999827 0.500652 0.228850 0.038015
C49   C     C_1   0.500237 0.000067 0.228847 0.033209
C50   C     C_1   0.999988 0.499359 0.771150 0.037747
C51   C     C_1   0.499762 0.999972 0.771154 0.036420
C52   C     C_R   0.876584 0.974742 0.474441 -0.020124
C53   C     C_R   0.030004 0.877698 0.481583 -0.015799
C54   C     C_R   0.123952 0.024440 0.474522 -0.016530
C55   C     C_R   0.972335 0.123889 0.484074 -0.020215
C56   C     C_R   0.123213 0.976333 0.529083 -0.015283
C57   C     C_R   0.767659 0.000186 0.458133 -0.154046
C58   C     C_R   0.972428 0.876121 0.516245 -0.019950
C59   C     C_R   0.876776 0.025564 0.525162 -0.020216
C60   C     C_R   0.030289 0.122272 0.517978 -0.016156
C61   C     C_R   0.376767 0.472354 0.979129 -0.017983
C62   C     C_R   0.524859 0.376433 0.974215 -0.020180
C63   C     C_R   0.622909 0.529750 0.985720 -0.017867
C64   C     C_R   0.475561 0.622940 0.971881 -0.014990
C65   C     C_R   0.623041 0.470521 0.014971 -0.018588
C66   C     C_R   0.474362 0.376901 0.024982 -0.017070
C67   C     C_R   0.376863 0.527665 0.020458 -0.017363
C68   C     C_R   0.991978 0.232802 0.464887 -0.156150
C69   C     C_R   0.524358 0.624178 0.025732 -0.018618
C70   C     C_R   0.840740 0.975516 0.474366 -0.111501
C71   C     C_R   0.030256 0.841833 0.480831 -0.114910
C72   C     C_R   0.159821 0.024515 0.476791 -0.109621
C73   C     C_R   0.973510 0.159729 0.485577 -0.113613
C74   C     C_R   0.158978 0.978123 0.531795 -0.113620
C75   C     C_R   0.973542 0.840279 0.514791 -0.113850
C76   C     C_R   0.840931 0.024946 0.525121 -0.111335
C77   C     C_R   0.030601 0.158140 0.518794 -0.115074
C78   C     C_R   0.340902 0.472911 0.979183 -0.113577
C79   C     C_R   0.267767 0.505987 0.040864 -0.155613
C80   C     C_R   0.524117 0.340590 0.974584 -0.110154
C81   C     C_R   0.658760 0.529454 0.986293 -0.115564
C82   C     C_R   0.477245 0.658688 0.968924 -0.115983
C83   C     C_R   0.658882 0.470934 0.014336 -0.114097
C84   C     C_R   0.475019 0.341059 0.025423 -0.113855
C85   C     C_R   0.341000 0.527065 0.020460 -0.114910
C86   C     C_R   0.524356 0.660034 0.023237 -0.108916
C87   C     C_R   0.823090 0.000262 0.499731 0.002186
C88   C     C_R   0.002255 0.823166 0.497287 0.005765
C89   C     C_R   0.177349 0.001874 0.505689 0.009905
C90   C     C_R   0.468646 0.267223 0.996563 -0.157667
C91   C     C_R   0.002440 0.176827 0.502729 0.005735
C92   C     C_R   0.323132 0.499969 0.999854 0.003694
C93   C     C_R   0.499607 0.322950 0.000290 0.007347
C94   C     C_R   0.676749 0.500217 0.000286 0.007059
C95   C     C_R   0.501368 0.677301 0.994488 0.009729
C96   C     C_R   0.894719 0.000110 0.499837 -0.213437
C97   C     C_R   0.000865 0.894856 0.499453 -0.207237
C98   C     C_R   0.105485 0.000029 0.500753 -0.215829
C99   C     C_R   0.000915 0.105139 0.500511 -0.207186
C100  C     C_R   0.394796 0.500008 0.999814 -0.209618
C101  C     C_R   0.732537 0.485313 0.036738 -0.157553
C102  C     C_R   0.499747 0.394707 0.999633 -0.213082
C103  C     C_R   0.605063 0.500076 0.000253 -0.205373
C104  C     C_R   0.499748 0.605472 0.999776 -0.216185
C105  C     C_2   0.894426 0.946524 0.449365 0.439202
C106  C     C_2   0.060649 0.896741 0.464705 0.418278
C107  C     C_2   0.106441 0.051029 0.446229 0.436445
C108  C     C_2   0.940875 0.106513 0.466294 0.422999
C109  C     C_2   0.105067 0.948826 0.554939 0.443924
C110  C     C_2   0.941135 0.893510 0.534248 0.423642
C111  C     C_2   0.894817 0.053688 0.550347 0.440013
C112  C     C_R   0.999999 0.567054 0.498904 0.950229
C113  C     C_R   0.533889 0.732454 0.991094 -0.157696
C114  C     C_2   0.061111 0.103186 0.534314 0.421171
C115  C     C_2   0.394864 0.442261 0.958735 0.423640
C116  C     C_2   0.552669 0.394104 0.948327 0.442394
C117  C     C_2   0.604557 0.561394 0.970857 0.421775
C118  C     C_2   0.447642 0.604495 0.946827 0.439187
C119  C     C_2   0.604847 0.438924 0.030294 0.420693
C120  C     C_2   0.446245 0.395107 0.049711 0.434776
C121  C     C_2   0.395060 0.557808 0.040741 0.421527
C122  C     C_2   0.551151 0.606928 0.054054 0.438842
C123  C     C_2   0.605418 0.958056 0.432469 0.929768
C124  C     C_R   0.732384 0.515211 0.963807 -0.157001
C125  C     C_2   0.977773 0.604904 0.415367 0.880663
C126  C     C_2   0.392426 0.029137 0.425044 0.927926
C127  C     C_2   0.023242 0.394325 0.420022 0.917718
C128  C     C_2   0.396872 0.972863 0.583284 0.875541
C129  C     C_2   0.024172 0.605724 0.579653 0.918416
C130  C     C_2   0.605614 0.041925 0.567677 0.929879
C131  C     C_2   0.978436 0.395048 0.584743 0.880792
C132  C     C_2   0.105471 0.538713 0.929467 0.927470
C133  C     C_2   0.541716 0.105645 0.932790 0.932239
C134  C     C_2   0.894650 0.486155 0.914170 0.885494
C135  C     C_R   0.530723 0.267436 0.005129 -0.157440
C136  C     C_2   0.472217 0.896628 0.916650 0.875636
C137  C     C_2   0.895162 0.513891 0.085837 0.884398
C138  C     C_2   0.458290 0.105453 0.067831 0.932367
C139  C     C_2   0.105639 0.461409 0.070693 0.927592
C140  C     C_2   0.529808 0.892587 0.074530 0.927963
C141  C     C_R   0.267537 0.493874 0.959016 -0.156153
C142  C     C_R   0.471536 0.733741 0.989640 -0.157554
C143  C     C_R   0.732247 0.000208 0.541562 -0.160345
C144  C     C_R   0.992728 0.731555 0.534761 -0.159593
C145  C     C_R   0.269374 0.972746 0.512319 -0.158804
C146  C     C_R   0.016490 0.267838 0.542348 -0.158771
C147  C     C_R   0.268289 0.035014 0.509207 -0.154572
C148  C     C_R   0.432937 0.999971 0.501283 0.941960
C149  C     C_R   0.015845 0.732185 0.457469 -0.158873
C150  C     C_R   0.732010 0.000349 0.458176 -0.160609
C151  C     C_R   0.992578 0.268423 0.465326 -0.159439
C152  C     C_R   0.232097 0.505875 0.040943 -0.160004
C153  C     C_R   0.468727 0.231572 0.996894 -0.158483
C154  C     C_R   0.768177 0.485041 0.036518 -0.159022
C155  C     C_R   0.534639 0.768147 0.989953 -0.154896
C156  C     C_R   0.768031 0.515392 0.963921 -0.159292
C157  C     C_R   0.530813 0.231787 0.004978 -0.159353
C158  C     C_R   0.231868 0.493988 0.959038 -0.159829
C159  C     C_R   0.999986 0.432944 0.501075 0.950098
C160  C     C_R   0.472351 0.769356 0.987601 -0.158608
C161  C     C_R   0.714100 0.000260 0.499899 0.119228
C162  C     C_R   0.004650 0.713839 0.495944 0.115245
C163  C     C_R   0.286685 0.004214 0.511243 0.107066
C164  C     C_R   0.004881 0.286165 0.504005 0.115212
C165  C     C_R   0.214027 0.499940 0.000013 0.116245
C166  C     C_R   0.499818 0.213792 0.000922 0.108903
C167  C     C_R   0.786167 0.500182 0.000186 0.114016
C168  C     C_R   0.503864 0.786603 0.988257 0.107071
C169  C     C_R   0.785665 0.000291 0.499780 0.106096
C170  C     C_R   0.067122 0.500010 0.000008 0.976626
C171  C     C_R   0.003150 0.785555 0.496712 0.110544
C172  C     C_R   0.215051 0.002778 0.508316 0.110907
C173  C     C_R   0.003401 0.214440 0.503269 0.110547
C174  C     C_R   0.285611 0.499938 0.999913 0.107892
C175  C     C_R   0.499648 0.285354 0.000732 0.109449
C176  C     C_R   0.714400 0.500266 0.000287 0.112287
C177  C     C_R   0.502300 0.714982 0.991514 0.111129
C178  C     C_R   0.658560 0.978778 0.469707 -0.192717
C179  C     C_R   0.992271 0.658198 0.457542 -0.177862
C180  C     C_R   0.340721 0.018287 0.471896 -0.190029
C181  C     C_R   0.500006 0.067108 0.000057 0.972179
C182  C     C_R   0.015698 0.341599 0.465473 -0.192369
C183  C     C_R   0.342775 0.989354 0.545181 -0.177818
C184  C     C_R   0.015969 0.658438 0.534342 -0.192566
C185  C     C_R   0.658650 0.021483 0.530281 -0.193257
C186  C     C_R   0.992758 0.341779 0.542521 -0.177946
C187  C     C_R   0.158646 0.519439 0.967765 -0.191308
C188  C     C_R   0.521268 0.158661 0.970496 -0.192970
C189  C     C_R   0.841631 0.493621 0.959448 -0.183395
C190  C     C_R   0.488852 0.842618 0.954539 -0.177890
C191  C     C_R   0.841883 0.506524 0.040750 -0.183384
C192  C     C_R   0.932985 0.499993 0.999989 0.940269
C193  C     C_R   0.478634 0.158558 0.030808 -0.192833
C194  C     C_R   0.158725 0.480575 0.032361 -0.191018
C195  C     C_R   0.518424 0.840752 0.027610 -0.190199
C196  C     C_R   0.622756 0.978961 0.468503 -0.045962
C197  C     C_R   0.989949 0.622369 0.458002 -0.046808
C198  C     C_R   0.376352 0.015867 0.467700 -0.046096
C199  C     C_R   0.013126 0.377255 0.463402 -0.041627
C200  C     C_R   0.378513 0.987187 0.542818 -0.042977
C201  C     C_R   0.013518 0.622770 0.536415 -0.041838
C202  C     C_R   0.622849 0.021146 0.531560 -0.045484
C203  C     C_R   0.499963 0.932929 0.998671 0.941645
C204  C     C_R   0.990328 0.377601 0.542051 -0.046883
C205  C     C_R   0.122813 0.519410 0.966823 -0.046981
C206  C     C_R   0.521045 0.122853 0.969000 -0.046375
C207  C     C_R   0.877454 0.493320 0.958740 -0.040226
C208  C     C_R   0.486794 0.878376 0.957011 -0.042876
C209  C     C_R   0.877701 0.506715 0.041346 -0.039300
C210  C     C_R   0.478936 0.122756 0.031843 -0.046654
C211  C     C_R   0.122894 0.480654 0.033306 -0.047186
C212  C     C_R   0.516119 0.876407 0.031926 -0.045905
C213  C     C_R   0.604624 0.000033 0.500026 -0.190522
C214  C     C_R   0.767895 0.000398 0.541486 -0.154066
C215  C     C_R   0.000141 0.604490 0.498194 -0.177939
C216  C     C_R   0.395501 0.000027 0.503317 -0.180163
C217  C     C_R   0.000102 0.395503 0.501757 -0.177340
C218  C     C_R   0.104658 0.500030 0.000049 -0.189947
C219  C     C_R   0.500004 0.104619 0.000300 -0.191185
C220  C     C_R   0.895662 0.499989 0.000024 -0.179761
C221  C     C_R   0.499995 0.895476 0.996486 -0.180596
C222  C     C_R   0.676501 0.000180 0.499960 0.064406
C223  C     C_R   0.004739 0.676213 0.495636 0.058851
C224  C     C_R   0.324060 0.004558 0.509895 0.051506
H1    H     H_    0.826303 0.956256 0.455491 0.185176
H2    H     H_    0.542789 0.326191 0.954830 0.182363
H3    H     H_    0.672832 0.552249 0.976362 0.181856
H4    H     H_    0.459558 0.672193 0.946631 0.180164
H5    H     H_    0.673043 0.448207 0.024341 0.182027
H6    H     H_    0.456202 0.327047 0.045306 0.181875
H7    H     H_    0.326745 0.548116 0.035664 0.183708
H8    H     H_    0.542591 0.674679 0.043531 0.180847
H9    H     H_    0.781637 0.000142 0.573866 0.152305
H10   H     H_    0.983215 0.780371 0.565739 0.149133
H11   H     H_    0.220905 0.947322 0.509677 0.149992
H12   H     H_    0.052604 0.828244 0.468151 0.182607
H13   H     H_    0.024359 0.218360 0.572117 0.149766
H14   H     H_    0.218733 0.058428 0.507439 0.151822
H15   H     H_    0.023379 0.781670 0.427614 0.149765
H16   H     H_    0.781218 0.000439 0.425710 0.152264
H17   H     H_    0.982755 0.219591 0.434471 0.149046
H18   H     H_    0.281451 0.510475 0.072752 0.151264
H19   H     H_    0.444467 0.280609 0.992440 0.151818
H20   H     H_    0.719175 0.474026 0.065540 0.148543
H21   H     H_    0.557959 0.718550 0.991653 0.152239
H22   H     H_    0.718899 0.526522 0.935042 0.148789
H23   H     H_    0.174267 0.042553 0.456218 0.180524
H24   H     H_    0.554846 0.281002 0.009100 0.153235
H25   H     H_    0.281041 0.489393 0.927088 0.151053
H26   H     H_    0.446853 0.720958 0.990786 0.149071
H27   H     H_    0.718870 0.999603 0.574096 0.146279
H28   H     H_    0.983514 0.717835 0.564568 0.147001
H29   H     H_    0.283508 0.948793 0.513280 0.152275
H30   H     H_    0.026274 0.281120 0.572392 0.151758
H31   H     H_    0.281590 0.059453 0.508457 0.156012
H32   H     H_    0.025333 0.718925 0.427316 0.151754
H33   H     H_    0.718445 0.000926 0.425686 0.146201
H34   H     H_    0.951626 0.174525 0.473901 0.182701
H35   H     H_    0.983045 0.282123 0.435626 0.147019
H36   H     H_    0.218590 0.510736 0.072771 0.148105
H37   H     H_    0.444659 0.217834 0.993304 0.155061
H38   H     H_    0.781650 0.472775 0.064579 0.151752
H39   H     H_    0.559112 0.781398 0.990377 0.155981
H40   H     H_    0.781398 0.527618 0.935819 0.151745
H41   H     H_    0.554950 0.218222 0.008571 0.154967
H42   H     H_    0.218181 0.489138 0.927244 0.148090
H43   H     H_    0.448425 0.783543 0.986899 0.152163
H44   H     H_    0.672611 0.962304 0.446283 0.169321
H45   H     H_    0.172701 0.960791 0.554314 0.180271
H46   H     H_    0.983456 0.672248 0.427699 0.169712
H47   H     H_    0.325603 0.029587 0.444529 0.176562
H48   H     H_    0.025496 0.327468 0.436160 0.170584
H49   H     H_    0.329313 0.979087 0.574656 0.171755
H50   H     H_    0.026031 0.672598 0.563549 0.170580
H51   H     H_    0.672772 0.038002 0.553692 0.169427
H52   H     H_    0.984261 0.327707 0.572457 0.169828
H53   H     H_    0.172823 0.534296 0.942737 0.171283
H54   H     H_    0.537069 0.172964 0.946643 0.172141
H55   H     H_    0.827485 0.487882 0.928249 0.168756
H56   H     H_    0.951760 0.825495 0.526732 0.182666
H57   H     H_    0.478301 0.829075 0.925099 0.171670
H58   H     H_    0.827944 0.512319 0.071996 0.168117
H59   H     H_    0.462786 0.172780 0.054821 0.172033
H60   H     H_    0.172966 0.465705 0.057391 0.171552
H61   H     H_    0.529935 0.825700 0.054854 0.176490
H62   H     H_    0.921846 0.942658 0.452923 0.064255
H63   H     H_    0.061848 0.924507 0.466597 0.058433
H64   H     H_    0.079020 0.055211 0.448723 0.069858
H65   H     H_    0.938910 0.078750 0.465692 0.055125
H66   H     H_    0.078154 0.943395 0.548813 0.064193
H67   H     H_    0.826639 0.044251 0.543979 0.185240
H68   H     H_    0.939080 0.921266 0.534460 0.055871
H69   H     H_    0.922258 0.057407 0.546967 0.064420
H70   H     H_    0.062263 0.075425 0.532203 0.056879
H71   H     H_    0.422521 0.439783 0.961189 0.060734
H72   H     H_    0.556229 0.421632 0.950763 0.065691
H73   H     H_    0.576756 0.562552 0.970777 0.053123
H74   H     H_    0.442259 0.577679 0.953566 0.063684
H75   H     H_    0.577055 0.437874 0.031248 0.053256
H76   H     H_    0.442164 0.422417 0.045301 0.065056
H77   H     H_    0.422687 0.560400 0.038018 0.061410
H78   H     H_    0.053114 0.171714 0.531182 0.182650
H79   H     H_    0.554901 0.579401 0.052405 0.069411
H80   H     H_    0.567354 0.954311 0.385610 0.348110
H81   H     H_    0.950985 0.566231 0.386016 0.346648
H82   H     H_    0.429413 0.024321 0.377230 0.342897
H83   H     H_    0.013114 0.430423 0.372755 0.341889
H84   H     H_    0.434145 0.942073 0.608076 0.347532
H85   H     H_    0.014807 0.569441 0.626903 0.341951
H86   H     H_    0.567666 0.045493 0.614466 0.348290
H87   H     H_    0.951778 0.433651 0.614206 0.346530
H88   H     H_    0.067023 0.540776 0.883069 0.347556
H89   H     H_    0.326575 0.451852 0.963982 0.183900
H90   H     H_    0.545222 0.067644 0.885760 0.348275
H91   H     H_    0.933095 0.462806 0.879927 0.343330
H92   H     H_    0.441318 0.933869 0.892064 0.347542
H93   H     H_    0.933564 0.537653 0.119979 0.343374
H94   H     H_    0.454902 0.067484 0.114516 0.348064
H95   H     H_    0.067296 0.459398 0.116992 0.347605
H96   H     H_    0.525474 0.929699 0.122543 0.342991
O1    O     O_R   0.550910 0.028760 0.500020 -0.599148
O2    O     O_R   0.471240 0.050910 0.000020 -0.600732
O3    O     O_R   0.949090 0.471240 0.000020 -0.579054
O4    O     O_R   0.528760 0.949090 0.000020 -0.617450
O5    O     O_R   0.949090 0.528760 0.999980 -0.578994
O6    O     O_R   0.528760 0.050910 0.999980 -0.599475
O7    O     O_R   0.050910 0.471240 0.999980 -0.599979
O8    O     O_R   0.471240 0.949090 0.999980 -0.551192
O9    O     O_R   0.500010 0.028760 0.563150 -0.595538
O10   O     O_R   0.971240 0.500010 0.563150 -0.572937
O11   O     O_R   0.499990 0.971240 0.563150 -0.585563
O12   O     O_R   0.971240 0.550910 0.500020 -0.550104
O13   O     O_R   0.028760 0.499990 0.563150 -0.601106
O14   O     O_R   0.499990 0.028760 0.436850 -0.596251
O15   O     O_R   0.028760 0.500010 0.436850 -0.601256
O16   O     O_R   0.500010 0.971240 0.436850 -0.586450
O17   O     O_R   0.971240 0.499990 0.436850 -0.572635
O18   O     O_R   0.000010 0.528760 0.063150 -0.577919
O19   O     O_R   0.471240 0.000010 0.063150 -0.586659
O20   O     O_R   0.999990 0.471240 0.063150 -0.598144
O21   O     O_R   0.528760 0.999990 0.063150 -0.596312
O22   O     O_R   0.999990 0.528760 0.936850 -0.598175
O23   O     O_R   0.449090 0.971240 0.500020 -0.551219
O24   O     O_R   0.528760 0.000010 0.936850 -0.595584
O25   O     O_R   0.000010 0.471240 0.936850 -0.578038
O26   O     O_R   0.471240 0.999990 0.936850 -0.585886
O27   O     O_R   1.000000 0.949030 0.535570 -0.614031
O28   O     O_R   0.050970 0.000000 0.535570 -0.615748
O29   O     O_R   0.000000 0.050970 0.535570 -0.613074
O30   O     O_R   0.949030 0.000000 0.535570 -0.616896
O31   O     O_R   1.000000 0.949030 0.464430 -0.613448
O32   O     O_R   0.949030 0.000000 0.464430 -0.616687
O33   O     O_R   1.000000 0.050970 0.464430 -0.614456
O34   O     O_R   0.028760 0.449090 0.500020 -0.621968
O35   O     O_R   0.050970 0.000000 0.464430 -0.617598
O36   O     O_R   0.500000 0.449030 0.035570 -0.614469
O37   O     O_R   0.550970 0.500000 0.035570 -0.614490
O38   O     O_R   0.500000 0.550970 0.035570 -0.619295
O39   O     O_R   0.449030 0.500000 0.035570 -0.613773
O40   O     O_R   0.500000 0.449030 0.964430 -0.619080
O41   O     O_R   0.449030 0.500000 0.964430 -0.614455
O42   O     O_R   0.500000 0.550970 0.964430 -0.613258
O43   O     O_R   0.550970 0.500000 0.964430 -0.612990
O44   O     O_2   0.878516 0.926795 0.424488 -0.544254
O45   O     O_R   0.449090 0.028760 0.499980 -0.617506
O46   O     O_2   0.085242 0.881533 0.448488 -0.549420
O47   O     O_2   0.122667 0.069137 0.419879 -0.544554
O48   O     O_2   0.916486 0.123105 0.452072 -0.545033
O49   O     O_2   0.120192 0.931389 0.583279 -0.547222
O50   O     O_2   0.916978 0.876933 0.549076 -0.545319
O51   O     O_2   0.879049 0.073507 0.575122 -0.544004
O52   O     O_2   0.085900 0.118346 0.550296 -0.549426
O53   O     O_2   0.378961 0.419510 0.939012 -0.548243
O54   O     O_2   0.572425 0.377923 0.923976 -0.542544
O55   O     O_2   0.620360 0.586819 0.958490 -0.548033
O56   O     O_R   0.028760 0.550910 0.499980 -0.621596
O57   O     O_2   0.429822 0.619253 0.918545 -0.548117
O58   O     O_2   0.620776 0.413423 0.042132 -0.546597
O59   O     O_2   0.426814 0.379617 0.075160 -0.545948
O60   O     O_2   0.379273 0.580474 0.060656 -0.548826
O61   O     O_2   0.569894 0.623479 0.079535 -0.543096
O62   O     O_2   0.617211 0.930102 0.421483 -0.601799
O63   O     O_R   0.576491 0.970801 0.409744 -0.822423
O64   O     O_2   0.984603 0.617265 0.377935 -0.609219
O65   O     O_R   0.957708 0.575223 0.417492 -0.787011
O66   O     O_2   0.379581 0.053553 0.405040 -0.604686
O67   O     O_R   0.550910 0.971240 0.499980 -0.600276
O68   O     O_R   0.421445 0.013149 0.406719 -0.821679
O69   O     O_2   0.047312 0.383090 0.397627 -0.602119
O70   O     O_R   0.004458 0.422233 0.403610 -0.818986
O71   O     O_2   0.387169 0.980324 0.621962 -0.608067
O72   O     O_R   0.424136 0.949952 0.577730 -0.774641
O73   O     O_2   0.048408 0.617099 0.601794 -0.602454
O74   O     O_R   0.005732 0.577658 0.596218 -0.819255
O75   O     O_2   0.617441 0.069859 0.578840 -0.603187
O76   O     O_R   0.576740 0.029084 0.590269 -0.817352
O77   O     O_2   0.985556 0.382727 0.622145 -0.609135
O78   O     O_R   0.971240 0.449090 0.499980 -0.549813
O79   O     O_R   0.958305 0.424670 0.582701 -0.787467
O80   O     O_2   0.117671 0.565811 0.915990 -0.601948
O81   O     O_R   0.076052 0.525404 0.908380 -0.821886
O82   O     O_2   0.569544 0.117575 0.921715 -0.605774
O83   O     O_R   0.528890 0.076685 0.910005 -0.816505
O84   O     O_2   0.881789 0.496574 0.878488 -0.608316
O85   O     O_R   0.924604 0.466501 0.912440 -0.793419
O86   O     O_2   0.479403 0.886787 0.877919 -0.608208
O87   O     O_R   0.449381 0.923943 0.922355 -0.774490
O88   O     O_2   0.882697 0.503159 0.121522 -0.608360
O89   O     O_R   0.050910 0.528760 0.000020 -0.600053
O90   O     O_R   0.924881 0.533947 0.087498 -0.792481
O91   O     O_2   0.430386 0.117224 0.078933 -0.603962
O92   O     O_R   0.471224 0.076595 0.090389 -0.821782
O93   O     O_2   0.117865 0.434350 0.084299 -0.601535
O94   O     O_R   0.076271 0.474729 0.091653 -0.821793
O95   O     O_2   0.554416 0.879786 0.094260 -0.605214
O96   O     O_R   0.514006 0.921655 0.093124 -0.821680
Zn1   Zn    Zn3+2 0.500000 0.038400 0.500000 1.038985
Zn2   Zn    Zn3+2 0.000000 0.000000 0.452390 0.997134
Zn3   Zn    Zn3+2 0.500000 0.500000 0.047610 0.997972
Zn4   Zn    Zn3+2 0.500000 0.500000 0.952390 0.999560
Zn5   Zn    Zn3+2 0.961600 0.500000 0.500000 1.091545
Zn6   Zn    Zn3+2 0.500000 0.961600 0.500000 1.068061
Zn7   Zn    Zn3+2 0.038400 0.500000 0.500000 1.030902
Zn8   Zn    Zn3+2 1.000000 0.538400 0.000000 1.056863
Zn9   Zn    Zn3+2 0.461600 0.000000 0.000000 1.067411
Zn10  Zn    Zn3+2 0.000000 0.461600 0.000000 1.057046
Zn11  Zn    Zn3+2 0.538400 0.000000 0.000000 1.037266
Zn12  Zn    Zn3+2 0.000000 0.000000 0.547610 0.998905

loop_
_geom_bond_atom_site_label_1
_geom_bond_atom_site_label_2
_ccdc_geom_bond_type
C113  C177  A    
C7    C168  S    
C52   C70   A    
C158  H42   S    
C153  C166  A    
C141  H25   S    
C16   O39   A    
C123  O63   S    
C58   C97   A    
C198  C216  A    
H93   O90   S    
C152  C165  A    
C8    O27   A    
C188  H54   S    
C149  H32   S    
C4    C194  A    
C189  H55   S    
C140  C212  S    
C143  H27   S    
C54   C107  S    
C11   O30   A    
O25   Zn10  S    
C185  H51   S    
H83   O70   S    
C186  H52   S    
C183  H49   S    
O23   Zn6   S    
C117  H73   S    
C64   C118  S    
C91   C173  S    
C112  C215  S    
C211  C218  A    
C120  H76   S    
C76   H67   S    
C107  O47   D    
C53   C106  S    
C95   C177  S    
C13   C172  A    
H86   O76   S    
C127  O69   D    
C116  O54   D    
C183  C224  A    
C61   C115  S    
C59   C111  S    
C84   H6    S    
O34   Zn7   S    
C130  C202  S    
C2    C171  A    
C20   C29   S    
C155  H39   S    
C22   O19   A    
C122  O61   D    
C146  H30   S    
C35   C172  A    
C113  C155  A    
C18   O13   A    
C109  H66   S    
O3    Zn10  S    
C205  C218  A    
C67   C85   A    
C106  H63   S    
C148  O23   A    
C21   O18   A    
C133  O82   D    
C82   H4    S    
C185  C202  A    
O22   Zn8   S    
O12   Zn5   S    
C90   C153  A    
C131  C204  S    
H82   O68   S    
C3    C164  S    
O27   Zn12  S    
C123  C196  S    
O31   Zn2   S    
C214  H9    S    
C37   C45   S    
C53   C71   A    
C179  H46   S    
C44   C50   T    
C150  C161  A    
C77   C91   A    
C58   C110  S    
C182  C199  A    
C139  O94   S    
C115  O53   D    
C23   O22   A    
C125  O64   D    
C137  O88   D    
C206  C219  A    
C109  O49   D    
C78   C92   A    
C9    O35   A    
C68   C151  A    
C23   C32   S    
O78   Zn5   S    
C146  C164  A    
C113  H21   S    
C147  H31   S    
C138  C210  S    
C180  C224  A    
O11   Zn6   S    
C84   C93   A    
C160  C168  A    
C124  H22   S    
C10   C99   S    
C3    C182  A    
C180  H47   S    
C180  C198  A    
C86   C95   A    
C71   C88   A    
C142  C177  A    
C162  C223  S    
C18   O10   A    
O33   Zn2   S    
O17   Zn5   S    
C14   O37   A    
C149  C162  A    
C5    C188  A    
C80   C93   A    
C143  C161  A    
C108  O48   D    
O56   Zn7   S    
C118  O57   D    
C11   O32   A    
C9    C98   S    
C135  C157  A    
C2    C144  A    
C60   C114  S    
C85   H7    S    
C21   O20   A    
C13   C145  A    
C151  H35   S    
C203  O8    A    
C31   C40   T    
C62   C116  S    
C33   C42   T    
C62   C80   A    
O28   Zn12  S    
C178  H44   S    
C40   C49   S    
C87   C169  S    
C170  O89   A    
C9    O28   A    
C119  O58   D    
C138  O92   S    
O9    Zn1   S    
C20   O15   A    
C156  H40   S    
C6    C191  A    
C32   C41   T    
C7    C190  A    
C153  H37   S    
C129  C201  S    
C126  C198  S    
C132  C205  S    
C193  H59   S    
C88   C171  S    
C161  C222  S    
C194  H60   S    
C70   C87   A    
C148  C216  S    
O16   Zn6   S    
C85   C92   A    
C137  O90   S    
C187  H53   S    
C12   O36   A    
C118  H74   S    
C115  H71   S    
C159  O34   A    
C16   C100  S    
C111  O51   D    
C145  C163  A    
C92   C174  S    
C133  C206  S    
C46   H15   S    
C178  C196  A    
C93   C175  S    
C210  C219  A    
C132  O80   D    
O35   Zn2   S    
C114  O52   D    
C68   H17   S    
C130  O76   S    
C187  C205  A    
O7    Zn10  S    
C5    C166  S    
O43   Zn4   S    
C19   C28   S    
C76   C87   A    
C75   H56   S    
C191  C209  A    
C181  O6    A    
C52   C105  S    
C117  O55   D    
C140  O95   D    
C141  C174  A    
C61   C100  A    
C59   C96   A    
C65   C103  A    
C56   C109  S    
C64   C104  A    
C121  O60   D    
C82   C95   A    
C129  O74   S    
C119  H75   S    
C127  C199  S    
O40   Zn4   S    
C68   C173  A    
C77   H78   S    
C124  C176  A    
O39   Zn3   S    
C183  C200  A    
H95   O94   S    
C190  H57   S    
C55   C108  S    
C53   C97   A    
C86   H8    S    
C128  O72   S    
C195  C212  A    
O89   Zn8   S    
C147  C163  A    
C20   O17   A    
H80   O63   S    
C81   C94   A    
C14   C103  S    
C101  C154  A    
O19   Zn9   S    
C6    C189  A    
C200  C216  A    
O32   Zn2   S    
C30   C39   T    
C105  O44   D    
C55   C73   A    
C46   C149  A    
C158  C165  A    
C151  C164  A    
C128  O71   D    
O1    Zn1   S    
C126  O66   D    
C80   H2    S    
C59   C76   A    
C25   O24   A    
C24   H13   S    
C25   C33   S    
C79   C152  A    
C62   C102  A    
C11   C96   S    
C184  C223  A    
C182  H48   S    
C192  O3    A    
C111  H69   S    
C10   O33   A    
C199  C217  A    
C163  C224  S    
C188  C206  A    
C207  C220  A    
C150  H33   S    
C63   C117  S    
C69   C104  A    
C131  O79   S    
C4    C165  S    
C106  O46   D    
H88   O81   S    
C101  H20   S    
O30   Zn12  S    
C2    H10   S    
O67   Zn6   S    
O38   Zn3   S    
C1    O67   A    
C181  C219  S    
C136  O86   D    
C184  C201  A    
C126  O68   S    
C134  O84   D    
C13   H11   S    
C203  O4    A    
O24   Zn11  S    
C79   C174  A    
C145  H29   S    
C24   C173  A    
H91   O85   S    
C15   O38   A    
C184  H50   S    
C19   O16   A    
C56   C74   A    
C34   C43   S    
C122  H79   S    
C125  O65   S    
O37   Zn3   S    
H87   O79   S    
C139  O93   D    
C63   C103  A    
C136  C208  S    
C73   H34   S    
C83   H5    S    
C83   C94   A    
C90   C175  A    
H85   O74   S    
C137  C209  S    
H92   O87   S    
O6    Zn11  S    
C128  C200  S    
C154  H38   S    
C127  O70   S    
C45   C49   T    
C155  C168  A    
C159  O78   A    
C65   C119  S    
C195  H61   S    
C25   O26   A    
C132  O81   S    
C12   O40   A    
C185  C222  A    
C1    C213  S    
C7    C195  A    
C41   C50   S    
O41   Zn4   S    
C72   H23   S    
C5    C193  A    
C110  H68   S    
C116  H72   S    
C191  H58   S    
C1    O1    A    
C23   O25   A    
C133  O83   S    
C27   C36   T    
C157  H41   S    
C21   C30   S    
C110  O50   D    
C131  O77   D    
O8    Zn9   S    
O5    Zn8   S    
C24   C146  A    
C17   O9    A    
C181  O2    A    
C43   C51   T    
C8    O31   A    
H81   O65   S    
C189  C207  A    
O26   Zn9   S    
O36   Zn3   S    
C202  C213  A    
C141  C158  A    
C112  O56   A    
C123  O62   D    
O45   Zn1   S    
C192  O5    A    
C94   C176  S    
C39   C48   S    
C19   O14   A    
O29   Zn12  S    
C142  H26   S    
C66   C102  A    
O2    Zn9   S    
C70   H1    S    
C56   C98   A    
C60   C99   A    
C136  O87   S    
C193  C210  A    
O18   Zn8   S    
C169  C214  A    
O21   Zn11  S    
C16   O41   A    
C63   C81   A    
C17   C26   S    
C69   C122  S    
C74   C89   A    
C14   O43   A    
O20   Zn10  S    
O4    Zn11  S    
C65   C83   A    
C148  O45   A    
C46   C171  A    
C203  C221  S    
C79   H18   S    
C201  C215  A    
C194  C211  A    
C26   C34   T    
C28   C37   T    
C159  C217  S    
C4    C187  A    
C67   C121  S    
O42   Zn4   S    
C15   C104  S    
C197  C215  A    
C42   C51   S    
C144  H28   S    
C125  C197  S    
C78   H89   S    
C66   C120  S    
C90   H19   S    
C140  O96   S    
C35   H14   S    
C74   H45   S    
C170  O7    A    
C58   C75   A    
C57   C169  A    
C212  C221  A    
C60   C77   A    
C22   C31   S    
C129  O73   D    
C73   C91   A    
C17   O11   A    
H90   O83   S    
C179  C197  A    
C156  C167  A    
C139  C211  S    
C208  C221  A    
C121  H77   S    
C179  C223  A    
C135  C175  A    
C138  O91   D    
C29   C38   T    
C8    C97   S    
C12   C102  S    
C108  H65   S    
C152  H36   S    
C47   C48   T    
C61   C78   A    
C57   C150  A    
H96   O96   S    
C186  C204  A    
C35   C147  A    
C71   H12   S    
C64   C82   A    
C38   C47   S    
O14   Zn1   S    
C143  C214  A    
C67   C100  A    
C15   O42   A    
C190  C208  A    
C124  C156  A    
H84   O72   S    
C192  C220  S    
C55   C99   A    
C3    C186  A    
C22   O21   A    
C6    C167  S    
C81   H3    S    
C144  C162  A    
C209  C220  A    
C135  H24   S    
C54   C98   A    
C18   C27   S    
C89   C172  S    
C142  C160  A    
C157  C166  A    
C114  H70   S    
O13   Zn7   S    
C105  H62   S    
C120  O59   D    
C204  C217  A    
O15   Zn7   S    
C107  H64   S    
C196  C213  A    
C134  C207  S    
C130  O75   D    
H94   O92   S    
C52   C96   A    
O10   Zn5   S    
C154  C167  A    
C57   H16   S    
C36   C44   S    
C112  O12   A    
C66   C84   A    
C75   C88   A    
C54   C72   A    
C160  H43   S    
C178  C222  A    
C101  C176  A    
C72   C89   A    
C10   O29   A    
C134  O85   S    
C69   C86   A    
C170  C218  S    
