data_mof_unit_9964.cif
_audit_creation_date              2012-12-10T20:42:40-0500
_audit_creation_method            fapswitch 2.2
_symmetry_space_group_name_H-M    P1
_symmetry_Int_Tables_number       1
_space_group_crystal_system       triclinic
_cell_length_a                    8.905957
_cell_length_b                    10.66316
_cell_length_c                    9.89128
_cell_angle_alpha                 90.144797
_cell_angle_beta                  90.17608
_cell_angle_gamma                 90.296868
_cell_volume                      939.311697677

loop_
_atom_site_label
_atom_site_type_symbol
_atom_type_description
_atom_site_fract_x
_atom_site_fract_y
_atom_site_fract_z
_atom_type_partial_charge
C1    C     C_R   0.507499 0.260321 0.499947 0.925689
C2    C     C_R   0.608951 0.934049 0.399447 0.004273
C3    C     C_R   0.530192 0.871341 0.502934 -0.162966
C4    C     C_R   0.482887 0.936727 0.616316 0.147209
C5    C     C_3   0.338297 0.929280 0.692284 -0.439306
C6    C     C_3   0.339042 0.071556 0.692235 -0.462436
C7    C     C_R   0.415785 0.414441 0.070577 0.247037
C8    C     C_R   0.593380 0.576408 0.073025 -0.165350
C9    C     C_R   0.593542 0.576889 0.929502 0.408369
C10   C     C_R   0.415723 0.414479 0.928236 0.141006
C11   C     C_3   0.249234 0.399931 0.922260 -0.479955
C12   C     C_R   0.218793 0.499890 0.499858 0.912691
C13   C     C_3   0.249384 0.399569 0.075773 -0.470684
C14   C     C_R   0.506299 0.739773 0.500185 0.923471
C15   C     C_R   0.781223 0.500107 0.500146 0.953769
C16   C     C_1   0.065427 0.499933 0.499822 -0.183964
C17   C     C_1   0.934588 0.500019 0.500204 -0.147820
C18   C     C_R   0.483460 0.063966 0.616030 0.097513
C19   C     C_R   0.531690 0.128930 0.502511 -0.224014
C20   C     C_R   0.610466 0.065478 0.399416 0.326456
H1    H     H_    0.214618 0.308562 0.877440 0.207741
H2    H     H_    0.192574 0.482497 0.120353 0.224448
H3    H     H_    0.215381 0.307825 0.119483 0.219198
H4    H     H_    0.245447 0.887511 0.631331 0.195630
H5    H     H_    0.353387 0.888410 0.794696 0.228110
H6    H     H_    0.246467 0.112955 0.631520 0.199199
H7    H     H_    0.354875 0.112784 0.794652 0.217687
H8    H     H_    0.666590 0.639651 0.128274 0.186369
H9    H     H_    0.192588 0.483212 0.878411 0.233702
N1    N     N_R   0.499010 0.499140 0.142800 -0.127741
N2    N     N_R   0.499010 0.499180 0.857150 -0.141476
O1    O     O_R   0.500020 0.316790 0.614690 -0.622613
O2    O     O_R   0.500000 0.316760 0.385350 -0.566746
O3    O     O_R   0.285350 0.500020 0.614650 -0.622864
O4    O     O_R   0.285340 0.499980 0.385310 -0.623985
O5    O     O_R   0.500000 0.683240 0.614650 -0.577671
O6    O     O_R   0.499980 0.683210 0.385310 -0.612429
O7    O     O_R   0.714660 0.500020 0.614690 -0.572376
O8    O     O_R   0.714650 0.499980 0.385350 -0.603134
Zn1   Zn    Zn3+2 0.500010 0.500020 0.653130 1.002207
Zn2   Zn    Zn3+2 0.499990 0.499980 0.346870 0.992572
Cl1   Cl    Cl    0.708025 0.146392 0.270288 -0.623683
N3    N     N_3   0.682949 0.864664 0.294762 -0.422416
H10   H     H_    0.796898 0.888685 0.295729 0.224984
H11   H     H_    0.637243 0.890759 0.201556 0.236383
Cl2   Cl    Cl    0.714162 0.682201 0.847262 -0.602086

loop_
_geom_bond_atom_site_label_1
_geom_bond_atom_site_label_2
_ccdc_geom_bond_type
C7    C10   A    
C20   Cl1   S    
N3    H10   S    
C15   O7    A    
O4    Zn2   S    
C3    C14   S    
C11   C13   S    
C19   C20   A    
C6    H7    S    
C7    C13   S    
C2    N3    S    
O2    Zn2   S    
C8    N1    A    
C2    C3    A    
C4    C18   A    
C9    Cl2   S    
N1    Zn2   S    
C7    N1    A    
C14   O6    A    
O7    Zn1   S    
N3    H11   S    
C15   O8    A    
C6    H6    S    
C5    H4    S    
O3    Zn1   S    
C13   H3    S    
C13   H2    S    
O1    Zn1   S    
O6    Zn2   S    
C5    C6    S    
C8    H8    S    
C6    C18   S    
C5    H5    S    
C1    C19   S    
C16   C17   T    
C10   C11   S    
C9    N2    A    
C1    O2    A    
C3    C4    A    
O5    Zn1   S    
N2    Zn1   S    
C11   H9    S    
O8    Zn2   S    
C18   C19   A    
C15   C17   S    
C2    C20   A    
C8    C9    A    
C14   O5    A    
C12   O3    A    
C10   N2    A    
C11   H1    S    
C1    O1    A    
C12   C16   S    
C4    C5    S    
C12   O4    A    
