data_mof_unit_25770.cif
_audit_creation_date              2012-12-10T16:59:20-0500
_audit_creation_method            fapswitch 2.2
_symmetry_space_group_name_H-M    P1
_symmetry_Int_Tables_number       1
_space_group_crystal_system       triclinic
_cell_length_a                    7.742001
_cell_length_b                    8.548671
_cell_length_c                    27.715272
_cell_angle_alpha                 90.902386
_cell_angle_beta                  86.172525
_cell_angle_gamma                 93.67742
_cell_volume                      1826.32169287

loop_
_atom_site_label
_atom_site_type_symbol
_atom_type_description
_atom_site_fract_x
_atom_site_fract_y
_atom_site_fract_z
_atom_type_partial_charge
C1    C     C_R   0.545876 0.794822 0.498700 0.997001
C2    C     C_R   0.509343 0.641034 0.128260 -0.021475
C3    C     C_R   0.512731 0.511512 0.646250 -0.119914
C4    C     C_R   0.487205 0.488412 0.353741 -0.120235
C5    C     C_R   0.533558 0.642540 0.025985 0.047588
C6    C     C_R   0.464735 0.356911 0.974022 0.047470
C7    C     C_R   0.449775 0.358076 0.025293 0.048037
C8    C     C_R   0.549167 0.641255 0.974721 0.047922
C9    C     C_R   0.485269 0.500703 0.050919 0.073122
C10   C     C_R   0.513397 0.498694 0.949091 0.073149
C11   C     C_R   0.563966 0.781497 0.053488 -0.226273
C12   C     C_R   0.454123 0.205178 0.501297 0.996634
C13   C     C_R   0.433273 0.218151 0.946505 -0.226319
C14   C     C_R   0.552772 0.780210 0.103554 -0.136302
C15   C     C_R   0.444502 0.219489 0.896438 -0.136343
C16   C     C_R   0.503656 0.504489 0.593811 0.919380
C17   C     C_R   0.496339 0.495493 0.406185 0.919004
C18   C     C_R   0.600637 0.778015 0.947896 -0.226004
C19   C     C_R   0.399374 0.221122 0.052134 -0.225852
C20   C     C_2   0.570138 0.958301 0.497900 -0.341559
C21   C     C_2   0.429862 0.041699 0.502092 -0.342231
C22   C     C_R   0.580313 0.634997 0.821928 0.517810
C23   C     C_R   0.525705 0.498067 0.897817 -0.049461
C24   C     C_R   0.419486 0.364332 0.178093 0.517907
C25   C     C_R   0.494501 0.361925 0.821221 0.514820
C26   C     C_R   0.503886 0.637690 0.178775 0.514692
C27   C     C_R   0.644558 0.419816 0.716498 -0.050751
C28   C     C_R   0.354466 0.579265 0.283528 -0.050270
C29   C     C_R   0.635457 0.423242 0.666745 -0.200285
C30   C     C_R   0.363810 0.575998 0.333274 -0.199702
C31   C     C_R   0.399913 0.600858 0.676368 -0.069732
C32   C     C_R   0.600495 0.399618 0.323591 -0.069556
C33   C     C_R   0.407559 0.592107 0.726440 -0.140634
C34   C     C_R   0.473092 0.501352 0.102194 -0.049511
C35   C     C_R   0.592573 0.408216 0.273524 -0.140848
C36   C     C_R   0.529830 0.503152 0.746343 0.274251
C37   C     C_R   0.469612 0.496468 0.253656 0.274257
C38   C     C_2   0.281180 0.711011 0.657202 0.945895
C39   C     C_2   0.720077 0.290180 0.342714 0.945972
C40   C     C_R   0.573701 0.637224 0.872454 -0.024658
C41   C     C_R   0.425881 0.362074 0.127568 -0.024630
C42   C     C_R   0.612232 0.775686 0.897830 -0.138974
C43   C     C_R   0.388018 0.223454 0.102202 -0.138951
C44   C     C_R   0.488835 0.358534 0.871740 -0.021580
H1    H     H_    0.014028 0.383139 0.463426 0.201592
H2    H     H_    0.739904 0.351656 0.731944 0.161828
H3    H     H_    0.579314 0.889439 0.122853 0.195054
H4    H     H_    0.417271 0.110399 0.877132 0.195257
H5    H     H_    0.597120 0.894506 0.037768 0.141051
H6    H     H_    0.399008 0.105295 0.962206 0.141445
H7    H     H_    0.633911 0.889959 0.964159 0.142300
H8    H     H_    0.367063 0.108955 0.035889 0.141836
H9    H     H_    0.702569 0.009450 0.493834 0.172462
H10   H     H_    0.297431 0.990550 0.506158 0.172437
H11   H     H_    0.242557 0.872552 0.607318 0.339848
H12   H     H_    0.985972 0.616862 0.536573 0.201656
H13   H     H_    0.759860 0.128709 0.392508 0.339802
H14   H     H_    0.321795 0.658130 0.750328 0.178865
H15   H     H_    0.678683 0.342609 0.249616 0.178646
H16   H     H_    0.650809 0.883905 0.879063 0.193600
H17   H     H_    0.350194 0.115109 0.120977 0.193334
H18   H     H_    0.275833 0.643961 0.355811 0.171962
H19   H     H_    0.723057 0.354852 0.644223 0.171878
H20   H     H_    0.258599 0.646884 0.268105 0.161710
N1    N     N_R   0.537684 0.499307 0.797571 -0.355143
N2    N     N_R   0.461523 0.500194 0.202435 -0.355187
N3    N     N_2   0.950320 0.457960 0.486880 -0.175038
N4    N     N_2   0.049680 0.542040 0.513120 -0.175035
O1    O     O_R   0.389250 0.738570 0.503220 -0.602267
O2    O     O_2   0.372486 0.231832 0.202824 -0.524466
O3    O     O_2   0.543875 0.769870 0.204064 -0.533072
O4    O     O_2   0.453916 0.229916 0.795918 -0.533274
O5    O     O_2   0.138910 0.727056 0.678000 -0.610244
O6    O     O_R   0.334435 0.801337 0.616613 -0.797340
O7    O     O_2   0.862623 0.275227 0.321948 -0.610688
O8    O     O_R   0.667365 0.199287 0.383221 -0.796965
O9    O     O_R   0.610750 0.261430 0.496780 -0.602242
O10   O     O_R   0.678390 0.711630 0.494810 -0.637226
O11   O     O_R   0.321610 0.288370 0.505190 -0.637240
O12   O     O_R   0.355440 0.513440 0.575450 -0.598607
O13   O     O_R   0.644560 0.486560 0.424550 -0.598541
O14   O     O_R   0.644590 0.486500 0.567040 -0.631242
O15   O     O_R   0.355410 0.513500 0.432960 -0.631329
O16   O     O_2   0.628116 0.767362 0.797211 -0.524742
Zn1   Zn    Zn3+2 0.306940 0.517990 0.505620 0.975200
Zn2   Zn    Zn3+2 0.693060 0.482010 0.494380 0.975262

loop_
_geom_bond_atom_site_label_1
_geom_bond_atom_site_label_2
_ccdc_geom_bond_type
C29   H19   S    
C33   H14   S    
N4    Zn1   S    
C27   C29   A    
C24   O2    S    
H13   O8    S    
C35   C37   A    
C15   C44   A    
C5    C11   A    
C18   C42   A    
C21   H10   S    
C11   C14   A    
C23   C40   A    
C12   O11   A    
C33   C36   A    
C35   H15   S    
C32   C39   S    
C3    C29   A    
H11   O6    S    
C19   H8    S    
N3    Zn2   S    
H1    N3    S    
C31   C33   A    
C39   O7    D    
O13   Zn2   S    
C24   N2    A    
C2    C34   A    
C40   C42   A    
C37   N2    S    
C1    O10   A    
C41   C43   A    
C34   C41   A    
C24   C41   A    
C15   H4    S    
C25   C44   A    
C19   C43   A    
C18   H7    S    
C6    C7    A    
N3    N4    D    
C26   N2    A    
C32   C35   A    
C25   N1    A    
C42   H16   S    
C36   N1    S    
H12   N4    S    
C12   C21   S    
C1    O1    A    
C23   C44   A    
C16   O12   A    
C22   O16   S    
C22   N1    A    
C5    C9    A    
O12   Zn1   S    
C11   H5    S    
C22   C40   A    
C12   O9    A    
C16   O14   A    
C2    C26   A    
C25   O4    S    
C39   O8    S    
C3    C31   A    
C4    C32   A    
C4    C17   S    
C28   H20   S    
C27   H2    S    
O15   Zn1   S    
O9    Zn2   S    
C7    C19   A    
C13   C15   A    
C9    C34   A    
C27   C36   A    
O11   Zn1   S    
O1    Zn1   S    
C43   H17   S    
C38   O6    S    
C7    C9    A    
C1    C20   S    
C20   H9    S    
C6    C10   A    
C5    C8    A    
C14   H3    S    
C10   C23   A    
C31   C38   S    
C30   H18   S    
O14   Zn2   S    
C6    C13   A    
O10   Zn2   S    
C26   O3    S    
C28   C37   A    
C28   C30   A    
C17   O13   A    
C2    C14   A    
C8    C18   A    
C13   H6    S    
C20   C21   D    
C8    C10   A    
C17   O15   A    
C4    C30   A    
C3    C16   S    
C38   O5    D    
