data_mof_unit_67535.cif
_audit_creation_date              2013-03-05T15:41:21-0500
_audit_creation_method            fapswitch 2.2
_symmetry_space_group_name_H-M    P1
_symmetry_Int_Tables_number       1
_space_group_crystal_system       triclinic
_cell_length_a                    10.77045
_cell_length_b                    8.776868
_cell_length_c                    7.58862
_cell_angle_alpha                 102.852063
_cell_angle_beta                  96.589273
_cell_angle_gamma                 94.319429
_cell_volume                      690.990692805

loop_
_atom_site_label
_atom_site_type_symbol
_atom_site_description
_atom_site_fract_x
_atom_site_fract_y
_atom_site_fract_z
_atom_type_partial_charge
O1    O     O_R   0.509190 0.286130 0.619780 -0.605882
O2    O     O_R   0.490810 0.713870 0.380220 -0.605884
O3    O     O_R   0.485310 0.256770 0.308360 -0.533635
O4    O     O_R   0.514690 0.743230 0.691640 -0.533649
C1    C     C_R   0.494828 0.200671 0.454132 0.891362
C2    C     C_R   0.505169 0.799329 0.545868 0.891366
O5    O     O_R   0.328790 0.514640 0.655680 -0.591167
O6    O     O_R   0.671210 0.485360 0.344320 -0.591162
O7    O     O_R   0.304910 0.485280 0.344260 -0.558112
O8    O     O_R   0.695090 0.514720 0.655740 -0.558109
C3    C     C_R   0.259828 0.497306 0.499012 0.877579
C4    C     C_R   0.740172 0.502695 0.500988 0.877579
Cu1   Cu    Cu3+1 0.514140 0.517380 0.684380 1.009162
Cu2   Cu    Cu3+1 0.485860 0.482620 0.315620 1.009164
N1    N     N_2   0.464560 0.456420 0.038510 -0.075413
N2    N     N_2   0.535440 0.543580 0.961490 -0.075414
C5    C     C_3   0.050452 0.461150 0.651686 0.081631
C6    C     C_3   0.949548 0.538852 0.348314 0.081626
C7    C     C_3   0.948100 0.358542 0.505108 -0.104225
C8    C     C_3   0.051899 0.641460 0.494892 -0.104227
C9    C     C_3   0.876577 0.503740 0.500618 -0.144593
C10   C     C_3   0.123423 0.496262 0.499382 -0.144587
C11   C     C_3   0.978674 0.606363 0.646764 -0.085337
C12   C     C_3   0.021326 0.393639 0.353237 -0.085337
C13   C     C_2   0.474484 0.033260 0.432476 -0.305326
C14   C     C_2   0.525508 0.966740 0.567526 -0.305310
C15   C     C_2   0.893176 0.194373 0.496723 0.953242
O9    O     O_2   0.936288 0.122468 0.606218 -0.553034
O10   O     O_R   0.795095 0.122759 0.359315 -0.718197
H1    H     H_    0.767596 0.010954 0.364503 0.325484
C16   C     C_2   0.106822 0.805630 0.503274 0.953210
O11   O     O_2   0.063709 0.877532 0.393765 -0.553024
O12   O     O_R   0.204905 0.877247 0.640686 -0.718182
H2    H     H_    0.232402 0.989055 0.635490 0.325475
C17   C     C_3   0.101160 0.412859 0.823442 -0.743580
H3    H     H_    0.021872 0.394612 0.898799 0.243368
H4    H     H_    0.141798 0.299878 0.786209 0.234858
H5    H     H_    0.172515 0.505144 0.909770 0.247626
C18   C     C_3   0.898840 0.587142 0.176557 -0.743558
H6    H     H_    0.978130 0.605387 0.101200 0.243364
H7    H     H_    0.827485 0.494858 0.090229 0.247627
H8    H     H_    0.858204 0.700125 0.213787 0.234862
C19   C     C_2   0.962353 0.736870 0.805121 0.864557
O13   O     O_2   0.052954 0.796184 0.918173 -0.568486
O14   O     O_R   0.846690 0.797260 0.816321 -0.757367
H9    H     H_    0.849548 0.888351 0.926029 0.378638
C20   C     C_2   0.037647 0.263132 0.194880 0.864550
O15   O     O_2   0.947047 0.203820 0.081825 -0.568492
O16   O     O_R   0.153307 0.202736 0.183686 -0.757361
H10   H     H_    0.150450 0.111645 0.073978 0.378648
C21   C     C_3   0.403581 0.307129 0.934775 -0.323688
H11   H     H_    0.472513 0.220951 0.917407 0.214367
H12   H     H_    0.333704 0.265237 0.013470 0.209224
H13   H     H_    0.351294 0.314172 0.805012 0.165588
C22   C     C_3   0.596405 0.692877 0.065227 -0.323673
H14   H     H_    0.666258 0.734806 0.986514 0.209252
H15   H     H_    0.527455 0.779032 0.082633 0.214349
H16   H     H_    0.648716 0.685828 0.194975 0.165578
C23   C     C_2   0.381943 0.948376 0.269206 0.890795
O17   O     O_2   0.381105 0.987543 0.124103 -0.555914
O18   O     O_R   0.295015 0.826111 0.280369 -0.729833
H17   H     H_    0.242613 0.775122 0.158991 0.366293
C24   C     C_2   0.618045 0.051626 0.730799 0.890805
O19   O     O_2   0.618873 0.012468 0.875905 -0.555930
O20   O     O_R   0.704983 0.173878 0.719631 -0.729828
H18   H     H_    0.757382 0.224871 0.841011 0.366294

loop_
_geom_bond_atom_site_label_1
_geom_bond_atom_site_label_2
_geom_bond_distance
_ccdc_geom_bond_type
C1    C13   1.438680 S    
C21   H12   1.103356 S    
O7    Cu2   1.986920 S    
C16   O12   1.397862 S    
O10   H1    1.014051 S    
C21   H11   1.096978 S    
N1    C21   1.435540 S    
C15   O10   1.397829 S    
C6    C9    1.542369 S    
C7    C15   1.500781 S    
C3    C10   1.468809 S    
C5    C10   1.542370 S    
C14   C24   1.509191 S    
O6    C4    1.299288 A    
C6    C18   1.514606 S    
C21   H13   1.093476 S    
C15   O9    1.221965 D    
C12   C20   1.501168 S    
C22   H14   1.103389 S    
C24   O20   1.393764 S    
O12   H2    1.014084 S    
N2    C22   1.435539 S    
C23   O17   1.223653 D    
C18   H7    1.109273 S    
C22   H15   1.096999 S    
C2    C14   1.438678 S    
Cu1   Cu2   2.725318 S    
O5    C3    1.299288 A    
C19   O14   1.394180 S    
C5    C11   1.544798 S    
O3    Cu2   1.970274 S    
O8    C4    1.307460 A    
O2    C2    1.298124 A    
O1    C1    1.298122 A    
C4    C9    1.468807 S    
C10   C12   1.541742 S    
C20   O16   1.394179 S    
C5    C7    1.544969 S    
C8    C10   1.542661 S    
O8    Cu1   1.986920 S    
C7    C12   1.541128 S    
C18   H8    1.106273 S    
C6    C8    1.544970 S    
O7    C3    1.307461 A    
C19   O13   1.221432 D    
O18   H17   1.013162 S    
O2    Cu2   1.974262 S    
C6    C12   1.544798 S    
C23   O18   1.393768 S    
O1    Cu1   1.974261 S    
C24   O19   1.223649 D    
N1    N2    1.312616 D    
C20   O15   1.221433 D    
O14   H9    1.013683 S    
O5    Cu1   1.980881 S    
C17   H5    1.109272 S    
C11   C19   1.501169 S    
O4    C2    1.304040 A    
O20   H18   1.013162 S    
Cu1   N2    2.047885 S    
C18   H6    1.101888 S    
O16   H10   1.013682 S    
C22   H16   1.093499 S    
Cu2   N1    2.047886 S    
O6    Cu2   1.980883 S    
C13   C23   1.509193 S    
C17   H4    1.106271 S    
C13   C14   1.370559 D    
C7    C9    1.542660 S    
C8    C11   1.541128 S    
C9    C11   1.541743 S    
C8    C16   1.500787 S    
C16   O11   1.222035 D    
O4    Cu1   1.970275 S    
C5    C17   1.514603 S    
O3    C1    1.304042 A    
C17   H3    1.101887 S    
