data_mof_unit_15810.cif
_audit_creation_date              2012-12-10T18:31:56-0500
_audit_creation_method            fapswitch 2.2
_symmetry_space_group_name_H-M    P1
_symmetry_Int_Tables_number       1
_space_group_crystal_system       triclinic
_cell_length_a                    10.666751
_cell_length_b                    14.901971
_cell_length_c                    15.35133
_cell_angle_alpha                 81.803118
_cell_angle_beta                  89.54744
_cell_angle_gamma                 104.308472
_cell_volume                      2337.95997874

loop_
_atom_site_label
_atom_site_type_symbol
_atom_type_description
_atom_site_fract_x
_atom_site_fract_y
_atom_site_fract_z
_atom_type_partial_charge
C1    C     C_R   0.484289 0.441299 0.662603 0.900833
C2    C     C_R   0.556957 0.436095 0.901236 0.065943
C3    C     C_R   0.499497 0.340910 0.935754 0.148872
C4    C     C_R   0.741963 0.500294 0.500702 0.910331
C5    C     C_R   0.609725 0.501156 0.958245 0.040885
C6    C     C_R   0.579563 0.476450 0.048876 0.112566
C7    C     C_R   0.530442 0.380536 0.082945 -0.211690
C8    C     C_R   0.494350 0.313676 0.027195 -0.212999
C9    C     C_R   0.692614 0.589509 0.927544 -0.220203
C10   C     C_R   0.730075 0.657631 0.982745 0.193801
C11   C     C_R   0.671437 0.641306 0.069208 -0.022308
C12   C     C_3   0.121098 0.499693 0.495725 0.020377
C13   C     C_R   0.598138 0.548547 0.102059 0.010440
C14   C     C_R   0.681333 0.712247 0.124387 0.336311
C15   C     C_R   0.630331 0.688367 0.212088 0.341556
C16   C     C_R   0.522861 0.559140 0.336975 0.905730
C17   C     C_R   0.538231 0.529985 0.185921 -0.301398
C18   C     C_R   0.671606 0.835616 0.651423 0.118779
C19   C     C_R   0.655442 0.751294 0.618305 0.011017
C20   C     C_R   0.509185 0.792600 0.513864 -0.002370
C21   C     C_R   0.520487 0.879621 0.543070 -0.050564
C22   C     C_R   0.600945 0.899826 0.614826 0.100340
C23   C     C_3   0.056627 0.463177 0.410699 0.538815
C24   C     C_R   0.455219 0.946592 0.503374 0.056555
C25   C     C_R   0.473198 0.034028 0.535383 0.063778
C26   C     C_R   0.532345 0.043625 0.617531 0.164450
C27   C     C_R   0.602921 0.980629 0.651939 -0.191831
C28   C     C_R   0.258216 0.500446 0.497275 0.868764
C29   C     C_R   0.372393 0.929174 0.432729 -0.184055
C30   C     C_R   0.317054 0.997492 0.390507 -0.181975
C31   C     C_R   0.348840 0.087165 0.413035 0.155036
C32   C     C_R   0.430728 0.107405 0.483695 0.009404
C33   C     C_R   0.302802 0.157809 0.363674 -0.280188
C34   C     C_3   0.105524 0.600404 0.500899 -0.458742
C35   C     C_R   0.341619 0.248484 0.382954 0.071996
C36   C     C_R   0.474273 0.202057 0.495035 -0.063914
C37   C     C_3   0.907345 0.434676 0.584823 0.521630
C38   C     C_3   0.052825 0.435414 0.579879 -0.421083
C39   C     C_3   0.913401 0.467643 0.413663 -0.469439
C40   C     C_3   0.963439 0.601499 0.499022 -0.410546
C41   C     C_3   0.878378 0.500058 0.500754 0.016439
C42   C     C_3   0.824269 0.332410 0.595094 -0.835022
C43   C     C_3   0.126591 0.520890 0.324466 -0.858158
C44   C     C_3   0.837328 0.742391 0.947441 -0.783671
C45   C     C_R   0.490218 0.404561 0.755588 -0.095175
C46   C     C_3   0.388681 0.173929 0.910664 -0.904113
C47   C     C_3   0.760818 0.853751 0.726175 -0.936546
C48   C     C_3   0.505420 0.108321 0.678734 -0.939597
C49   C     C_R   0.560962 0.595476 0.243428 -0.223882
C50   C     C_R   0.445758 0.276509 0.877986 0.202226
C51   C     C_R   0.441869 0.309467 0.788083 -0.194154
C52   C     C_R   0.549389 0.466287 0.811593 -0.196651
Cl1   Cl    Cl    0.653723 0.777076 0.280419 -0.534181
Cl2   Cl    Cl    0.873225 0.478549 0.683779 -0.680212
Cl3   Cl    Cl    0.744818 0.833176 0.086020 -0.563314
Cl4   Cl    Cl    0.058135 0.342831 0.406334 -0.661305
H1    H     H_    0.161360 0.652366 0.446293 0.187112
H2    H     H_    0.548053 0.225109 0.539982 0.154195
H3    H     H_    0.305473 0.303619 0.346246 0.174322
H4    H     H_    0.254004 0.981236 0.336801 0.160373
H5    H     H_    0.703791 0.698936 0.646910 0.146207
H6    H     H_    0.447536 0.769392 0.462230 0.146760
H7    H     H_    0.101430 0.460491 0.639007 0.193616
H8    H     H_    0.347228 0.863189 0.408225 0.144498
H9    H     H_    0.238350 0.143188 0.310400 0.164960
H10   H     H_    0.066457 0.363563 0.581254 0.209041
H11   H     H_    0.848265 0.398852 0.405601 0.224652
H12   H     H_    0.893672 0.516943 0.356764 0.166148
H13   H     H_    0.947382 0.647305 0.438366 0.195244
H14   H     H_    0.938562 0.633482 0.555925 0.237599
H15   H     H_    0.144326 0.623866 0.563327 0.223972
H16   H     H_    0.831293 0.299938 0.535249 0.250879
H17   H     H_    0.857112 0.289190 0.651109 0.249633
H18   H     H_    0.721270 0.328538 0.610817 0.249889
H19   H     H_    0.229724 0.518608 0.321323 0.231788
H20   H     H_    0.080032 0.491587 0.266661 0.264975
H21   H     H_    0.121936 0.595071 0.317761 0.214619
H22   H     H_    0.909630 0.758530 0.998250 0.269132
H23   H     H_    0.456212 0.241513 0.056853 0.169528
H24   H     H_    0.891192 0.730034 0.889920 0.215516
H25   H     H_    0.796889 0.803020 0.924923 0.274626
H26   H     H_    0.351740 0.134468 0.856106 0.244863
H27   H     H_    0.463887 0.142610 0.942974 0.253665
H28   H     H_    0.306351 0.165416 0.958402 0.249227
H29   H     H_    0.810763 0.796844 0.743226 0.241691
H30   H     H_    0.836181 0.920236 0.707259 0.259591
H31   H     H_    0.704302 0.858228 0.785710 0.253051
H32   H     H_    0.591897 0.167246 0.680848 0.249696
H33   H     H_    0.419157 0.134527 0.660346 0.242461
H34   H     H_    0.471774 0.463042 0.208138 0.185202
H35   H     H_    0.482555 0.069538 0.746645 0.254527
H36   H     H_    0.397911 0.261483 0.743761 0.163369
H37   H     H_    0.583421 0.539556 0.784990 0.164014
H38   H     H_    0.521707 0.355115 0.152787 0.153211
H39   H     H_    0.734820 0.604674 0.861133 0.165898
H40   H     H_    0.653113 0.992826 0.711827 0.176767
N1    N     N_R   0.573860 0.731700 0.552730 -0.118978
N2    N     N_R   0.426060 0.268290 0.447230 -0.109431
O1    O     O_R   0.462770 0.383110 0.605620 -0.623733
O2    O     O_R   0.510160 0.531900 0.639510 -0.616797
O3    O     O_R   0.661510 0.425600 0.483070 -0.637053
O4    O     O_R   0.708900 0.574390 0.516960 -0.605846
O5    O     O_R   0.489840 0.468100 0.360490 -0.631316
O6    O     O_R   0.537230 0.616890 0.394380 -0.558412
O7    O     O_R   0.291100 0.425610 0.483040 -0.568316
O8    O     O_R   0.338490 0.574400 0.516930 -0.638243
Zn1   Zn    Zn3+2 0.468350 0.400660 0.477370 0.956312
Zn2   Zn    Zn3+2 0.531650 0.599340 0.522630 0.977713

loop_
_geom_bond_atom_site_label_1
_geom_bond_atom_site_label_2
_ccdc_geom_bond_type
O3    Zn1   S    
C39   H12   S    
C18   C47   S    
C1    O1    A    
C19   N1    A    
C33   H9    S    
C23   Cl4   S    
C39   C41   S    
O7    Zn1   S    
C12   C23   S    
C26   C27   A    
C37   C38   S    
C40   H14   S    
C12   C28   S    
C34   C40   S    
C15   Cl1   S    
C36   H2    S    
C30   C31   A    
C11   C14   A    
C4    C41   S    
C45   C51   A    
C23   C43   S    
C35   H3    S    
C18   C19   A    
C37   C42   S    
C24   C29   A    
C46   H26   S    
N1    Zn2   S    
C16   O6    A    
C20   N1    A    
C38   H10   S    
C28   O8    A    
C48   H35   S    
C4    O4    A    
C8    H23   S    
C48   H32   S    
O4    Zn2   S    
C35   N2    A    
C9    C10   A    
C9    H39   S    
C26   C48   S    
C25   C32   A    
C14   Cl3   S    
C29   H8    S    
C21   C22   A    
C37   C41   S    
C27   H40   S    
C1    O2    A    
C3    C50   A    
C43   H19   S    
C42   H18   S    
O2    Zn2   S    
C31   C33   A    
C10   C44   S    
C47   H30   S    
C44   H24   S    
C24   C25   A    
C44   H25   S    
C40   H13   S    
C17   C49   A    
C45   C52   A    
C25   C26   A    
N2    Zn1   S    
C30   H4    S    
C47   H31   S    
C5    C9    A    
C29   C30   A    
C51   H36   S    
C34   H1    S    
C16   O5    A    
C31   C32   A    
C28   O7    A    
C4    O3    A    
C42   H16   S    
C50   C51   A    
C52   H37   S    
C16   C49   S    
C2    C52   A    
C46   H28   S    
C37   Cl2   S    
C40   C41   S    
C3    C8    A    
C22   C27   A    
C2    C5    A    
C12   C34   S    
C12   C38   S    
C47   H29   S    
O6    Zn2   S    
C38   H7    S    
C43   H20   S    
C7    H38   S    
C42   H17   S    
C18   C22   A    
C39   H11   S    
C17   H34   S    
C36   N2    A    
C32   C36   A    
C6    C7    A    
C43   H21   S    
O1    Zn1   S    
C46   C50   S    
C13   C17   A    
C48   H33   S    
C44   H22   S    
C2    C3    A    
C6    C13   A    
C11   C13   A    
C1    C45   S    
C5    C6    A    
O8    Zn2   S    
C19   H5    S    
C23   C39   S    
C33   C35   A    
C15   C49   A    
C20   H6    S    
C7    C8    A    
C10   C11   A    
C46   H27   S    
C20   C21   A    
C21   C24   A    
C14   C15   A    
O5    Zn1   S    
C34   H15   S    
