data_mof_unit_25315.cif
_audit_creation_date              2012-10-26T18:50:04-0400
_audit_creation_method            fapswitch 2.2
_symmetry_space_group_name_H-M    P1
_symmetry_Int_Tables_number       1
_space_group_crystal_system       triclinic
_cell_length_a                    10.801806
_cell_length_b                    13.001987
_cell_length_c                    11.665968
_cell_angle_alpha                 100.407639
_cell_angle_beta                  93.687047
_cell_angle_gamma                 89.755605
_cell_volume                      1608.08925077

loop_
_atom_site_label
_atom_site_type_symbol
_atom_type_description
_atom_site_fract_x
_atom_site_fract_y
_atom_site_fract_z
_atom_type_partial_charge
C1    C     C_R   0.498457 0.298806 0.477830 0.540081
C2    C     C_R   0.506349 0.860019 0.436298 -0.134842
C3    C     C_R   0.497031 0.032243 0.555187 0.037894
C4    C     C_R   0.502921 0.967757 0.444818 0.037870
C5    C     C_R   0.385256 0.401008 0.020693 -0.178773
C6    C     C_R   0.614737 0.598997 0.979307 -0.178793
C7    C     C_R   0.395790 0.410706 0.143113 0.056617
C8    C     C_R   0.604201 0.589301 0.856888 0.056645
C9    C     C_R   0.549164 0.542925 0.157673 0.040981
C10   C     C_R   0.450836 0.457074 0.842327 0.040955
C11   C     C_R   0.541555 0.536008 0.034660 0.001083
C12   C     C_R   0.501546 0.701195 0.522170 0.540192
C13   C     C_R   0.458443 0.463993 0.965340 0.001096
C14   C     C_R   0.262807 0.502815 0.500696 0.524300
C15   C     C_R   0.737193 0.497191 0.499305 0.524280
C16   C     C_R   0.125281 0.694382 0.518202 -0.077397
C17   C     C_R   0.874723 0.305630 0.481823 -0.077510
C18   C     C_R   0.058641 0.788258 0.528787 0.027672
C19   C     C_R   0.941358 0.211750 0.471205 0.027642
C20   C     C_R   0.929842 0.785468 0.531242 -0.153712
C21   C     C_R   0.070155 0.214538 0.468739 -0.153707
C22   C     C_R   0.867682 0.690478 0.521145 -0.112323
C23   C     C_R   0.501891 0.815164 0.536412 0.033421
C24   C     C_R   0.132318 0.309529 0.478846 -0.112324
C25   C     C_R   0.933215 0.595059 0.509812 0.005860
C26   C     C_R   0.066786 0.404949 0.490192 0.005868
C27   C     C_R   0.063545 0.597019 0.509697 -0.020414
C28   C     C_R   0.936458 0.402991 0.490316 -0.020386
C29   C     C_R   0.870960 0.498181 0.499164 -0.008629
C30   C     C_R   0.129041 0.501828 0.500842 -0.008642
C31   C     C_2   0.121708 0.890169 0.537342 0.182848
C32   C     C_2   0.878284 0.109837 0.462616 0.182861
C33   C     C_3   0.372176 0.849038 0.790153 0.002881
C34   C     C_R   0.498105 0.184837 0.463592 0.033321
C35   C     C_3   0.362294 0.785291 0.886446 -0.361148
C36   C     C_3   0.628106 0.151293 0.210245 0.003376
C37   C     C_3   0.637665 0.214249 0.113203 -0.361319
C38   C     C_R   0.505447 0.011733 0.344279 -0.078515
C39   C     C_R   0.494516 0.988266 0.655727 -0.078602
C40   C     C_R   0.505954 0.120302 0.352765 0.279614
C41   C     C_R   0.494053 0.879693 0.647243 0.279634
C42   C     C_R   0.493615 0.139983 0.563704 -0.134832
Cu1   Cu    Cu3+1 0.509250 0.507730 0.615930 0.941753
Cu2   Cu    Cu3+1 0.490750 0.492270 0.384070 0.941797
H1    H     H_    0.123258 0.142941 0.460364 0.117791
H2    H     H_    0.488127 0.188901 0.648988 0.120092
H3    H     H_    0.507879 0.962046 0.259174 0.097485
H4    H     H_    0.492106 0.037960 0.740830 0.097298
H5    H     H_    0.386934 0.402020 0.788234 0.119445
H6    H     H_    0.613069 0.597978 0.211766 0.119448
H7    H     H_    0.660748 0.638401 0.815247 0.151883
H8    H     H_    0.339237 0.361610 0.184755 0.151858
H9    H     H_    0.071487 0.962178 0.563083 0.096940
H10   H     H_    0.928507 0.037830 0.436870 0.096956
H11   H     H_    0.298823 0.820395 0.720181 0.156414
H12   H     H_    0.876736 0.857063 0.539597 0.117787
H13   H     H_    0.354945 0.932450 0.827401 0.125753
H14   H     H_    0.436953 0.808545 0.956272 0.156845
H15   H     H_    0.270884 0.798841 0.924795 0.098908
H16   H     H_    0.370488 0.700769 0.850003 0.178379
H17   H     H_    0.646158 0.067838 0.173834 0.125755
H18   H     H_    0.701044 0.180851 0.280273 0.156429
H19   H     H_    0.628849 0.298870 0.148842 0.178127
H20   H     H_    0.729221 0.200853 0.075110 0.098968
H21   H     H_    0.563242 0.190158 0.043361 0.156808
H22   H     H_    0.320456 0.344612 0.969852 0.092643
H23   H     H_    0.679535 0.655394 0.030149 0.092629
H24   H     H_    0.225267 0.698150 0.517413 0.149857
H25   H     H_    0.774739 0.301867 0.482641 0.149730
H26   H     H_    0.767737 0.692907 0.522430 0.126688
H27   H     H_    0.232262 0.307098 0.477552 0.126701
H28   H     H_    0.511833 0.811103 0.351013 0.120081
N1    N     N_R   0.523180 0.519350 0.790130 -0.234831
N2    N     N_R   0.476820 0.480650 0.209870 -0.234780
O1    O     O_R   0.506570 0.354460 0.582000 -0.523309
O2    O     O_2   0.770194 0.104790 0.485489 -0.550271
O3    O     O_3   0.491913 0.836950 0.747563 -0.555898
O4    O     O_3   0.508169 0.163007 0.252431 -0.555971
O5    O     O_R   0.493430 0.645540 0.418000 -0.523347
O6    O     O_R   0.490940 0.341410 0.386200 -0.459360
O7    O     O_R   0.509060 0.658590 0.613800 -0.459284
O8    O     O_R   0.327470 0.506520 0.597900 -0.512439
O9    O     O_R   0.672530 0.493480 0.402100 -0.512383
O10   O     O_R   0.311840 0.493460 0.402100 -0.502127
O11   O     O_R   0.688160 0.506540 0.597900 -0.502129
O12   O     O_2   0.229789 0.895212 0.514439 -0.550242

loop_
_geom_bond_atom_site_label_1
_geom_bond_atom_site_label_2
_ccdc_geom_bond_type
C33   H11   S    
C3    C42   A    
C17   H25   S    
C34   C42   A    
C14   O10   A    
C20   H12   S    
Cu2   O9    S    
C39   C41   A    
C12   C23   S    
C35   H14   S    
C34   C40   A    
C36   C37   S    
C19   C21   A    
C24   C26   A    
C7    H8    S    
C41   O3    S    
C10   N1    A    
C36   H18   S    
C12   O5    A    
C35   H15   S    
C42   H2    S    
C33   C35   S    
Cu1   N1    S    
C22   C25   A    
C37   H21   S    
C16   H24   S    
C5    C13   A    
C15   O11   A    
C16   C27   A    
C3    C39   A    
C31   O12   D    
C27   C30   A    
C25   C29   A    
C14   C30   S    
C2    H28   S    
C19   C32   S    
C32   H10   S    
C37   H19   S    
C1    C34   S    
C15   C29   S    
C7    N2    A    
C21   H1    S    
Cu1   O1    S    
Cu1   O11   S    
Cu2   O6    S    
C6    C11   A    
C5    C7    A    
C6    C8    A    
C35   H16   S    
C1    O1    A    
C2    C4    A    
Cu1   Cu2   S    
C31   H9    S    
Cu2   N2    S    
C9    C11   A    
C8    H7    S    
C38   H3    S    
C6    H23   S    
C20   C22   A    
C26   C30   A    
Cu1   O7    S    
C40   O4    S    
C9    N2    A    
C14   O8    A    
C36   H17   S    
C37   H20   S    
Cu1   O8    S    
C28   C29   A    
C33   H13   S    
C17   C28   A    
Cu2   O5    S    
C9    H6    S    
C4    C38   A    
C5    H22   S    
Cu2   O10   S    
C10   C13   A    
C32   O2    D    
C15   O9    A    
C25   C27   A    
C26   C28   A    
C23   C41   A    
C36   O4    S    
C38   C40   A    
C11   C13   A    
C33   O3    S    
C8    N1    A    
C17   C19   A    
C12   O7    A    
C18   C20   A    
C16   C18   A    
C21   C24   A    
C2    C23   A    
C1    O6    A    
C18   C31   S    
C10   H5    S    
C22   H26   S    
C3    C4    A    
C24   H27   S    
C39   H4    S    
