data_mof_unit_33311.cif
_audit_creation_date              2012-12-10T19:44:34-0500
_audit_creation_method            fapswitch 2.2
_symmetry_space_group_name_H-M    P1
_symmetry_Int_Tables_number       1
_space_group_crystal_system       triclinic
_cell_length_a                    8.58685
_cell_length_b                    15.010686
_cell_length_c                    14.151167
_cell_angle_alpha                 90.004533
_cell_angle_beta                  98.630939
_cell_angle_gamma                 89.999056
_cell_volume                      1803.35172343

loop_
_atom_site_label
_atom_site_type_symbol
_atom_type_description
_atom_site_fract_x
_atom_site_fract_y
_atom_site_fract_z
_atom_type_partial_charge
C1    C     C_R   0.500012 0.327741 0.500000 0.860685
C2    C     C_R   0.499986 0.672266 0.500000 0.862008
C3    C     C_R   0.385359 0.543881 0.093805 -0.332952
C4    C     C_R   0.614633 0.543911 0.906207 -0.332935
C5    C     C_R   0.385827 0.543787 0.193101 0.003377
C6    C     C_R   0.614162 0.543831 0.806910 0.003360
C7    C     C_R   0.617195 0.456418 0.216278 -0.045378
C8    C     C_R   0.382822 0.456439 0.783711 -0.045362
C9    C     C_R   0.623342 0.454658 0.116848 0.092586
C10   C     C_R   0.376679 0.454663 0.883140 0.092572
C11   C     C_R   0.502567 0.498207 0.053512 0.123067
C12   C     C_R   0.497442 0.498216 0.946488 0.123064
C13   C     C_R   0.200952 0.499890 0.475049 0.976409
C14   C     C_R   0.799048 0.499903 0.524951 0.976410
C15   C     C_2   0.035929 0.499708 0.461536 -0.389220
C16   C     C_2   0.964071 0.499721 0.538464 -0.389221
C17   C     C_R   0.444593 0.094108 0.574271 -0.180343
C18   C     C_R   0.444809 0.905928 0.415605 -0.180272
C19   C     C_R   0.445461 0.186071 0.574583 -0.194775
C20   C     C_R   0.445662 0.813962 0.415455 -0.194303
C21   C     C_R   0.500010 0.231996 0.499999 -0.021684
C22   C     C_R   0.499983 0.768026 0.500001 -0.020595
C23   C     C_R   0.554553 0.186057 0.425415 -0.194780
C24   C     C_R   0.554306 0.813973 0.584546 -0.194307
C25   C     C_R   0.555409 0.094093 0.425727 -0.180338
C26   C     C_R   0.555168 0.905939 0.584395 -0.180271
C27   C     C_R   0.499998 0.048113 0.499999 0.116229
C28   C     C_R   0.499992 0.951921 0.499999 0.117273
H1    H     H_    0.974035 0.499667 0.388558 0.171923
H2    H     H_    0.025965 0.499699 0.611442 0.171927
H3    H     H_    0.399462 0.058919 0.631277 0.131771
H4    H     H_    0.399859 0.941119 0.350350 0.130831
H5    H     H_    0.401683 0.221140 0.632166 0.151374
H6    H     H_    0.402052 0.778899 0.349873 0.149947
H7    H     H_    0.598334 0.221114 0.367832 0.151371
H8    H     H_    0.597915 0.778919 0.650128 0.149946
H9    H     H_    0.600534 0.058893 0.368720 0.131771
H10   H     H_    0.600123 0.941139 0.649649 0.130832
H11   H     H_    0.293864 0.580073 0.048479 0.141253
H12   H     H_    0.706118 0.580105 0.951544 0.141253
H13   H     H_    0.294608 0.579086 0.222830 0.128193
H14   H     H_    0.705372 0.579141 0.777191 0.128181
H15   H     H_    0.706812 0.422668 0.265368 0.127770
H16   H     H_    0.293219 0.422682 0.734612 0.127785
N1    N     N_R   0.500000 0.499980 0.252470 -0.100060
N2    N     N_R   0.500000 0.500020 0.747530 -0.100061
O1    O     O_R   0.500010 0.369070 0.579480 -0.623981
O2    O     O_R   0.499990 0.630930 0.420520 -0.624015
O3    O     O_R   0.500010 0.369060 0.420520 -0.623975
O4    O     O_R   0.499990 0.630940 0.579480 -0.624015
O5    O     O_R   0.271750 0.500000 0.560890 -0.620930
O6    O     O_R   0.728250 0.500000 0.439110 -0.620923
O7    O     O_R   0.271750 0.499990 0.401930 -0.632120
O8    O     O_R   0.728250 0.500010 0.598070 -0.632111
Zn1   Zn    Zn3+2 0.500000 0.500010 0.606140 0.937328
Zn2   Zn    Zn3+2 0.500000 0.499990 0.393860 0.937329
C29   C     C_3   0.760427 0.407336 0.082327 -0.430039
C30   C     C_3   0.710937 0.319963 0.031446 -0.855170
H17   H     H_    0.649402 0.276704 0.077731 0.253999
H18   H     H_    0.633100 0.332454 0.962921 0.273172
H19   H     H_    0.817192 0.284334 0.015305 0.246413
H20   H     H_    0.817355 0.451221 0.034601 0.208708
H21   H     H_    0.853079 0.391651 0.143767 0.198466
C31   C     C_3   0.239614 0.407317 0.917648 -0.430035
C32   C     C_3   0.289139 0.319941 0.968499 -0.855173
H22   H     H_    0.350689 0.276699 0.922198 0.253999
H23   H     H_    0.366974 0.332429 0.037027 0.273172
H24   H     H_    0.182899 0.284295 0.984629 0.246410
H25   H     H_    0.182672 0.451185 0.965390 0.208715
H26   H     H_    0.146965 0.391630 0.856205 0.198465

loop_
_geom_bond_atom_site_label_1
_geom_bond_atom_site_label_2
_ccdc_geom_bond_type
N2    Zn1   S    
C2    C22   S    
C11   C12   S    
C14   O6    A    
C1    C21   S    
C25   H9    S    
C7    H15   S    
C25   C27   A    
O3    Zn2   S    
C6    N2    A    
C18   C20   A    
O4    Zn1   S    
C3    C11   A    
C3    C5    A    
C32   H24   S    
C20   H6    S    
C31   C32   S    
C30   H19   S    
C13   C15   S    
C18   H4    S    
C3    H11   S    
C29   H20   S    
C14   O8    A    
O5    Zn1   S    
C31   H25   S    
C29   H21   S    
C9    C11   A    
C29   C30   S    
C24   H8    S    
C23   H7    S    
C10   C12   A    
C7    N1    A    
C22   C24   A    
C4    C6    A    
C26   C28   A    
C19   C21   A    
C24   C26   A    
C15   H1    S    
C30   H18   S    
C13   O7    A    
C21   C23   A    
C19   H5    S    
C4    H12   S    
C17   H3    S    
C31   H26   S    
C14   C16   S    
C4    C12   A    
C20   C22   A    
C16   H2    S    
C17   C19   A    
C15   C16   D    
C17   C27   A    
C7    C9    A    
C23   C25   A    
C18   C28   A    
C9    C29   S    
O1    Zn1   S    
C32   H22   S    
C6    H14   S    
O7    Zn2   S    
C27   C28   S    
O2    Zn2   S    
C5    H13   S    
O8    Zn1   S    
C26   H10   S    
C2    O4    A    
C8    N2    A    
C2    O2    A    
C30   H17   S    
C13   O5    A    
O6    Zn2   S    
C5    N1    A    
C8    C10   A    
C10   C31   S    
C8    H16   S    
N1    Zn2   S    
C1    O1    A    
C32   H23   S    
C1    O3    A    
