data_mof_unit_16081.cif
_audit_creation_date              2013-03-05T16:14:30-0500
_audit_creation_method            fapswitch 2.2
_symmetry_space_group_name_H-M    P1
_symmetry_Int_Tables_number       1
_space_group_crystal_system       triclinic
_cell_length_a                    10.660657
_cell_length_b                    10.669106
_cell_length_c                    9.420852
_cell_angle_alpha                 89.870378
_cell_angle_beta                  90.036458
_cell_angle_gamma                 90.133175
_cell_volume                      1071.51883774

loop_
_atom_site_label
_atom_site_type_symbol
_atom_site_description
_atom_site_fract_x
_atom_site_fract_y
_atom_site_fract_z
_atom_type_partial_charge
O1    O     O_R   0.500060 0.316850 0.620870 -0.570385
O2    O     O_R   0.499940 0.683150 0.379130 -0.567631
O3    O     O_R   0.500000 0.316860 0.379090 -0.574940
O4    O     O_R   0.500000 0.683140 0.620910 -0.583878
C1    C     C_R   0.500812 0.259666 0.500107 0.895481
C2    C     C_R   0.498014 0.740337 0.499842 0.890005
O5    O     O_R   0.316880 0.499960 0.620870 -0.607234
O6    O     O_R   0.683120 0.500040 0.379130 -0.601562
O7    O     O_R   0.316830 0.499970 0.379090 -0.543361
O8    O     O_R   0.683170 0.500030 0.620910 -0.555763
C3    C     C_R   0.259660 0.499057 0.500063 0.886846
C4    C     C_R   0.740354 0.498679 0.499958 0.877692
Cu1   Cu    Cu3+1 0.500030 0.499990 0.643150 1.000926
Cu2   Cu    Cu3+1 0.499970 0.500010 0.356850 1.009831
C5    C     C_3   0.041681 0.494131 0.635886 -0.244171
C6    C     C_3   0.958231 0.498920 0.364107 -0.235408
C7    C     C_3   0.957617 0.391847 0.566083 -0.232210
C8    C     C_3   0.042022 0.601387 0.433867 -0.231513
H1    H     H_    0.923656 0.304767 0.617698 0.231592
H2    H     H_    0.075904 0.688565 0.382346 0.232229
H3    H     H_    0.076757 0.494218 0.746892 0.190471
H4    H     H_    0.923286 0.498499 0.253051 0.184355
C9    C     C_3   0.876839 0.496214 0.499426 -0.134669
C10   C     C_3   0.123193 0.497141 0.500426 -0.146266
C11   C     C_3   0.959700 0.595788 0.567357 0.374794
C12   C     C_3   0.040221 0.397087 0.432573 0.368029
C13   C     C_3   0.590759 0.038370 0.581279 0.399296
C14   C     C_3   0.406078 0.961551 0.418345 0.399241
C15   C     C_3   0.608742 0.956674 0.448754 -0.229810
C16   C     C_3   0.387994 0.043555 0.550705 -0.237435
H5    H     H_    0.699028 0.920954 0.406894 0.218672
H6    H     H_    0.297210 0.080468 0.590149 0.200449
C17   C     C_3   0.496625 0.876823 0.499345 -0.140472
C18   C     C_3   0.500399 0.123234 0.500317 -0.137119
C19   C     C_3   0.480644 0.957666 0.633784 -0.250978
C20   C     C_3   0.516035 0.042430 0.365790 -0.247356
H7    H     H_    0.468056 0.922179 0.743762 0.189181
H8    H     H_    0.528570 0.077920 0.255805 0.190616
C21   C     C_3   0.495425 0.613140 0.050056 -0.015653
C22   C     C_3   0.504581 0.386863 0.949942 -0.017191
C23   C     C_3   0.399704 0.552381 0.949162 -0.035236
C24   C     C_3   0.600303 0.447623 0.050837 -0.029577
H9    H     H_    0.315339 0.596699 0.901703 0.147246
H10   H     H_    0.684662 0.403296 0.098299 0.146545
H11   H     H_    0.491455 0.708686 0.096191 0.162167
H12   H     H_    0.508543 0.291315 0.903810 0.162188
N1    N     N_3   0.500090 0.499970 0.858290 -0.176887
N2    N     N_3   0.499910 0.500030 0.141710 -0.175947
C25   C     C_3   0.595819 0.560714 0.949381 -0.031914
C26   C     C_3   0.404189 0.439290 0.050608 -0.032692
H13   H     H_    0.676376 0.611946 0.901955 0.173475
H14   H     H_    0.323604 0.388083 0.097960 0.174472
N3    N     N_R   0.911994 0.705638 0.640550 0.140005
O9    O     O_R   0.937094 0.723431 0.774092 -0.326249
O10   O     O_R   0.844150 0.786651 0.571976 -0.351048
N4    N     N_R   0.082675 0.285564 0.357891 0.133370
O11   O     O_R   0.000772 0.208899 0.303635 -0.299912
O12   O     O_R   0.201497 0.259961 0.348381 -0.359667
N5    N     N_R   0.693202 0.077586 0.673834 0.131139
O13   O     O_R   0.756877 0.993823 0.743488 -0.262332
O14   O     O_R   0.718083 0.195622 0.692826 -0.395944
N6    N     N_R   0.303545 0.921329 0.326461 0.126970
O15   O     O_R   0.236892 0.004481 0.259563 -0.258100
O16   O     O_R   0.280217 0.803033 0.307001 -0.396777

loop_
_geom_bond_atom_site_label_1
_geom_bond_atom_site_label_2
_geom_bond_distance
_ccdc_geom_bond_type
C22   N1    1.483099 S    
C26   H14   1.110280 S    
O7    Cu2   1.963733 S    
N6    O15   1.299597 A    
C17   C19   1.543680 S    
O3    Cu2   1.964777 S    
N4    O12   1.299650 A    
C13   C15   1.536625 S    
O7    C3    1.292748 A    
C3    C10   1.454928 S    
C8    H2    1.108054 S    
C7    C9    1.541560 S    
C2    C17   1.456293 S    
O6    C4    1.291244 A    
C21   H11   1.109993 S    
C22   C26   1.537587 S    
C1    C18   1.455606 S    
C25   H13   1.110450 S    
C20   H8    1.110402 S    
C23   N1    1.482216 S    
N5    O13   1.299866 A    
C21   C23   1.537368 S    
C6    C8    1.556581 S    
C13   N5    1.458211 S    
N3    O9    1.300319 A    
C15   H5    1.109079 S    
C23   H9    1.110345 S    
C15   C20   1.557165 S    
C24   N2    1.482260 S    
C8    C11   1.534960 S    
C24   H10   1.110350 S    
C16   C19   1.558154 S    
C21   N2    1.483130 S    
O2    C2    1.291962 A    
C8    C10   1.542607 S    
C7    C12   1.536706 S    
O8    C4    1.292762 A    
N2    C26   1.481956 S    
C5    C10   1.544604 S    
C21   C25   1.537643 S    
C10   C12   1.525956 S    
C11   N3    1.454159 S    
C14   C17   1.526849 S    
O5    C3    1.290976 A    
C6    C9    1.542729 S    
C18   C20   1.543725 S    
N3    O10   1.298966 A    
C13   C18   1.526262 S    
C6    C12   1.536546 S    
O2    Cu2   1.965654 S    
O1    C1    1.292211 A    
N5    O14   1.299112 A    
O4    C2    1.292518 A    
O1    Cu1   1.965654 S    
C22   H12   1.109990 S    
C24   C25   1.538400 S    
C16   H6    1.110294 S    
C12   N4    1.456809 S    
C15   C17   1.541328 S    
C23   C26   1.538337 S    
C5    H3    1.110398 S    
C9    C11   1.521997 S    
N4    O11   1.300257 A    
C14   C20   1.535554 S    
C5    C11   1.535408 S    
N1    C25   1.481979 S    
C19   H7    1.110403 S    
C4    C9    1.455334 S    
C5    C7    1.557049 S    
Cu2   N2    2.026802 S    
C16   C18   1.542116 S    
C22   C24   1.537379 S    
C7    H1    1.107838 S    
N6    O16   1.299203 A    
O5    Cu1   1.963617 S    
O6    Cu2   1.963617 S    
C13   C19   1.535646 S    
Cu1   Cu2   2.697189 S    
Cu1   N1    2.026800 S    
O4    Cu1   1.964777 S    
C6    H4    1.110380 S    
C14   C16   1.537371 S    
O3    C1    1.291924 A    
O8    Cu1   1.963734 S    
C14   N6    1.458276 S    
