data_mof_unit_67831.cif
_audit_creation_date              2013-03-05T15:41:49-0500
_audit_creation_method            fapswitch 2.2
_symmetry_space_group_name_H-M    P1
_symmetry_Int_Tables_number       1
_space_group_crystal_system       triclinic
_cell_length_a                    8.063546
_cell_length_b                    8.704588
_cell_length_c                    10.563074
_cell_angle_alpha                 96.303296
_cell_angle_beta                  87.380478
_cell_angle_gamma                 91.266335
_cell_volume                      736.059369832

loop_
_atom_site_label
_atom_site_type_symbol
_atom_site_description
_atom_site_fract_x
_atom_site_fract_y
_atom_site_fract_z
_atom_type_partial_charge
O1    O     O_R   0.389250 0.738570 0.508410 -0.602251
O2    O     O_R   0.610750 0.261430 0.491590 -0.602302
O3    O     O_R   0.678390 0.711620 0.486450 -0.568939
O4    O     O_R   0.321610 0.288380 0.513550 -0.568902
C1    C     C_R   0.541785 0.792382 0.497202 0.876388
C2    C     C_R   0.458230 0.207619 0.502823 0.876382
O5    O     O_R   0.355460 0.513510 0.697030 -0.551985
O6    O     O_R   0.644540 0.486490 0.302970 -0.552000
O7    O     O_R   0.644600 0.486560 0.675070 -0.555019
O8    O     O_R   0.355400 0.513440 0.324930 -0.555026
C3    C     C_R   0.506407 0.521352 0.742409 0.901800
C4    C     C_R   0.493590 0.478630 0.257594 0.901794
Zn1   Zn    Zn3+2 0.306940 0.517990 0.514670 1.170125
Zn2   Zn    Zn3+2 0.693060 0.482010 0.485330 1.170094
N1    N     N_2   0.950320 0.457950 0.465730 0.118500
N2    N     N_2   0.049680 0.542050 0.534270 0.118523
C5    C     C_3   0.395343 0.614486 0.980822 0.214602
C6    C     C_3   0.604644 0.385484 0.019180 0.214652
C7    C     C_3   0.537171 0.621563 0.074274 -0.358787
C8    C     C_3   0.462819 0.378406 0.925727 -0.358823
H1    H     H_    0.564055 0.724943 0.143063 0.205164
H2    H     H_    0.435952 0.275025 0.856940 0.205196
C9    C     C_3   0.483500 0.465839 0.118947 -0.179418
C10   C     C_3   0.516490 0.534133 0.881056 -0.179399
C11   C     C_3   0.339830 0.458760 0.027539 0.307288
C12   C     C_3   0.660158 0.541206 0.972463 0.307242
C13   C     C_2   0.561513 0.950458 0.480939 -0.054754
C14   C     C_2   0.438586 0.049557 0.519160 -0.054818
I1    I     I_    0.303881 0.845776 0.003955 -0.197321
I2    I     I_    0.696115 0.154201 0.996085 -0.197250
I3    I     I_    0.124674 0.319619 0.988426 -0.073228
I4    I     I_    0.875328 0.680311 0.011591 -0.073407
S1    S     S_3+6 0.018240 0.393761 0.314633 0.165951
O9    O     O_2   0.063241 0.531631 0.245450 -0.260688
O10   O     O_2   0.161520 0.286625 0.313916 -0.314452
O11   O     O_3   0.866500 0.293335 0.239765 -0.506139
H3    H     H_    0.920604 0.198753 0.198469 0.395201
S2    S     S_3+6 0.981750 0.606212 0.685372 0.165949
O12   O     O_2   0.838489 0.713390 0.686084 -0.314425
O13   O     O_2   0.936714 0.468329 0.754537 -0.260724
O14   O     O_3   0.133489 0.706606 0.760259 -0.506136
H4    H     H_    0.079330 0.801072 0.801707 0.395255
I5    I     I_    0.790915 0.994738 0.377427 -0.131851
I6    I     I_    0.209585 0.005335 0.623069 -0.132060

loop_
_geom_bond_atom_site_label_1
_geom_bond_atom_site_label_2
_geom_bond_distance
_ccdc_geom_bond_type
C11   I3    2.123755 S    
C7    C9    1.530766 S    
O7    Zn2   2.020618 S    
C12   I4    2.123704 S    
C6    I2    2.144287 S    
C5    I1    2.144313 S    
O14   H4    0.988898 S    
C6    C12   1.543095 S    
O6    C4    1.326056 A    
C5    C11   1.543123 S    
S1    O9    1.501684 D    
S2    O13   1.501732 D    
O5    C3    1.326052 A    
O7    C3    1.317026 A    
C4    C9    1.462387 S    
O2    C2    1.311268 A    
O3    Zn2   2.003474 S    
O8    C4    1.317022 A    
O1    C1    1.311360 A    
O11   H3    0.988968 S    
C7    H1    1.116676 S    
C10   C12   1.537579 S    
N1    S1    1.702151 S    
C6    C8    1.540402 S    
C9    C11   1.537599 S    
S2    O12   1.500066 D    
O2    Zn2   2.024610 S    
C5    C10   1.525885 S    
O1    Zn1   2.024610 S    
C8    C11   1.548330 S    
C6    C9    1.525873 S    
C13   I5    2.154527 S    
C3    C10   1.462380 S    
O5    Zn1   1.987767 S    
S1    O11   1.666156 S    
S2    O14   1.666107 S    
O4    C2    1.313766 A    
Zn1   N2    2.088157 S    
N2    S2    1.702164 S    
C13   C14   1.346986 D    
C7    C12   1.548322 S    
C8    C10   1.530781 S    
Zn2   N1    2.088157 S    
O6    Zn2   1.987765 S    
C5    C7    1.540409 S    
C1    C13   1.409932 S    
C14   I6    2.153781 S    
S1    O10   1.499947 D    
C2    C14   1.409921 S    
N1    N2    1.269922 D    
O4    Zn1   2.003474 S    
C8    H2    1.116638 S    
O3    C1    1.313662 A    
O8    Zn1   2.020618 S    
