data_mof_unit_57985.cif
_audit_creation_date              2012-12-11T15:47:11-0500
_audit_creation_method            fapswitch 2.2
_symmetry_space_group_name_H-M    P1
_symmetry_Int_Tables_number       1
_space_group_crystal_system       triclinic
_cell_length_a                    20.21155
_cell_length_b                    7.256659
_cell_length_c                    13.54699
_cell_angle_alpha                 89.977657
_cell_angle_beta                  103.15678
_cell_angle_gamma                 90.028083
_cell_volume                      1934.75928004

loop_
_atom_site_label
_atom_site_type_symbol
_atom_type_description
_atom_site_fract_x
_atom_site_fract_y
_atom_site_fract_z
_atom_type_partial_charge
O1    O     O_R   0.449560 0.506810 0.599700 -0.538044
O2    O     O_R   0.550440 0.006810 0.400300 -0.519063
O3    O     O_R   0.587960 0.180060 0.595760 -0.537362
O4    O     O_R   0.412040 0.680060 0.404240 -0.549724
C1    C     C_R   0.614942 0.344189 0.617459 0.705163
C2    C     C_R   0.385072 0.844169 0.382498 0.704009
O5    O     O_R   0.452380 0.177430 0.611700 -0.523515
O6    O     O_R   0.547620 0.677430 0.388300 -0.542734
O7    O     O_R   0.413900 0.001890 0.416350 -0.531255
O8    O     O_R   0.586100 0.501890 0.583650 -0.543644
C3    C     C_R   0.435754 0.345644 0.636847 0.741281
C4    C     C_R   0.564288 0.845522 0.363213 0.741755
O9    O     O_3   0.487530 0.337490 0.435890 -0.381915
O10   O     O_3   0.512470 0.837490 0.564110 -0.381281
V1    V     V_3+5 0.502310 0.064660 0.511890 1.497689
V2    V     V_3+5 0.497690 0.564660 0.488110 1.455217
C5    C     C_R   0.611535 0.825045 0.112062 -0.156059
C6    C     C_R   0.388010 0.421484 0.884798 -0.154526
H1    H     H_    0.519518 0.796037 0.163600 0.113699
H2    H     H_    0.479734 0.439800 0.831591 0.113821
H3    H     H_    0.692841 0.853875 0.984555 0.119190
H4    H     H_    0.306841 0.421129 0.013296 0.119842
H5    H     H_    0.585482 0.809790 0.033191 0.119910
H6    H     H_    0.413776 0.454753 0.961987 0.119431
C7    C     C_R   0.605346 0.851615 0.287267 -0.059349
C8    C     C_R   0.394744 0.355699 0.712769 -0.058992
C9    C     C_R   0.932237 0.827446 0.315976 -0.169247
C10   C     C_R   0.067633 0.369289 0.682670 -0.168172
C11   C     C_R   0.896716 0.794146 0.390704 -0.116565
C12   C     C_R   0.102874 0.385804 0.606247 -0.117552
C13   C     C_R   0.825953 0.798536 0.367179 -0.093175
C14   C     C_R   0.173656 0.387454 0.629897 -0.091367
C15   C     C_R   0.788830 0.845785 0.268929 0.091538
C16   C     C_R   0.211186 0.363290 0.730642 0.093033
C17   C     C_R   0.825210 0.862218 0.190816 0.063308
C18   C     C_R   0.174880 0.364237 0.809261 0.063192
C19   C     C_R   0.716379 0.857942 0.243684 0.027887
C20   C     C_R   0.283746 0.357839 0.756532 0.029348
C21   C     C_R   0.682234 0.846135 0.139711 0.112258
C22   C     C_R   0.317598 0.393535 0.858850 0.112546
C23   C     C_R   0.718815 0.856375 0.063944 -0.186680
C24   C     C_R   0.281019 0.400222 0.934717 -0.185803
C25   C     C_R   0.789068 0.872427 0.089075 -0.187181
C26   C     C_R   0.210991 0.377752 0.910898 -0.186936
C27   C     C_R   0.675986 0.882295 0.316341 0.171483
C28   C     C_R   0.324532 0.317748 0.686123 0.171178
C29   C     C_R   0.573866 0.819028 0.185920 -0.221903
C30   C     C_R   0.425704 0.411222 0.811075 -0.219617
C31   C     C_R   0.897146 0.857869 0.215877 -0.070653
C32   C     C_R   0.102923 0.361977 0.784081 -0.070208
H7    H     H_    0.987247 0.820786 0.335248 0.112229
H8    H     H_    0.012571 0.370875 0.663074 0.112330
H9    H     H_    0.801115 0.752913 0.425291 0.165247
H10   H     H_    0.198043 0.419714 0.569086 0.164073
H11   H     H_    0.924112 0.759654 0.466811 0.128251
H12   H     H_    0.075187 0.402494 0.528357 0.127834
H13   H     H_    0.814971 0.883306 0.027593 0.113490
H14   H     H_    0.185122 0.380764 0.972640 0.113413
C33   C     C_R   0.217656 0.023241 0.222849 -0.141904
C34   C     C_R   0.782734 0.523124 0.776102 -0.146640
H15   H     H_    0.193966 0.156215 0.203415 0.121020
H16   H     H_    0.806699 0.656005 0.794824 0.124631
C35   C     C_R   0.282842 0.018763 0.286224 -0.109967
C36   C     C_R   0.717566 0.518683 0.712657 -0.149605
H17   H     H_    0.307040 0.147914 0.313681 0.136725
H18   H     H_    0.693665 0.647750 0.684409 0.134382
C37   C     C_R   0.316096 0.850101 0.313860 -0.033827
C38   C     C_R   0.683945 0.350143 0.686011 -0.034407
C39   C     C_R   0.282333 0.686005 0.276020 -0.149876
C40   C     C_R   0.717376 0.186141 0.724725 -0.107733
H19   H     H_    0.306121 0.553142 0.295469 0.126410
H20   H     H_    0.693312 0.053373 0.705992 0.131578
C41   C     C_R   0.217171 0.690446 0.212560 -0.152247
C42   C     C_R   0.782551 0.190535 0.788136 -0.145179
H21   H     H_    0.193099 0.561198 0.185004 0.120524
H22   H     H_    0.806358 0.061366 0.816379 0.118607
C43   C     C_R   0.183771 0.859109 0.185199 -0.041346
C44   C     C_R   0.816271 0.359074 0.814669 -0.042315
O11   O     O_R   0.913920 0.203370 0.916260 -0.539696
O12   O     O_R   0.086080 0.703370 0.083740 -0.540273
O13   O     O_R   0.047620 0.535540 0.888290 -0.537581
O14   O     O_R   0.952380 0.035540 0.111710 -0.537621
C45   C     C_R   0.063595 0.368423 0.862274 0.683121
C46   C     C_R   0.936451 0.868130 0.137762 0.682782
O15   O     O_R   0.912040 0.532780 0.904220 -0.545874
O16   O     O_R   0.087960 0.032780 0.095780 -0.545582
O17   O     O_R   0.949550 0.708160 0.099720 -0.535315
O18   O     O_R   0.050450 0.208160 0.900280 -0.534859
C47   C     C_R   0.885433 0.364918 0.882981 0.677197
C48   C     C_R   0.114579 0.864944 0.116979 0.676866
O19   O     O_3   0.012480 0.375300 0.064060 -0.378514
O20   O     O_3   0.987520 0.875300 0.935940 -0.377717
V3    V     V_3+5 0.997690 0.648180 0.988110 1.419599
V4    V     V_3+5 0.002310 0.148180 0.011890 1.421764
Br1   Br    Br    0.710792 0.997192 0.447242 -0.604585
Br2   Br    Br    0.291356 0.173205 0.564418 -0.603663

loop_
_geom_bond_atom_site_label_1
_geom_bond_atom_site_label_2
_ccdc_geom_bond_type
C20   C22   A    
C35   H17   S    
O14   V4    S    
C9    C11   A    
C23   C25   A    
O15   V3    S    
O1    C3    A    
C46   O17   A    
O2    C4    A    
C33   C43   A    
C2    O7    A    
C18   C32   A    
C21   C23   A    
O5    C3    A    
C34   C44   A    
C5    H5    S    
C42   H22   S    
C6    H6    S    
C36   C38   A    
C31   C46   S    
H1    C29   S    
C34   H16   S    
C5    C21   A    
C39   H19   S    
C6    C22   A    
O16   V4    S    
C10   C32   A    
C26   H14   S    
C40   C42   A    
C13   C15   A    
C39   C41   A    
C17   C25   A    
C7    C29   A    
C8    C30   A    
C22   C24   A    
C45   O18   A    
O6    V2    S    
C41   H21   S    
C24   C26   A    
C1    C38   S    
C14   H10   S    
O13   C45   A    
C9    H7    S    
C32   C45   S    
O18   V4    S    
C44   C47   S    
C19   C21   A    
C35   C37   A    
C43   C48   S    
C33   H15   S    
C20   C28   A    
O11   V4    S    
O4    C2    A    
O16   C48   A    
O15   C47   A    
C11   H11   S    
C3    C8    S    
C12   H12   S    
C15   C19   A    
C37   C39   A    
C14   C16   A    
O4    V2    S    
C17   C31   A    
O13   V3    S    
O6    C4    A    
O1    V2    S    
C13   H9    S    
O2    V1    S    
H2    C30   S    
H3    C23   S    
C2    C37   S    
O14   C46   A    
C18   C26   A    
C19   C27   A    
C27   Br1   S    
C7    C27   A    
O3    V1    S    
C16   C20   A    
C5    C29   A    
O3    C1    A    
C6    C30   A    
C33   C35   A    
C4    C7    S    
C34   C36   A    
C10   C12   A    
O7    V1    S    
C1    O8    A    
C11   C13   A    
O8    V2    S    
O19   V4    S    
C12   C14   A    
C10   H8    S    
H4    C24   S    
O17   V3    S    
O5    V1    S    
O20   V3    S    
C15   C17   A    
C16   C18   A    
O12   C48   A    
O11   C47   A    
C25   H13   S    
C28   Br2   S    
C38   C40   A    
C42   C44   A    
O9    V2    S    
C41   C43   A    
O10   V1    S    
C40   H20   S    
O12   V3    S    
C8    C28   A    
C9    C31   A    
C36   H18   S    
