data_mof_unit_38767.cif
_audit_creation_date              2013-03-05T15:55:17-0500
_audit_creation_method            fapswitch 2.2
_symmetry_space_group_name_H-M    P1
_symmetry_Int_Tables_number       1
_space_group_crystal_system       triclinic
_cell_length_a                    27.1564
_cell_length_b                    10.628193
_cell_length_c                    9.984603
_cell_angle_alpha                 93.466703
_cell_angle_beta                  89.227561
_cell_angle_gamma                 94.247479
_cell_volume                      2868.49946952

loop_
_atom_site_label
_atom_site_type_symbol
_atom_site_description
_atom_site_fract_x
_atom_site_fract_y
_atom_site_fract_z
_atom_type_partial_charge
O1    O     O_R   0.500000 0.316780 0.614690 -0.603361
O2    O     O_R   0.500000 0.316750 0.385360 -0.518555
C1    C     C_R   0.504283 0.260182 0.496410 1.036336
O3    O     O_R   0.428760 0.500030 0.614650 -0.643024
O4    O     O_R   0.428750 0.500010 0.385320 -0.587286
C2    C     C_R   0.405689 0.504595 0.500038 0.895760
Zn1   Zn    Zn3+2 0.500000 0.500020 0.653130 1.028227
Zn2   Zn    Zn3+2 0.500000 0.499980 0.346870 1.063562
O5    O     O_R   0.500000 0.683250 0.614640 -0.563065
O6    O     O_R   0.500000 0.683220 0.385310 -0.603457
O7    O     O_R   0.571250 0.499990 0.614680 -0.584524
O8    O     O_R   0.571240 0.499970 0.385350 -0.549156
C3    C     C_R   0.494190 0.738567 0.504784 0.887763
C4    C     C_R   0.594138 0.503880 0.499364 1.058500
C5    C     C_R   0.171656 0.520994 0.393948 0.668119
O9    O     O_2   0.188816 0.410799 0.346405 -0.430024
N1    N     N_R   0.202555 0.607566 0.464814 -0.369410
C6    C     C_R   0.185841 0.715836 0.524642 0.592170
C7    C     C_R   0.275780 0.581183 0.600442 -0.153632
C8    C     C_R   0.325300 0.557249 0.610173 -0.153257
C9    C     C_R   0.330696 0.530277 0.368251 -0.312523
C10   C     C_R   0.282029 0.562949 0.357136 0.528531
C11   C     C_R   0.253862 0.584184 0.474336 0.214739
C12   C     C_R   0.104156 0.653640 0.438686 -0.213827
C13   C     C_R   0.122460 0.546108 0.371171 -0.096990
C14   C     C_R   0.090809 0.464471 0.287706 0.389573
C15   C     C_R   0.135493 0.738704 0.518531 -0.075544
C16   C     C_R   0.352792 0.526813 0.494653 -0.076476
H1    H     H_    0.351588 0.511083 0.277068 0.176654
C17   C     C_R   0.647319 0.537517 0.497701 -0.160289
C18   C     C_R   0.976098 0.643298 0.311967 0.103140
C19   C     C_R   0.980618 0.750269 0.535937 -0.019038
C20   C     C_R   0.952381 0.697982 0.424784 -0.020091
C21   C     C_R   0.950437 0.626473 0.188615 0.019884
C22   C     C_R   0.898166 0.625516 0.190153 -0.103226
C23   C     C_R   0.872901 0.648828 0.314320 -0.090255
C24   C     C_R   0.900552 0.692464 0.429267 -0.056287
C25   C     C_R   0.876574 0.724038 0.551209 -0.126882
C26   C     C_R   0.825507 0.698926 0.561443 0.653996
N2    N     N_R   0.799258 0.648386 0.452902 -0.303558
C27   C     C_R   0.821132 0.627424 0.330075 0.614034
C28   C     C_R   0.731971 0.481680 0.459615 0.365338
C29   C     C_R   0.681130 0.443816 0.471561 -0.200814
C30   C     C_R   0.663839 0.667392 0.511849 -0.156568
C31   C     C_R   0.714412 0.703867 0.494753 0.370497
C32   C     C_R   0.747769 0.610869 0.469637 0.233356
O10   O     O_2   0.792716 0.581605 0.225921 -0.533924
C33   C     C_R   0.024500 0.606210 0.330166 0.049780
C34   C     C_R   0.054000 0.674580 0.428799 -0.065289
C35   C     C_R   0.032784 0.761590 0.520378 -0.017811
C36   C     C_R   0.042529 0.498542 0.261269 0.347597
O11   O     O_2   0.217967 0.800266 0.589924 -0.454836
C37   C     C_R   0.115979 0.845730 0.585468 0.389814
H2    H     H_    0.341919 0.565648 0.707630 0.166200
H3    H     H_    0.254582 0.599483 0.691255 0.187638
C38   C     C_R   0.955667 0.780003 0.658890 0.496568
C39   C     C_R   0.904262 0.769932 0.663543 -0.136692
O12   O     O_2   0.802339 0.720607 0.680201 -0.526157
C40   C     C_R   0.063996 0.853820 0.591872 0.313085
H4    H     H_    0.886185 0.790453 0.758998 0.205026
C41   C     C_R   0.555402 0.129983 0.705264 0.466823
C42   C     C_R   0.559276 0.078906 0.830695 -0.443632
H5    H     H_    0.583859 0.125977 0.905544 0.173208
C43   C     C_R   0.529680 0.971083 0.862275 0.447153
C44   C     C_R   0.499442 0.907489 0.764049 0.490013
C45   C     C_R   0.501808 0.947217 0.630019 -0.132094
C46   C     C_R   0.522644 0.068462 0.608268 -0.063867
C47   C     C_R   0.509218 0.124771 0.490694 -0.079545
C48   C     C_R   0.487919 0.051270 0.382070 0.435956
C49   C     C_R   0.470557 0.926297 0.400013 -0.112285
C50   C     C_R   0.484302 0.871305 0.516738 -0.248374
C51   C     C_R   0.443373 0.301440 0.119676 0.545533
C52   C     C_R   0.428336 0.195317 0.034004 -0.383841
H6    H     H_    0.411786 0.110050 0.075141 0.228248
C53   C     C_R   0.428526 0.204918 0.895986 -0.104933
C54   C     C_R   0.436743 0.326522 0.850672 0.088513
C55   C     C_R   0.471017 0.409662 0.922386 -0.072041
C56   C     C_R   0.471856 0.405619 0.065741 0.046303
N3    N     N_R   0.499540 0.498800 0.142780 -0.103802
C57   C     C_R   0.528731 0.587149 0.072962 0.029418
H7    H     H_    0.550872 0.654745 0.877796 0.182199
C58   C     C_R   0.528017 0.585772 0.930839 -0.070770
N4    N     N_R   0.499520 0.498720 0.857170 -0.102443
O13   O     O_3   0.147865 0.939968 0.643938 -0.670164
H8    H     H_    0.133286 0.022154 0.638248 0.355533
O14   O     O_3   0.979346 0.802125 0.780258 -0.720865
H9    H     H_    0.009238 0.753940 0.777347 0.348057
C59   C     C_2   0.628334 0.765387 0.540592 0.424533
H10   H     H_    0.627306 0.844082 0.476533 0.094009
O15   O     O_2   0.601598 0.761636 0.639623 -0.579466
O16   O     O_3   0.733335 0.828756 0.501417 -0.730383
H11   H     H_    0.708681 0.884915 0.539689 0.337911
O17   O     O_3   0.043257 0.954490 0.659361 -0.705819
H12   H     H_    0.063997 0.982877 0.737884 0.365160
O18   O     O_3   0.486027 0.102943 0.259473 -0.740243
H13   H     H_    0.488098 0.034774 0.188395 0.381270
O19   O     O_3   0.585056 0.235304 0.673166 -0.747556
H14   H     H_    0.605522 0.266131 0.751613 0.337801
O20   O     O_3   0.261267 0.575807 0.233545 -0.718483
H15   H     H_    0.285886 0.558137 0.161894 0.339759
O21   O     O_3   0.528950 0.926648 0.989060 -0.769199
H16   H     H_    0.553720 0.978426 0.044865 0.329614
O22   O     O_3   0.464537 0.816609 0.805993 -0.721253
H17   H     H_    0.437608 0.805427 0.739256 0.322872
C60   C     C_2   0.433688 0.856225 0.307435 0.476251
H18   H     H_    0.421170 0.758928 0.323109 0.067709
O23   O     O_2   0.414080 0.907812 0.218424 -0.565564
C61   C     C_2   0.563999 0.686527 0.135420 0.461290
H19   H     H_    0.579873 0.760898 0.075052 0.086028
O24   O     O_2   0.578898 0.685271 0.249090 -0.556781
O25   O     O_3   0.426281 0.305977 0.249141 -0.692796
H20   H     H_    0.403716 0.230417 0.264918 0.356346
C62   C     C_2   0.407965 0.097211 0.808035 0.522207
H21   H     H_    0.394826 0.009334 0.850927 0.087425
O26   O     O_2   0.406124 0.104747 0.686673 -0.547728
C63   C     C_2   0.390553 0.383562 0.819726 0.477256
H22   H     H_    0.386193 0.480949 0.854059 0.028112
O27   O     O_2   0.356708 0.323123 0.760095 -0.519420
O28   O     O_3   0.107484 0.352604 0.233217 -0.677208
H23   H     H_    0.079300 0.287948 0.225778 0.354746
C64   C     C_2   0.664116 0.307261 0.460657 0.451619
H24   H     H_    0.686004 0.238329 0.502982 0.089433
O29   O     O_2   0.626202 0.269877 0.401833 -0.554860
O30   O     O_3   0.767719 0.396545 0.436015 -0.722042
H25   H     H_    0.752715 0.316579 0.393740 0.344318
C65   C     C_2   0.870617 0.606118 0.062244 0.481057
H26   H     H_    0.844363 0.672990 0.037099 0.117916
O31   O     O_2   0.875740 0.513156 0.986795 -0.527347
C66   C     C_2   0.978395 0.630783 0.058620 0.500217
H27   H     H_    0.961502 0.595650 0.964835 0.118422
O32   O     O_2   0.020721 0.678147 0.054328 -0.557611
O33   O     O_3   0.011129 0.421799 0.178649 -0.756378
H28   H     H_    0.030872 0.383839 0.104632 0.358497

loop_
_geom_bond_atom_site_label_1
_geom_bond_atom_site_label_2
_geom_bond_distance
_ccdc_geom_bond_type
Zn1   N4    2.037999 S    
O17   H12   0.990490 S    
C52   H6    1.082438 S    
O18   H13   0.987175 S    
C12   C15   1.412192 A    
H7    C58   1.083407 S    
C37   C40   1.420995 A    
C28   O30   1.383778 S    
C55   C56   1.435120 A    
C38   C39   1.392500 A    
Zn1   O7    1.967548 S    
C60   O23   1.220215 D    
C65   H26   1.085341 S    
C37   O13   1.381388 S    
C35   C40   1.413327 A    
C23   C24   1.415417 A    
C24   C25   1.407346 A    
C62   H21   1.085317 S    
O4    C2    1.298071 A    
O7    C4    1.302448 A    
C5    C13   1.405770 A    
C55   N4    1.368010 A    
C5    O9    1.349729 S    
C61   H19   1.083536 S    
C5    N1    1.369037 A    
C21   C22   1.418660 A    
C28   C32   1.405917 A    
O5    C3    1.292305 A    
C42   C43   1.399659 A    
O13   H8    0.990343 S    
C33   C36   1.414597 A    
C2    C16   1.475117 S    
C22   C23   1.426254 A    
C21   C66   1.496225 S    
C61   O24   1.211187 D    
C47   C48   1.403072 A    
Zn2   N3    2.037239 S    
C51   C56   1.431192 A    
C18   C20   1.406476 A    
C49   C50   1.402022 A    
C53   C62   1.479966 S    
C29   C64   1.488154 S    
C45   C46   1.396559 A    
C51   O25   1.366867 S    
C9    C10   1.398632 A    
C52   C53   1.387881 A    
C17   C30   1.418783 A    
C23   C27   1.415604 A    
C41   C42   1.403014 A    
C4    C17   1.461980 S    
O3    Zn1   1.977490 S    
C14   O28   1.381858 S    
O19   H14   0.991696 S    
C43   O21   1.377004 S    
O2    Zn2   2.007630 S    
C6    O11   1.349014 S    
C46   C47   1.413524 A    
O21   H16   0.991941 S    
C12   C13   1.410533 A    
C57   C58   1.418610 A    
C26   N2    1.365590 A    
O14   H9    0.990557 S    
O33   H28   0.990811 S    
C39   H4    1.083984 S    
C8    C16   1.399947 A    
C13   C14   1.416865 A    
C31   C32   1.398889 A    
C26   O12   1.350284 S    
C9    H1    1.083109 S    
O6    C3    1.310630 A    
C20   C24   1.404583 A    
O1    C1    1.300322 A    
C22   C65   1.484693 S    
C7    C11   1.403056 A    
C53   C54   1.396474 A    
C45   C50   1.415467 A    
C42   H5    1.083161 S    
C25   C39   1.401274 A    
C41   C46   1.420316 A    
C38   O14   1.378912 S    
O20   H15   0.991718 S    
Zn2   O8    1.977486 S    
N1    C6    1.368916 A    
C27   O10   1.348641 S    
C18   C21   1.418645 A    
N1    C11   1.438695 S    
C54   C55   1.406941 A    
O28   H23   0.990442 S    
C19   C35   1.420053 A    
C64   H24   1.085060 S    
C1    C47   1.452883 S    
C8    H2    1.074190 S    
N2    C27   1.368731 A    
C9    C16   1.408388 A    
O8    C4    1.301486 A    
C58   N4    1.350164 A    
C18   C33   1.417027 A    
C17   C29   1.414387 A    
O3    C2    1.317190 A    
C28   C29   1.414739 A    
N2    C32   1.435709 S    
O16   H11   0.987541 S    
C30   C31   1.410112 A    
C66   H27   1.081965 S    
C7    H3    1.082847 S    
C12   C34   1.401999 A    
Zn1   O5    2.007632 S    
C33   C34   1.410015 A    
C65   O31   1.220890 D    
C10   O20   1.381995 S    
O25   H20   0.992491 S    
O1    Zn1   1.962067 S    
C41   O19   1.380976 S    
C6    C15   1.409084 A    
C59   O15   1.219661 D    
C51   C52   1.412485 A    
C48   O18   1.374711 S    
C49   C60   1.497602 S    
O4    Zn2   1.967551 S    
C36   O33   1.381128 S    
C15   C37   1.417448 A    
C3    C50   1.453094 S    
C60   H18   1.084186 S    
C57   C61   1.486061 S    
C19   C20   1.419066 A    
C7    C8    1.392755 A    
O2    C1    1.303399 A    
C14   C36   1.418088 A    
C43   C44   1.397264 A    
C56   N3    1.396719 A    
C25   C26   1.396250 A    
C54   C63   1.477194 S    
C63   O27   1.221857 D    
C63   H22   1.084889 S    
C44   C45   1.426640 A    
C48   C49   1.397251 A    
C31   O16   1.385479 S    
C64   O29   1.220832 D    
N3    C57   1.396453 A    
C59   H10   1.085375 S    
Zn2   O6    1.962067 S    
C34   C35   1.409146 A    
O22   H17   0.991779 S    
C44   O22   1.381814 S    
C10   C11   1.405311 A    
C40   O17   1.381246 S    
C66   O32   1.221466 D    
C30   C59   1.483892 S    
C19   C38   1.424244 A    
O30   H25   0.988158 S    
C62   O26   1.221155 D    
