data_mof_unit_5173.cif
_audit_creation_date              2012-12-10T17:56:19-0500
_audit_creation_method            fapswitch 2.2
_symmetry_space_group_name_H-M    P1
_symmetry_Int_Tables_number       1
_space_group_crystal_system       triclinic
_cell_length_a                    13.098463
_cell_length_b                    10.843858
_cell_length_c                    9.563663
_cell_angle_alpha                 89.176313
_cell_angle_beta                  94.579589
_cell_angle_gamma                 91.549048
_cell_volume                      1353.46890725

loop_
_atom_site_label
_atom_site_type_symbol
_atom_type_description
_atom_site_fract_x
_atom_site_fract_y
_atom_site_fract_z
_atom_type_partial_charge
C1    C     C_R   0.500143 0.262232 0.500829 0.872906
C2    C     C_R   0.499857 0.737768 0.499171 0.872907
C3    C     C_R   0.499903 0.871694 0.498225 -0.258672
C4    C     C_R   0.500097 0.128306 0.501775 -0.258672
C5    C     C_R   0.447561 0.411003 0.071738 -0.054766
C6    C     C_R   0.552438 0.588997 0.928262 -0.054769
C7    C     C_R   0.446289 0.410576 0.924030 0.521326
C8    C     C_R   0.553710 0.589424 0.075969 0.521330
C9    C     C_R   0.301034 0.499782 0.475729 0.854066
C10   C     C_R   0.698967 0.500217 0.524271 0.854065
C11   C     C_R   0.810888 0.504735 0.535639 -0.199723
C12   C     C_R   0.189112 0.495259 0.464362 -0.199711
C13   C     C_R   0.032139 0.457275 0.319366 0.468009
C14   C     C_R   0.967861 0.542708 0.680639 0.468020
C15   C     C_R   0.137895 0.459349 0.337464 -0.258009
C16   C     C_R   0.862106 0.540637 0.662540 -0.257998
C17   C     C_R   0.133474 0.527119 0.578073 0.363364
C18   C     C_R   0.866526 0.472877 0.421927 0.363377
C19   C     C_R   0.025793 0.517366 0.565644 -0.109610
C20   C     C_R   0.974207 0.482622 0.434359 -0.109598
C21   C     C_R   0.478246 0.065791 0.375157 -0.309074
C22   C     C_R   0.521753 0.934209 0.624843 -0.309074
C23   C     C_R   0.478005 0.938243 0.372917 0.669339
C24   C     C_R   0.521995 0.061757 0.627083 0.669339
Cu1   Cu    Cu3+1 0.500000 0.500020 0.640660 1.004083
Cu2   Cu    Cu3+1 0.500000 0.499980 0.359340 1.004087
H1    H     H_    0.819750 0.563777 0.751020 0.201667
H2    H     H_    0.180251 0.436205 0.248986 0.201664
H3    H     H_    0.460437 0.115443 0.277515 0.215558
H4    H     H_    0.539563 0.884557 0.722485 0.215558
H5    H     H_    0.404921 0.340329 0.125114 0.167549
H6    H     H_    0.595079 0.659672 0.874886 0.167549
N1    N     N_R   0.500030 0.500030 0.852080 -0.256875
N2    N     N_R   0.499970 0.499970 0.147920 -0.256874
O1    O     O_R   0.499990 0.319660 0.618740 -0.523680
O2    O     O_R   0.500010 0.680340 0.381260 -0.523680
O3    O     O_R   0.499990 0.319630 0.381170 -0.597323
O4    O     O_R   0.500010 0.680370 0.618830 -0.597323
O5    O     O_R   0.349000 0.499990 0.599490 -0.602364
O6    O     O_R   0.651000 0.500010 0.400510 -0.602354
O7    O     O_R   0.348990 0.499960 0.361920 -0.585525
O8    O     O_R   0.651010 0.500040 0.638080 -0.585526
O9    O     O_3   0.816230 0.423463 0.303102 -0.655318
H7    H     H_    0.787975 0.494671 0.247907 0.324848
O10   O     O_3   0.183768 0.576548 0.696891 -0.655321
H8    H     H_    0.212032 0.505348 0.752093 0.324854
O11   O     O_3   0.988491 0.432333 0.186908 -0.658752
H9    H     H_    0.946871 0.504633 0.157635 0.340665
O12   O     O_3   0.011509 0.567635 0.813101 -0.658764
H10   H     H_    0.053141 0.495340 0.842357 0.340656
F1    F     F_    0.454724 0.880858 0.248731 -0.599955
F2    F     F_    0.545276 0.119142 0.751269 -0.599956
O13   O     O_3   0.389811 0.316793 0.857646 -0.691097
H11   H     H_    0.367074 0.345022 0.762806 0.357337
O14   O     O_3   0.610188 0.683208 0.142354 -0.691092
H12   H     H_    0.632927 0.654978 0.237193 0.357334

loop_
_geom_bond_atom_site_label_1
_geom_bond_atom_site_label_2
_ccdc_geom_bond_type
C12   C17   A    
C24   F2    S    
C6    H6    S    
O14   H12   S    
C6    N1    A    
Cu2   O3    S    
Cu1   O4    S    
C10   O8    A    
C5    C7    A    
C11   C16   A    
C2    O4    A    
C9    O7    A    
C19   C20   A    
C12   C15   A    
C1    O3    A    
O9    H7    S    
C1    C4    S    
C5    N2    A    
C16   H1    S    
C21   C23   A    
C2    C3    S    
Cu1   Cu2   S    
C11   C18   A    
C8    N2    A    
O13   H11   S    
Cu1   O5    S    
C4    C21   A    
C7    N1    A    
Cu2   O6    S    
C15   H2    S    
Cu1   O8    S    
C21   H3    S    
Cu1   O1    S    
C8    O14   S    
Cu2   O2    S    
C17   C19   A    
C17   O10   S    
C18   C20   A    
C13   C15   A    
C4    C24   A    
C9    C12   S    
C14   C16   A    
C14   O12   S    
C10   C11   S    
C7    O13   S    
O10   H8    S    
C9    O5    A    
C1    O1    A    
C10   O6    A    
O12   H10   S    
C22   C24   A    
C2    O2    A    
C13   O11   S    
C3    C22   A    
C6    C8    A    
C22   H4    S    
C13   C20   A    
C3    C23   A    
C18   O9    S    
C23   F1    S    
C14   C19   A    
Cu2   N2    S    
O11   H9    S    
Cu2   O7    S    
Cu1   N1    S    
C5    H5    S    
