data_mof_unit_28483.cif
_audit_creation_date              2012-10-26T21:10:25-0400
_audit_creation_method            fapswitch 2.2
_symmetry_space_group_name_H-M    P1
_symmetry_Int_Tables_number       1
_space_group_crystal_system       triclinic
_cell_length_a                    10.889032
_cell_length_b                    10.931132
_cell_length_c                    9.74352
_cell_angle_alpha                 89.331228
_cell_angle_beta                  90.914121
_cell_angle_gamma                 90.660654
_cell_volume                      1159.46455177

loop_
_atom_site_label
_atom_site_type_symbol
_atom_type_description
_atom_site_fract_x
_atom_site_fract_y
_atom_site_fract_z
_atom_type_partial_charge
C1    C     C_R   0.501630 0.265550 0.500696 0.554792
C2    C     C_R   0.809589 0.566195 0.976120 0.009054
C3    C     C_R   0.782931 0.447273 0.024028 -0.113199
C4    C     C_R   0.262469 0.503001 0.498549 0.537557
C5    C     C_R   0.808037 0.345863 0.944455 -0.133198
C6    C     C_R   0.859832 0.361345 0.815694 -0.096595
C7    C     C_R   0.887327 0.478813 0.765024 0.066232
C8    C     C_2   0.508638 0.935322 0.385695 0.337256
C9    C     C_2   0.492552 0.866666 0.499378 -0.081646
C10   C     C_2   0.501139 0.068940 0.387733 -0.128984
C11   C     C_2   0.508469 0.133598 0.503715 -0.180500
C12   C     C_R   0.205093 0.594615 0.976333 -0.109196
C13   C     C_2   0.451548 0.412098 0.924890 0.100116
C14   C     C_2   0.467013 0.406663 0.078962 -0.004012
C15   C     C_R   0.499068 0.734546 0.499234 0.574013
C16   C     C_R   0.737688 0.500291 0.501512 0.549607
C17   C     C_R   0.214639 0.684449 0.076990 -0.107028
C18   C     C_R   0.168127 0.661666 0.207879 -0.054414
C19   C     C_R   0.112660 0.548196 0.238447 0.056452
C20   C     C_R   0.102962 0.458719 0.136992 -0.079525
C21   C     C_R   0.149455 0.481770 0.006769 -0.104313
C22   C     C_3   0.381053 0.305556 0.865101 -0.325177
C23   C     C_R   0.931824 0.519507 0.379857 -0.157492
C24   C     C_3   0.894018 0.710996 0.794684 -0.392867
C25   C     C_3   0.778828 0.673933 0.064001 -0.402804
C26   C     C_R   0.871822 0.502414 0.504411 -0.004886
C27   C     C_R   0.941682 0.490076 0.627265 -0.034578
C28   C     C_R   0.068587 0.491023 0.620892 -0.163182
C29   C     C_R   0.128532 0.507086 0.496225 -0.006404
C30   C     C_R   0.058805 0.524435 0.374176 -0.034189
C31   C     C_R   0.863643 0.582983 0.845730 0.072993
Cu1   Cu    Cu3+1 0.500020 0.500020 0.638630 0.923665
Cu2   Cu    Cu3+1 0.499980 0.499980 0.361370 0.957731
F1    F     F_    0.530371 0.882987 0.262462 -0.638567
H1    H     H_    0.241293 0.612343 0.875180 0.135438
H2    H     H_    0.257846 0.771700 0.053537 0.125648
H3    H     H_    0.509608 0.581939 0.104614 0.222780
H4    H     H_    0.175068 0.731969 0.285128 0.106507
H5    H     H_    0.059303 0.371255 0.158874 0.104697
H6    H     H_    0.142181 0.411312 0.930334 0.096400
H7    H     H_    0.879931 0.531445 0.285499 0.134685
H8    H     H_    0.120814 0.479281 0.714813 0.125076
H9    H     H_    0.318048 0.264857 0.942159 0.064957
H10   H     H_    0.322321 0.333288 0.777116 0.176233
H11   H     H_    0.445534 0.232597 0.836692 0.141825
H12   H     H_    0.742120 0.432445 0.123345 0.144245
H13   H     H_    0.959052 0.755926 0.867657 0.126168
H14   H     H_    0.937323 0.713089 0.692592 0.133640
H15   H     H_    0.808749 0.765394 0.786096 0.132595
H16   H     H_    0.864213 0.724416 0.093022 0.137822
H17   H     H_    0.715776 0.736108 0.007000 0.146555
H18   H     H_    0.732067 0.645204 0.159583 0.167787
H19   H     H_    0.786761 0.254813 0.982640 0.113334
H20   H     H_    0.878258 0.281542 0.754757 0.103147
H21   H     H_    0.471109 0.906526 0.597129 0.035817
H22   H     H_    0.491960 0.115171 0.288842 0.162828
H23   H     H_    0.523246 0.091409 0.603552 0.089916
H24   H     H_    0.551766 0.564692 0.893841 0.206843
H25   H     H_    0.444572 0.321226 0.130821 0.143445
N1    N     N_2   0.498640 0.498660 0.846910 -0.334618
N2    N     N_2   0.498610 0.498630 0.153040 -0.366692
O1    O     O_R   0.500020 0.321960 0.617040 -0.503407
O2    O     O_R   0.499980 0.321920 0.382900 -0.506315
O3    O     O_R   0.319660 0.500030 0.617070 -0.527362
O4    O     O_R   0.319620 0.499990 0.382930 -0.480779
O5    O     O_R   0.500020 0.678080 0.617100 -0.518721
O6    O     O_R   0.499980 0.678040 0.382960 -0.424353
O7    O     O_R   0.680380 0.500010 0.617070 -0.481285
O8    O     O_R   0.680340 0.499970 0.382930 -0.521570

loop_
_geom_bond_atom_site_label_1
_geom_bond_atom_site_label_2
_ccdc_geom_bond_type
C12   C17   A    
H3    N2    S    
C25   H17   S    
C6    C7    A    
C16   O7    A    
C17   H2    S    
C10   H22   S    
C4    O3    A    
C3    H12   S    
C4    C29   S    
C1    C11   S    
Cu2   O8    S    
Cu2   O2    S    
C15   O6    A    
Cu1   Cu2   S    
C24   H13   S    
C19   C20   A    
C17   C18   A    
C9    C15   S    
C24   C31   S    
Cu2   O4    S    
C13   N1    D    
C8    F1    S    
C13   C14   S    
C1    O1    A    
C12   H1    S    
C14   H25   S    
C15   O5    A    
Cu1   O3    S    
C26   C27   A    
C29   C30   A    
C21   H6    S    
C11   H23   S    
C6    H20   S    
C12   C21   A    
C9    H21   S    
C1    O2    A    
C8    C10   S    
C28   C29   A    
C13   C22   S    
C2    C3    A    
C2    C25   S    
C16   C26   S    
C5    C6    A    
Cu1   O7    S    
C25   H18   S    
C7    C31   A    
C10   C11   D    
Cu1   N1    S    
H24   N1    S    
C24   H14   S    
C23   C30   A    
C14   N2    D    
C22   H11   S    
C7    C27   S    
C20   C21   A    
Cu2   O6    S    
Cu2   N2    S    
C18   C19   A    
C23   C26   A    
C5    H19   S    
C24   H15   S    
C20   H5    S    
C4    O4    A    
C8    C9    D    
Cu1   O1    S    
C3    C5    A    
C18   H4    S    
C19   C30   S    
C25   H16   S    
C22   H10   S    
C16   O8    A    
C22   H9    S    
Cu1   O5    S    
C2    C31   A    
C27   C28   A    
C28   H8    S    
C23   H7    S    
