data_mof_unit_10109.cif
_audit_creation_date              2012-12-10T17:02:46-0500
_audit_creation_method            fapswitch 2.2
_symmetry_space_group_name_H-M    P1
_symmetry_Int_Tables_number       1
_space_group_crystal_system       triclinic
_cell_length_a                    18.549253
_cell_length_b                    19.47222
_cell_length_c                    18.234149
_cell_angle_alpha                 109.395824
_cell_angle_beta                  107.843442
_cell_angle_gamma                 110.410682
_cell_volume                      5115.24281886

loop_
_atom_site_label
_atom_site_type_symbol
_atom_type_description
_atom_site_fract_x
_atom_site_fract_y
_atom_site_fract_z
_atom_type_partial_charge
C1    C     C_R   0.374715 0.382592 0.495205 0.854957
C2    C     C_3   0.806950 0.500426 0.810993 -0.080903
C3    C     C_3   0.835043 0.520505 0.742739 -0.134821
C4    C     C_3   0.785002 0.568619 0.858104 -0.007326
C5    C     C_R   0.360502 0.380471 0.654718 0.342887
C6    C     C_R   0.392307 0.366897 0.725951 -0.110343
C7    C     C_R   0.370993 0.285965 0.711002 -0.189291
C8    C     C_R   0.308148 0.217575 0.627388 -0.084888
C9    C     C_R   0.269017 0.230164 0.556891 0.076546
C10   C     C_R   0.309636 0.310691 0.567013 -0.022104
C11   C     C_R   0.187412 0.168272 0.480527 -0.147454
C12   C     C_R   0.614496 0.497017 0.620055 0.914987
C13   C     C_R   0.164614 0.177268 0.403011 -0.054672
C14   C     C_R   0.222779 0.251125 0.406640 0.012273
C15   C     C_R   0.298634 0.317259 0.489894 -0.185730
C16   C     C_R   0.087201 0.114150 0.320421 0.016774
C17   C     C_R   0.057144 0.135193 0.255795 -0.252353
C18   C     C_R   0.111430 0.207333 0.259092 -0.005291
C19   C     C_R   0.199061 0.258049 0.327840 0.208099
C20   C     C_R   0.217869 0.457550 0.380728 -0.112787
C21   C     C_R   0.149758 0.453431 0.398337 -0.263052
C22   C     C_R   0.090092 0.471859 0.354205 0.040814
C23   C     C_R   0.615114 0.616340 0.493167 0.773620
C24   C     C_R   0.093437 0.486151 0.283293 0.242933
C25   C     C_R   0.167409 0.495949 0.267693 0.031919
C26   C     C_R   0.231524 0.483592 0.320223 0.072754
C27   C     C_R   0.185796 0.525928 0.209567 -0.201412
C28   C     C_R   0.273425 0.560251 0.222640 -0.034119
C29   C     C_R   0.324143 0.527456 0.254866 -0.054167
C30   C     C_R   0.307882 0.495729 0.310988 -0.144720
C31   C     C_R   0.312310 0.625466 0.204421 0.313016
C32   C     C_R   0.387430 0.638015 0.193228 -0.092160
C33   C     C_R   0.424951 0.587878 0.204015 -0.108434
C34   C     C_R   0.380948 0.499923 0.379129 0.776928
C35   C     C_R   0.390984 0.529847 0.231769 0.231213
C36   C     C_R   0.575780 0.735851 0.457487 -0.157306
C37   C     C_R   0.560204 0.800202 0.458616 -0.245329
C38   C     C_R   0.627642 0.876925 0.482273 0.275733
C39   C     C_R   0.712642 0.888948 0.502722 -0.010895
C40   C     C_R   0.729797 0.820797 0.497127 -0.030829
C41   C     C_R   0.659544 0.745296 0.478408 0.119394
C42   C     C_R   0.812569 0.823714 0.512277 -0.133290
C43   C     C_R   0.821248 0.752756 0.510277 0.011307
C44   C     C_R   0.744108 0.675014 0.467514 -0.060839
C45   C     C_3   0.649262 0.406696 0.678690 -0.045154
C46   C     C_R   0.670888 0.676749 0.474329 -0.150723
C47   C     C_R   0.902507 0.753283 0.541563 0.198643
C48   C     C_R   0.903998 0.678352 0.500890 0.193209
C49   C     C_R   0.825476 0.604046 0.437672 -0.180901
C50   C     C_R   0.745045 0.600587 0.420972 -0.062797
C51   C     C_R   0.997955 0.383290 0.876300 0.850377
C52   C     C_R   0.877565 0.500531 0.878537 0.744813
C53   C     C_R   0.995442 0.616559 0.117158 0.777468
C54   C     C_R   0.115959 0.511198 0.127764 0.841940
C55   C     C_R   0.004414 0.885558 0.379910 0.786736
C56   C     C_3   0.719599 0.407357 0.754502 -0.118236
C57   C     C_R   0.119056 0.110237 0.491251 0.814600
C58   C     C_R   0.997889 0.116072 0.620005 0.818509
C59   C     C_R   0.880763 0.886706 0.506309 0.777347
C60   C     C_R   0.985238 0.373374 0.701351 0.138753
C61   C     C_R   0.968198 0.356946 0.614166 0.291421
C62   C     C_R   0.997971 0.308073 0.572339 -0.275593
C63   C     C_R   0.030875 0.267477 0.610718 -0.016985
C64   C     C_R   0.012176 0.256595 0.677224 0.050391
C65   C     C_R   0.001194 0.318325 0.731801 -0.024324
C66   C     C_R   0.006270 0.187452 0.690930 -0.079605
C67   C     C_3   0.764961 0.528147 0.679543 0.014114
C68   C     C_R   0.013415 0.191540 0.773249 -0.033919
C69   C     C_R   0.033337 0.269014 0.839553 0.068232
C70   C     C_R   0.011071 0.323545 0.814717 -0.098924
C71   C     C_R   0.006484 0.125938 0.796123 -0.003194
C72   C     C_R   0.027406 0.143489 0.884555 0.030656
C73   C     C_R   0.067339 0.226241 0.950505 -0.337253
C74   C     C_R   0.075655 0.289831 0.929396 0.030340
C75   C     C_R   0.133473 0.709319 0.300615 -0.223637
C76   C     C_R   0.202737 0.757463 0.387182 0.339701
C77   C     C_R   0.220015 0.838496 0.439170 -0.254566
C78   C     C_3   0.705653 0.561330 0.786526 -0.189689
C79   C     C_R   0.164682 0.867508 0.407817 -0.001354
C80   C     C_R   0.081504 0.809747 0.329895 0.076462
C81   C     C_R   0.071119 0.733182 0.272042 0.033303
C82   C     C_R   0.008287 0.823541 0.308686 -0.147250
C83   C     C_R   0.929878 0.763345 0.225926 0.032035
C84   C     C_R   0.918612 0.683740 0.177601 -0.053695
C85   C     C_R   0.994092 0.676673 0.190785 -0.165303
C86   C     C_R   0.860224 0.777421 0.190223 -0.087962
C87   C     C_R   0.777774 0.710984 0.120393 -0.033615
C88   C     C_R   0.762949 0.629093 0.088505 -0.235774
C89   C     C_3   0.681533 0.497358 0.689758 -0.020684
C90   C     C_R   0.831755 0.614254 0.120034 -0.001581
Cu1   Cu    Cu3+1 0.500360 0.438220 0.438540 0.969123
Cu2   Cu    Cu3+1 0.499640 0.561780 0.561460 0.994843
Cu3   Cu    Cu3+1 0.935530 0.438290 0.997340 0.993058
Cu4   Cu    Cu3+1 0.059130 0.561800 0.997250 1.017566
Cu5   Cu    Cu3+1 0.937870 0.000030 0.437890 0.988062
Cu6   Cu    Cu3+1 0.062130 0.000000 0.562130 1.000830
H1    H     H_    0.432791 0.418953 0.793133 0.153786
H2    H     H_    0.398718 0.275890 0.765334 0.160365
H3    H     H_    0.291815 0.155508 0.618654 0.155537
H4    H     H_    0.993767 0.090852 0.197330 0.189510
H5    H     H_    0.591419 0.394509 0.689676 0.150694
H6    H     H_    0.261331 0.442045 0.417614 0.138640
H7    H     H_    0.145238 0.437927 0.449234 0.127728
H8    H     H_    0.827662 0.548447 0.402079 0.217662
H9    H     H_    0.520164 0.676865 0.436649 0.146722
H10   H     H_    0.495263 0.790851 0.442573 0.143815
H11   H     H_    0.094503 0.241737 0.019399 0.158179
H12   H     H_    0.005845 0.310536 0.516627 0.142213
H13   H     H_    0.696953 0.576804 0.041975 0.182258
H14   H     H_    0.124140 0.649331 0.258470 0.119960
H15   H     H_    0.278989 0.881317 0.502287 0.135367
H16   H     H_    0.749385 0.486591 0.611426 0.156455
H17   H     H_    0.869173 0.839555 0.211722 0.244163
H18   H     H_    0.831670 0.463134 0.699919 -0.000892
H19   H     H_    0.724267 0.623651 0.790590 0.183313
H20   H     H_    0.768614 0.556827 0.907766 0.185262
O1    O     O_R   0.410140 0.357660 0.448100 -0.559246
O2    O     O_R   0.049980 0.462000 0.907580 -0.513657
O3    O     O_R   0.854480 0.447890 0.906670 -0.546966
O4    O     O_R   0.958860 0.552200 0.906600 -0.572609
O5    O     O_R   0.944670 0.538090 0.087010 -0.612827
O6    O     O_R   0.049050 0.642400 0.086940 -0.569847
O7    O     O_R   0.035800 0.447890 0.088000 -0.566387
O8    O     O_R   0.140170 0.552200 0.087920 -0.560267
O9    O     O_R   0.948030 0.909890 0.357850 -0.587585
O10   O     O_R   0.052970 0.909860 0.462770 -0.603600
O11   O     O_R   0.037700 0.090200 0.447550 -0.605501
O12   O     O_R   0.409530 0.462000 0.551910 -0.549910
O13   O     O_R   0.142640 0.090170 0.552470 -0.569972
O14   O     O_R   0.947030 0.090160 0.537260 -0.602291
O15   O     O_R   0.051970 0.090130 0.642170 -0.547485
O16   O     O_R   0.857360 0.909860 0.447560 -0.607223
O17   O     O_R   0.962300 0.909830 0.552480 -0.536421
O18   O     O_R   0.590960 0.447830 0.538760 -0.591225
O19   O     O_R   0.590350 0.552170 0.642570 -0.554498
O20   O     O_R   0.590470 0.538000 0.448090 -0.606954
O21   O     O_R   0.589860 0.642340 0.551900 -0.567289
O22   O     O_R   0.409650 0.447830 0.357430 -0.549967
O23   O     O_R   0.409040 0.552170 0.461240 -0.605747
O24   O     O_R   0.945600 0.357690 0.907660 -0.593920
N1    N     N_2   0.610538 0.336596 0.588784 -0.392862
H21   H     H_    0.561236 0.280763 0.575028 0.273410
C91   C     C_3   0.656380 0.325487 0.537677 -0.560855
H22   H     H_    0.627264 0.257291 0.492487 0.216603
H23   H     H_    0.726408 0.350298 0.579149 0.195586
H24   H     H_    0.648415 0.354739 0.495289 0.230285
N2    N     N_2   0.859977 0.654214 0.908147 -0.388118
H25   H     H_    0.917587 0.658811 0.945209 0.314598
C92   C     C_3   0.851408 0.720672 0.963885 -0.664941
H26   H     H_    0.900303 0.782113 0.976976 0.264443
H27   H     H_    0.865392 0.722229 0.028041 0.231563
H28   H     H_    0.785570 0.713125 0.933402 0.217344
N3    N     N_2   0.794475 0.613546 0.693097 -0.434611
H29   H     H_    0.834458 0.663881 0.756466 0.319885
C93   C     C_3   0.808029 0.627738 0.624754 -0.708574
H30   H     H_    0.811389 0.687954 0.633557 0.239457
H31   H     H_    0.752278 0.576844 0.558943 0.247449
H32   H     H_    0.869250 0.629270 0.628169 0.228172
C94   C     C_2   0.927112 0.587946 0.772180 0.436904
H33   H     H_    0.955896 0.576365 0.729113 0.029396
O25   O     O_2   0.967059 0.656976 0.837953 -0.530748
C95   C     C_2   0.076928 0.220182 0.182702 0.305490
H34   H     H_    0.022488 0.166970 0.119858 0.077383
O26   O     O_2   0.104996 0.289996 0.189639 -0.585297
N4    N     N_2   0.368735 0.460820 0.673325 -0.374807
H35   H     H_    0.414908 0.508777 0.736907 0.272125
C96   C     C_3   0.286887 0.461123 0.645515 -0.682615
H36   H     H_    0.300185 0.525742 0.660475 0.226976
H37   H     H_    0.252892 0.440894 0.681498 0.232440
H38   H     H_    0.243504 0.418814 0.573162 0.218561
C97   C     C_2   0.042756 0.023443 0.293297 0.439719
H39   H     H_    0.072317 0.000225 0.331914 0.098815
O27   O     O_2   0.973322 0.972876 0.225322 -0.568414
N5    N     N_2   0.264292 0.300192 0.308901 -0.417150
H40   H     H_    0.251112 0.335256 0.281292 0.283740
C98   C     C_3   0.287605 0.245258 0.257991 -0.580439
H41   H     H_    0.344814 0.283252 0.253332 0.234396
H42   H     H_    0.232106 0.199700 0.189937 0.193302
H43   H     H_    0.305638 0.210266 0.290603 0.236304
C99   C     C_2   0.498937 0.596347 0.184939 0.322184
H44   H     H_    0.495420 0.597619 0.124921 0.091201
O28   O     O_2   0.566263 0.607221 0.238481 -0.576291
C100  C     C_2   0.026322 0.476490 0.386221 0.322098
H45   H     H_    0.011347 0.444155 0.422534 0.078642
O29   O     O_2   0.993363 0.519450 0.376972 -0.544449
N6    N     N_2   0.023115 0.490546 0.229305 -0.431100
H46   H     H_    0.018032 0.541948 0.261005 0.272526
C101  C     C_3   0.939714 0.412088 0.176114 -0.523252
H47   H     H_    0.894549 0.415610 0.123158 0.227359
H48   H     H_    0.908256 0.399516 0.216524 0.215853
H49   H     H_    0.948632 0.358332 0.144223 0.228659
N7    N     N_2   0.284016 0.685839 0.211920 -0.401091
H50   H     H_    0.265076 0.692937 0.156852 0.318011
C102  C     C_3   0.340820 0.765920 0.292716 -0.706870
H51   H     H_    0.306749 0.802745 0.298620 0.250385
H52   H     H_    0.401907 0.802760 0.292766 0.231597
H53   H     H_    0.357860 0.756091 0.350491 0.230572
C103  C     C_2   0.427926 0.703334 0.170639 0.346336
H54   H     H_    0.498104 0.735217 0.194735 0.085943
O30   O     O_2   0.383601 0.720278 0.122724 -0.536887
N8    N     N_2   0.410709 0.463519 0.220048 -0.396957
H55   H     H_    0.468409 0.474472 0.218774 0.280562
C104  C     C_3   0.339146 0.381080 0.148719 -0.648817
H56   H     H_    0.359906 0.333550 0.145031 0.220488
H57   H     H_    0.320206 0.380835 0.084558 0.233238
H58   H     H_    0.281518 0.362654 0.160118 0.236062
C105  C     C_2   0.674676 0.380412 0.806445 0.405498
H59   H     H_    0.614977 0.319738 0.770884 0.100313
O31   O     O_2   0.701597 0.423306 0.885210 -0.523211
N9    N     N_2   0.609280 0.942441 0.483773 -0.432588
H60   H     H_    0.555167 0.922771 0.426694 0.241155
C106  C     C_3   0.604930 0.986862 0.562100 -0.575963
H61   H     H_    0.597051 0.040544 0.561020 0.241073
H62   H     H_    0.666034 0.012018 0.622793 0.273777
H63   H     H_    0.548104 0.944214 0.564116 0.191114
C107  C     C_2   0.779021 0.975175 0.533163 0.335963
H64   H     H_    0.791584 0.991588 0.485496 0.133633
O32   O     O_2   0.809230 0.030941 0.608312 -0.587548
N10   N     N_2   0.977209 0.822828 0.622563 -0.384303
H65   H     H_    0.037410 0.832854 0.628342 0.250097
C108  C     C_3   0.972162 0.830588 0.702249 -0.551673
H66   H     H_    0.031697 0.887876 0.760750 0.265101
H67   H     H_    0.969881 0.776122 0.710480 0.199916
H68   H     H_    0.914065 0.835961 0.700599 0.248627
N11   N     N_2   0.983644 0.676947 0.518641 -0.393346
H69   H     H_    0.036573 0.730488 0.533449 0.250202
C109  C     C_3   0.004290 0.639823 0.573083 -0.633830
H70   H     H_    0.062691 0.634622 0.575851 0.242005
H71   H     H_    0.948953 0.575593 0.544746 0.230749
H72   H     H_    0.019057 0.679934 0.641414 0.204042
C110  C     C_2   0.664992 0.523517 0.344367 0.470054
H73   H     H_    0.606293 0.525830 0.315660 0.118723
O33   O     O_2   0.663926 0.457025 0.312084 -0.564494
N12   N     N_2   0.000321 0.451287 0.760881 -0.429977
H74   H     H_    0.946359 0.457577 0.746895 0.207755
C111  C     C_3   0.080676 0.524357 0.787371 -0.566411
H75   H     H_    0.091224 0.580597 0.841777 0.235719
H76   H     H_    0.077434 0.536044 0.731176 0.194121
H77   H     H_    0.137391 0.515185 0.812066 0.243752
N13   N     N_2   0.937641 0.401537 0.576381 -0.443290
H78   H     H_    0.925917 0.443973 0.614939 0.237217
C112  C     C_3   0.867901 0.351071 0.485676 -0.695845
H79   H     H_    0.848972 0.392045 0.464066 0.232166
H80   H     H_    0.809686 0.302333 0.480325 0.232392
H81   H     H_    0.889434 0.320614 0.440567 0.235409
C113  C     C_2   0.742142 0.339040 0.718365 0.401876
H82   H     H_    0.807950 0.355379 0.728660 0.037370
O34   O     O_2   0.686922 0.264316 0.678054 -0.559882
C114  C     C_2   0.102921 0.259356 0.598370 0.372750
H83   H     H_    0.110941 0.261020 0.542378 0.057354
O35   O     O_2   0.157962 0.257541 0.654168 -0.540549
C115  C     C_2   0.981093 0.040518 0.732696 0.503008
H84   H     H_    0.920210 0.001972 0.671983 0.064950
O36   O     O_2   0.030719 0.013282 0.747996 -0.529809
C116  C     C_2   0.013176 0.078619 0.912954 0.413347
H85   H     H_    0.050332 0.097462 0.981992 0.045649
O37   O     O_2   0.957583 0.004702 0.861414 -0.535996
C117  C     C_2   0.142457 0.376559 0.001485 0.352281
H86   H     H_    0.162559 0.390907 0.069623 0.077049
O38   O     O_2   0.180985 0.430609 0.986130 -0.527417
N14   N     N_2   0.252451 0.722248 0.419711 -0.424163
H87   H     H_    0.248558 0.671407 0.373155 0.256248
C118  C     C_3   0.333532 0.774843 0.502470 -0.703091
H88   H     H_    0.363093 0.736461 0.515005 0.235590
H89   H     H_    0.320701 0.800979 0.558057 0.241251
H90   H     H_    0.380714 0.826656 0.499624 0.213676
C119  C     C_2   0.203357 0.959804 0.451892 0.372602
H91   H     H_    0.243080 0.997272 0.523348 0.057683
O39   O     O_2   0.197038 0.995208 0.408349 -0.602827
C120  C     C_2   0.705234 0.725574 0.083005 0.373530
H92   H     H_    0.641714 0.672762 0.029789 0.057457
O40   O     O_2   0.715314 0.796390 0.110789 -0.521204
C121  C     C_2   0.808717 0.530863 0.113908 0.482235
H93   H     H_    0.855192 0.524822 0.160895 0.068627
O41   O     O_2   0.736553 0.469140 0.059859 -0.502285
C122  C     C_2   0.631782 0.544783 0.809851 0.302693
H94   H     H_    0.646670 0.578185 0.878215 0.077713
O42   O     O_2   0.555451 0.497394 0.753504 -0.587526

loop_
_geom_bond_atom_site_label_1
_geom_bond_atom_site_label_2
_ccdc_geom_bond_type
C8    C9    A    
C91   H24   S    
C66   C68   A    
C76   N14   S    
C116  O37   D    
C93   H30   S    
N4    H35   S    
C48   N11   S    
C7    H2    S    
C11   C13   A    
C93   H31   S    
C18   C95   S    
C73   C74   A    
C102  H52   S    
Cu5   Cu6   S    
C1    O12   A    
C78   C122  S    
C97   H39   S    
C49   H8    S    
C117  O38   D    
C27   C54   S    
C92   H26   S    
C7    C8    A    
C96   H37   S    
C97   O27   D    
C114  H83   S    
C29   C30   A    
C118  H90   S    
N12   C111  S    
C39   C107  S    
C101  H49   S    
C5    C6    A    
C57   O13   A    
C36   C37   A    
N2    C92   S    
C8    H3    S    
C107  O32   D    
C108  H68   S    
C10   C15   A    
N1    C91   S    
C87   C120  S    
N14   H87   S    
C73   H11   S    
C102  H53   S    
C20   H6    S    
C91   H22   S    
C34   O23   A    
C67   C89   S    
C51   O2    A    
C111  H75   S    
C24   N6    S    
C18   C19   A    
N8    H55   S    
Cu1   O18   S    
C77   H15   S    
C108  H66   S    
N5    H40   S    
C32   C103  S    
C64   C66   A    
N11   C109  S    
C118  H89   S    
Cu4   O4    S    
C94   O25   D    
C58   C66   S    
C98   H43   S    
Cu1   O20   S    
N2    H25   S    
C45   C56   S    
C99   O28   D    
C16   C17   A    
C12   O19   A    
Cu5   O14   S    
C79   C119  S    
C41   C46   A    
Cu1   O1    S    
C24   C25   A    
C98   H41   S    
C103  H54   S    
C1    C15   S    
C51   C70   S    
C5    N4    S    
N3    C93   S    
C45   C89   S    
C9    C10   A    
C22   C100  S    
C81   C85   A    
C72   C73   A    
C51   O24   A    
C40   C42   A    
C102  H51   S    
N4    C96   S    
C23   C46   S    
C12   O18   A    
C13   C14   A    
C33   C99   S    
C45   N1    S    
N8    C104  S    
C94   H33   S    
C36   C41   A    
C69   C70   A    
C84   C90   A    
C47   N10   S    
Cu2   O21   S    
Cu2   O12   S    
C96   H36   S    
C44   C46   A    
N11   H69   S    
C96   H38   S    
C95   O26   D    
C76   C77   A    
C74   C117  S    
C78   C89   S    
C103  O30   D    
C104  H58   S    
C113  O34   D    
C59   O16   A    
C114  O35   D    
C112  H81   S    
Cu6   O13   S    
C30   C34   S    
C39   C40   A    
C23   O21   A    
C105  H59   S    
C6    H1    S    
C55   O9    A    
C12   C89   S    
C118  H88   S    
C60   N12   S    
C107  H64   S    
C78   H19   S    
C80   C82   A    
C92   H28   S    
N10   H65   S    
N14   C118  S    
C86   C87   A    
C68   C69   A    
C92   H27   S    
C25   C26   A    
C4    N2    S    
C56   C113  S    
C31   N7    S    
C34   O22   A    
C38   N9    S    
C63   C64   A    
C32   C33   A    
C60   C61   A    
N7    C102  S    
C37   C38   A    
C2    C4    S    
C75   C76   A    
C28   C31   A    
C100  H45   S    
C4    C78   S    
C62   C63   A    
C2    C52   S    
N10   C108  S    
Cu1   O22   S    
C104  H57   S    
Cu5   O9    S    
C93   H32   S    
C112  H80   S    
C109  H70   S    
C55   O10   A    
C58   O15   A    
C35   N8    S    
C109  H72   S    
N13   C112  S    
C17   C18   A    
C122  O42   D    
C77   C79   A    
Cu6   O10   S    
C69   C74   A    
C110  O33   D    
Cu3   Cu4   S    
C1    O1    A    
C84   C85   A    
C55   C82   S    
C9    C11   A    
C62   H12   S    
Cu6   O17   S    
C45   H5    S    
C2    C56   S    
Cu6   O15   S    
C88   H13   S    
Cu4   O6    S    
C121  O41   D    
C40   C41   A    
C63   C114  S    
C88   C90   A    
C60   C65   A    
C26   C30   A    
N9    C106  S    
C86   H17   S    
C43   C44   A    
Cu5   O16   S    
C49   C50   A    
C120  O40   D    
C83   C84   A    
C54   O7    A    
C42   C43   A    
C72   C116  S    
N6    C101  S    
C116  H85   S    
C52   O4    A    
C71   C115  S    
Cu1   Cu2   S    
C99   H44   S    
C115  O36   D    
C95   H34   S    
C106  H63   S    
C44   C50   A    
C91   H23   S    
C54   O8    A    
C113  H82   S    
C28   C29   A    
C75   H14   S    
C112  H79   S    
C36   H9    S    
C14   C15   A    
C61   N13   S    
C59   O17   A    
C14   C19   A    
C4    H20   S    
C31   C32   A    
C3    C67   S    
Cu3   O7    S    
Cu3   O5    S    
C80   C81   A    
C47   C48   A    
C3    H18   S    
C42   C59   S    
C57   O11   A    
C105  O31   D    
C119  H91   S    
C6    C7    A    
C75   C81   A    
C25   C27   A    
C29   C35   A    
C65   C70   A    
C111  H77   S    
C67   N3    S    
C53   O6    A    
N7    H50   S    
C100  O29   D    
C2    C3    S    
N6    H46   S    
C19   N5    S    
C37   H10   S    
C108  H67   S    
C109  H71   S    
C11   C57   S    
N1    H21   S    
C64   C65   A    
C122  H94   S    
Cu4   O2    S    
C16   C97   S    
C23   O20   A    
C38   C39   A    
C56   C105  S    
C20   C26   A    
Cu2   O19   S    
C58   O14   A    
C68   C71   A    
C48   C49   A    
C98   H42   S    
N13   H78   S    
C33   C35   A    
C111  H76   S    
C117  H86   S    
C90   C121  S    
C22   C24   A    
N9    H60   S    
C61   C62   A    
C17   H4    S    
N5    C98   S    
C101  H48   S    
C106  H62   S    
C3    C94   S    
C53   O5    A    
C79   C80   A    
C21   H7    S    
C52   O3    A    
Cu5   O11   S    
C67   H16   S    
C5    C10   A    
C83   C86   A    
C71   C72   A    
C20   C21   A    
C87   C88   A    
C82   C83   A    
N12   H74   S    
C13   C16   A    
C110  H73   S    
Cu3   O24   S    
Cu4   O8    S    
C120  H92   S    
C101  H47   S    
C53   C85   S    
Cu3   O3    S    
C104  H56   S    
N3    H29   S    
C21   C22   A    
Cu2   O23   S    
C43   C47   A    
C50   C110  S    
C119  O39   D    
C106  H61   S    
C115  H84   S    
C27   C28   A    
C121  H93   S    
