data_mof_unit_53518.cif
_audit_creation_date              2012-12-10T19:44:39-0500
_audit_creation_method            fapswitch 2.2
_symmetry_space_group_name_H-M    P1
_symmetry_Int_Tables_number       1
_space_group_crystal_system       triclinic
_cell_length_a                    8.595016
_cell_length_b                    14.89148
_cell_length_c                    14.290823
_cell_angle_alpha                 89.62421
_cell_angle_beta                  97.644537
_cell_angle_gamma                 90.831927
_cell_volume                      1812.65102674

loop_
_atom_site_label
_atom_site_type_symbol
_atom_type_description
_atom_site_fract_x
_atom_site_fract_y
_atom_site_fract_z
_atom_type_partial_charge
C1    C     C_R   0.503072 0.327841 0.500425 0.889812
C2    C     C_R   0.412356 0.432914 0.886376 0.247669
C3    C     C_R   0.495247 0.504246 0.053420 0.033101
C4    C     C_R   0.504837 0.495331 0.946591 0.033972
C5    C     C_R   0.201969 0.499066 0.476150 0.951005
C6    C     C_R   0.798017 0.500869 0.523855 0.942083
C7    C     C_2   0.039831 0.483731 0.466602 0.116587
C8    C     C_2   0.960133 0.516134 0.533443 0.121223
C9    C     C_R   0.476077 0.088173 0.567515 -0.212372
C10   C     C_R   0.489389 0.911069 0.425343 -0.205610
C11   C     C_R   0.454847 0.179707 0.566300 -0.149472
C12   C     C_R   0.503796 0.672269 0.500111 0.889799
C13   C     C_R   0.468108 0.819180 0.423078 -0.132740
C14   C     C_R   0.524354 0.232380 0.502159 -0.061243
C15   C     C_R   0.525694 0.768184 0.501768 -0.048617
C16   C     C_R   0.618637 0.194330 0.440724 -0.200925
C17   C     C_R   0.609069 0.808435 0.581789 -0.192730
C18   C     C_R   0.643995 0.102170 0.442103 0.159743
C19   C     C_R   0.633991 0.901002 0.584862 0.161203
C20   C     C_R   0.571364 0.049203 0.507082 0.091522
C21   C     C_R   0.572715 0.952207 0.504916 0.086266
C22   C     C_3   0.742457 0.063394 0.371608 -0.399954
C23   C     C_R   0.384720 0.453772 0.098341 -0.226452
C24   C     C_3   0.897697 0.026013 0.419024 -0.801214
C25   C     C_3   0.719143 0.942069 0.674948 -0.407430
C26   C     C_3   0.878314 0.982826 0.661161 -0.793120
C27   C     C_R   0.616015 0.545438 0.901827 -0.225556
C28   C     C_R   0.391333 0.450748 0.196781 -0.063613
C29   C     C_R   0.609431 0.548653 0.803367 -0.064650
C30   C     C_R   0.595785 0.558823 0.212601 0.497344
C31   C     C_R   0.403307 0.441627 0.787270 0.503088
C32   C     C_R   0.586934 0.567159 0.113445 0.245701
Cl1   Cl    Cl    0.964829 0.404832 0.378228 -0.593704
Cl2   Cl    Cl    0.035019 0.594930 0.621932 -0.578308
Cl3   Cl    Cl    0.725811 0.629379 0.285383 -0.487898
Cl4   Cl    Cl    0.271543 0.372152 0.714403 -0.513782
Cl5   Cl    Cl    0.654593 0.671095 0.071943 -0.547923
Cl6   Cl    Cl    0.344169 0.328882 0.927333 -0.546966
H1    H     H_    0.414468 0.047096 0.614015 0.156738
H2    H     H_    0.694817 0.588546 0.771531 0.185915
H3    H     H_    0.962401 0.077255 0.465794 0.262030
H4    H     H_    0.877175 0.964613 0.460100 0.268453
H5    H     H_    0.971557 0.007489 0.364202 0.263578
H6    H     H_    0.676163 0.010325 0.328588 0.222343
H7    H     H_    0.770452 0.116038 0.320638 0.227080
H8    H     H_    0.950075 0.932998 0.629118 0.262999
H9    H     H_    0.863268 0.043763 0.616155 0.266260
H10   H     H_    0.942146 0.002969 0.730714 0.269835
H11   H     H_    0.646281 0.993720 0.702848 0.220943
H12   H     H_    0.436240 0.950698 0.365978 0.155683
H13   H     H_    0.739879 0.890165 0.731361 0.224335
H14   H     H_    0.380813 0.209001 0.613350 0.207376
H15   H     H_    0.402947 0.788263 0.361172 0.181568
H16   H     H_    0.673241 0.236908 0.392169 0.187765
H17   H     H_    0.655153 0.767353 0.641771 0.167236
H18   H     H_    0.285105 0.420709 0.059579 0.233921
H19   H     H_    0.715962 0.578068 0.940806 0.232418
H20   H     H_    0.306467 0.410558 0.228726 0.193997
N1    N     N_R   0.500000 0.499980 0.252470 -0.151649
N2    N     N_R   0.500000 0.500020 0.747530 -0.147702
O1    O     O_R   0.500010 0.369070 0.579480 -0.584179
O2    O     O_R   0.499990 0.630930 0.420520 -0.586125
O3    O     O_R   0.500010 0.369060 0.420520 -0.617413
O4    O     O_R   0.499990 0.630940 0.579480 -0.617125
O5    O     O_R   0.271750 0.500000 0.560890 -0.549499
O6    O     O_R   0.728250 0.500000 0.439110 -0.553560
O7    O     O_R   0.271750 0.499990 0.401930 -0.601786
O8    O     O_R   0.728250 0.500010 0.598070 -0.603600
Zn1   Zn    Zn3+2 0.500000 0.500010 0.606140 1.054560
Zn2   Zn    Zn3+2 0.500000 0.499990 0.393860 1.051766

loop_
_geom_bond_atom_site_label_1
_geom_bond_atom_site_label_2
_ccdc_geom_bond_type
C31   N2    A    
C2    C4    A    
C25   H13   S    
C13   H15   S    
C23   C28   A    
C1    C14   S    
C28   H20   S    
C27   C29   A    
C9    C11   A    
C17   H17   S    
C9    C20   A    
C3    C23   A    
C29   N2    A    
C26   H10   S    
C5    O7    A    
O7    Zn2   S    
C30   N1    A    
C22   H7    S    
C16   H16   S    
C6    O8    A    
C5    C7    S    
C7    C8    D    
C8    Cl2   S    
O4    Zn1   S    
C30   C32   A    
C24   H3    S    
C7    Cl1   S    
C23   H18   S    
O6    Zn2   S    
C30   Cl3   S    
O5    Zn1   S    
C26   H9    S    
C29   H2    S    
N2    Zn1   S    
C17   C19   A    
C12   C15   S    
C25   H11   S    
C13   C15   A    
C10   C21   A    
C3    C32   A    
C12   O4    A    
C11   C14   A    
C14   C16   A    
C28   N1    A    
C5    O5    A    
C32   Cl5   S    
C24   H4    S    
C26   H8    S    
C19   C25   S    
C3    C4    S    
C10   H12   S    
C1    O3    A    
C6    O6    A    
C4    C27   A    
C12   O2    A    
C20   C21   S    
O2    Zn2   S    
C18   C20   A    
C16   C18   A    
C27   H19   S    
C22   C24   S    
O1    Zn1   S    
C15   C17   A    
C24   H5    S    
C2    Cl6   S    
C31   Cl4   S    
C2    C31   A    
C6    C8    S    
C11   H14   S    
N1    Zn2   S    
C19   C21   A    
C25   C26   S    
C18   C22   S    
C9    H1    S    
C22   H6    S    
O3    Zn2   S    
O8    Zn1   S    
C10   C13   A    
C1    O1    A    
