data_mof_unit_60973.cif
_audit_creation_date              2012-12-10T21:01:06-0500
_audit_creation_method            fapswitch 2.2
_symmetry_space_group_name_H-M    P1
_symmetry_Int_Tables_number       1
_space_group_crystal_system       triclinic
_cell_length_a                    15.865749
_cell_length_b                    15.106067
_cell_length_c                    10.52357
_cell_angle_alpha                 90.377308
_cell_angle_beta                  90.144464
_cell_angle_gamma                 89.923388
_cell_volume                      2522.10930375

loop_
_atom_site_label
_atom_site_type_symbol
_atom_type_description
_atom_site_fract_x
_atom_site_fract_y
_atom_site_fract_z
_atom_type_partial_charge
Br1   Br    Br    0.326366 0.410967 0.891275 -0.520022
Br2   Br    Br    0.673717 0.589020 0.108819 -0.556710
C1    C     C_R   0.339016 0.500049 0.500104 0.918578
C2    C     C_R   0.087110 0.500124 0.499974 0.057830
C3    C     C_R   0.499774 0.499654 0.256836 0.930561
C4    C     C_R   0.500267 0.500347 0.743166 0.928678
C5    C     C_1   0.250823 0.500142 0.500087 -0.138124
C6    C     C_1   0.749156 0.499878 0.499850 -0.153908
C7    C     C_R   0.502879 0.952480 0.384249 0.112530
C8    C     C_R   0.497179 0.047866 0.614889 0.108940
C9    C     C_R   0.497187 0.953704 0.615306 0.052014
C10   C     C_R   0.502858 0.046334 0.384118 0.085068
C11   C     C_R   0.500032 0.905026 0.499839 -0.076788
C12   C     C_R   0.660978 0.499953 0.499883 0.923260
C13   C     C_R   0.500010 0.094988 0.499566 -0.062467
C14   C     C_3   0.433009 0.546360 0.042639 -0.250226
C15   C     C_3   0.567086 0.453651 0.957367 -0.248367
C16   C     C_3   0.504912 0.584699 0.960622 -0.200828
C17   C     C_3   0.495183 0.415312 0.039387 -0.199398
C18   C     C_3   0.429085 0.463216 0.957500 0.319459
C19   C     C_3   0.571009 0.536794 0.042515 0.315888
C20   C     C_3   0.500242 0.501061 0.877692 -0.089461
C21   C     C_3   0.499847 0.498948 0.122315 -0.088931
C22   C     C_1   0.500016 0.806981 0.499938 0.058578
C23   C     C_1   0.823853 0.499910 0.499878 -0.057597
C24   C     C_1   0.500000 0.193014 0.499864 0.114804
C25   C     C_1   0.176117 0.500156 0.500025 0.052743
C26   C     C_R   0.955996 0.508658 0.384078 0.035804
C27   C     C_R   0.044354 0.491525 0.615532 0.070001
C28   C     C_R   0.043948 0.508665 0.384388 0.067904
C29   C     C_R   0.956406 0.491447 0.615799 0.035756
C30   C     C_R   0.912891 0.500001 0.499922 0.035597
H1    H     H_    0.378263 0.583343 0.081677 0.170949
H2    H     H_    0.439658 0.077880 0.780994 0.214014
H3    H     H_    0.452587 0.865834 0.257775 0.189547
H4    H     H_    0.559311 0.865727 0.264197 0.203021
H5    H     H_    0.072526 0.465370 0.207193 0.215234
H6    H     H_    0.072378 0.576861 0.225232 0.208864
H7    H     H_    0.873817 0.538216 0.746632 0.208532
H8    H     H_    0.873970 0.426579 0.728556 0.198928
H9    H     H_    0.873007 0.573590 0.271390 0.229758
H10   H     H_    0.873077 0.461976 0.253158 0.212354
H11   H     H_    0.073601 0.423280 0.774626 0.220680
H12   H     H_    0.621836 0.416676 0.918328 0.168911
H13   H     H_    0.073360 0.534767 0.792797 0.210066
H14   H     H_    0.509444 0.653550 0.925003 0.177114
H15   H     H_    0.490652 0.346462 0.075010 0.176646
H16   H     H_    0.452508 0.131813 0.257503 0.190246
H17   H     H_    0.559226 0.131715 0.263859 0.185437
H18   H     H_    0.440808 0.868227 0.735480 0.196203
H19   H     H_    0.547551 0.868131 0.741839 0.199714
H20   H     H_    0.546321 0.077762 0.787398 0.205693
N1    N     N_1   0.500000 0.270550 0.500000 -0.087349
N2    N     N_3   0.090824 0.482899 0.732033 -0.414025
N3    N     N_1   0.500000 0.729450 0.500000 -0.085986
N4    N     N_3   0.505779 0.091305 0.264616 -0.421947
N5    N     N_3   0.494267 0.908616 0.734743 -0.461922
N6    N     N_3   0.494269 0.096264 0.732487 -0.434451
N7    N     N_3   0.505848 0.906274 0.264847 -0.417052
N8    N     N_3   0.090000 0.517299 0.267893 -0.443140
N9    N     N_3   0.912375 0.482674 0.734064 -0.459103
N10   N     N_3   0.911544 0.517501 0.265814 -0.449184
O1    O     O_R   0.378020 0.573650 0.500040 -0.619650
O2    O     O_R   0.621980 0.426350 0.499960 -0.621273
O3    O     O_R   0.621980 0.573650 0.499960 -0.596258
O4    O     O_R   0.378020 0.426350 0.500040 -0.594321
O5    O     O_R   0.499980 0.573650 0.313960 -0.600370
O6    O     O_R   0.500020 0.426350 0.686040 -0.594796
O7    O     O_R   0.500020 0.573650 0.686040 -0.628900
O8    O     O_R   0.499980 0.426350 0.313960 -0.631161
Zn1   Zn    Zn3+2 0.500000 0.598370 0.500000 0.995294
Zn2   Zn    Zn3+2 0.500000 0.401630 0.500000 1.002517

loop_
_geom_bond_atom_site_label_1
_geom_bond_atom_site_label_2
_ccdc_geom_bond_type
C17   C18   S    
C4    O7    A    
C17   C21   S    
C15   C19   S    
N3    Zn1   S    
C3    O8    A    
H19   N5    S    
C1    O1    A    
C14   H1    S    
H17   N4    S    
H10   N10   S    
H11   N2    S    
C1    C5    S    
C15   C20   S    
C3    C21   S    
C10   C13   A    
O6    Zn2   S    
C14   C18   S    
H4    N7    S    
C12   O2    A    
C9    N5    S    
C23   C30   S    
C4    O6    A    
C15   H12   S    
C5    C25   T    
C26   C28   A    
C27   C29   A    
C16   C20   S    
C22   N3    T    
H2    N6    S    
C6    C23   T    
C9    C11   A    
C10   N4    S    
H20   N6    S    
H9    N10   S    
Br2   C19   S    
H6    N8    S    
C16   H14   S    
Br1   C18   S    
C14   C16   S    
C8    N6    S    
C12   O3    A    
O1    Zn1   S    
H13   N2    S    
C14   C21   S    
O5    Zn1   S    
C8    C13   A    
O2    Zn2   S    
C19   C21   S    
H7    N9    S    
C7    C10   A    
C17   H15   S    
H5    N8    S    
O7    Zn1   S    
C8    C9    A    
O4    Zn2   S    
C3    O5    A    
C7    C11   A    
C1    O4    A    
C16   C19   S    
C24   N1    T    
C26   C30   A    
C2    C25   S    
C28   N8    S    
H3    N7    S    
C27   N2    S    
H16   N4    S    
C29   N9    S    
C13   C24   S    
O8    Zn2   S    
C4    C20   S    
C6    C12   S    
N1    Zn2   S    
C15   C17   S    
O3    Zn1   S    
H18   N5    S    
C2    C28   A    
H8    N9    S    
C29   C30   A    
C11   C22   S    
C18   C20   S    
C2    C27   A    
C7    N7    S    
C26   N10   S    
