data_mof_unit_20115.cif
_audit_creation_date              2013-03-05T15:47:34-0500
_audit_creation_method            fapswitch 2.2
_symmetry_space_group_name_H-M    P1
_symmetry_Int_Tables_number       1
_space_group_crystal_system       triclinic
_cell_length_a                    7.224402
_cell_length_b                    15.868972
_cell_length_c                    22.055636
_cell_angle_alpha                 89.999527
_cell_angle_beta                  90.007893
_cell_angle_gamma                 90.007001
_cell_volume                      2528.54260855

loop_
_atom_site_label
_atom_site_type_symbol
_atom_site_description
_atom_site_fract_x
_atom_site_fract_y
_atom_site_fract_z
_atom_type_partial_charge
O1    O     O_R   0.390810 0.844810 0.447340 -0.553698
O2    O     O_R   0.109190 0.155190 0.947340 -0.553705
O3    O     O_R   0.890810 0.655190 0.552660 -0.553747
O4    O     O_R   0.609190 0.344810 0.052660 -0.553698
O5    O     O_R   0.720550 0.655820 0.440420 -0.576206
O6    O     O_R   0.779450 0.344180 0.940420 -0.576031
O7    O     O_R   0.220550 0.844180 0.559580 -0.576038
O8    O     O_R   0.279450 0.155820 0.059580 -0.576070
C1    C     C_R   0.553840 0.624903 0.429020 1.110348
C2    C     C_R   0.946129 0.375113 0.929026 1.109912
C3    C     C_R   0.053886 0.875113 0.570974 1.109929
C4    C     C_R   0.446128 0.124883 0.070968 1.110043
O9    O     O_R   0.720530 0.844130 0.440420 -0.601399
O10   O     O_R   0.779470 0.155870 0.940420 -0.601412
O11   O     O_R   0.220530 0.655870 0.559580 -0.601336
O12   O     O_R   0.279470 0.344130 0.059580 -0.601410
O13   O     O_R   0.890830 0.844810 0.552660 -0.573135
O14   O     O_R   0.609170 0.155190 0.052660 -0.573213
O15   O     O_R   0.390830 0.655190 0.447340 -0.573308
O16   O     O_R   0.109170 0.344810 0.947340 -0.573140
C5    C     C_R   0.553403 0.870900 0.425061 1.036803
C6    C     C_R   0.946588 0.129111 0.925055 1.036662
C7    C     C_R   0.053401 0.629109 0.574943 1.036165
C8    C     C_R   0.446620 0.370885 0.074946 1.036640
O17   O     O_3   0.557310 0.749980 0.536820 -0.268158
O18   O     O_3   0.942690 0.250020 0.036820 -0.268327
O19   O     O_3   0.057310 0.750020 0.463180 -0.268384
O20   O     O_3   0.442690 0.249980 0.963180 -0.268225
V1    V     V_3+5 0.832160 0.749980 0.493170 1.352165
V2    V     V_3+5 0.667840 0.250020 0.993170 1.352316
V3    V     V_3+5 0.332160 0.750020 0.506830 1.352302
V4    V     V_3+5 0.167840 0.249980 0.006830 1.352237
C9    C     C_R   0.760581 0.573806 0.860606 0.302742
C10   C     C_R   0.738403 0.425876 0.360828 0.302684
C11   C     C_R   0.260614 0.926157 0.139362 0.302736
C12   C     C_R   0.239518 0.073803 0.639408 0.302711
C13   C     C_R   0.940003 0.451008 0.890238 -0.313969
C14   C     C_R   0.559802 0.548993 0.390258 -0.314036
C15   C     C_R   0.440014 0.048981 0.109750 -0.313986
C16   C     C_R   0.060049 0.951005 0.609766 -0.313962
C17   C     C_R   0.172678 0.492881 0.605563 -0.077679
C18   C     C_R   0.327529 0.507145 0.105532 -0.077930
C19   C     C_R   0.672802 0.007113 0.394427 -0.077868
C20   C     C_R   0.827266 0.992879 0.894431 -0.077924
C21   C     C_R   0.231253 0.435762 0.648648 0.030204
C22   C     C_R   0.268912 0.564259 0.148606 0.030140
C23   C     C_R   0.731643 0.064144 0.351317 0.030361
C24   C     C_R   0.768694 0.935754 0.851345 0.030018
C25   C     C_R   0.169507 0.441542 0.708072 -0.061476
C26   C     C_R   0.330544 0.558456 0.208047 -0.061591
C27   C     C_R   0.670034 0.058298 0.291875 -0.060954
C28   C     C_R   0.830456 0.941538 0.791922 -0.061333
C29   C     C_R   0.046403 0.505663 0.726589 0.081884
C30   C     C_R   0.453602 0.494323 0.226593 0.081644
C31   C     C_R   0.546626 0.994269 0.273383 0.081870
C32   C     C_R   0.953587 0.005663 0.773409 0.081902
C33   C     C_R   0.996867 0.569036 0.683098 -0.087897
C34   C     C_R   0.503122 0.430942 0.183115 -0.088177
C35   C     C_R   0.496921 0.930948 0.316890 -0.087972
C36   C     C_R   0.003123 0.069041 0.816900 -0.087935
C37   C     C_R   0.976341 0.509753 0.787472 0.052278
C38   C     C_R   0.523525 0.490203 0.287503 0.052279
C39   C     C_R   0.476463 0.990203 0.212504 0.052275
C40   C     C_R   0.023683 0.009752 0.712530 0.052247
C41   C     C_R   0.850628 0.574833 0.803199 -0.221933
C42   C     C_R   0.648834 0.424987 0.303320 -0.222175
C43   C     C_R   0.350674 0.925135 0.196776 -0.221950
C44   C     C_R   0.149432 0.074833 0.696808 -0.221901
C45   C     C_R   0.826119 0.642830 0.762990 0.312917
C46   C     C_R   0.673397 0.357029 0.263080 0.312635
C47   C     C_R   0.326108 0.857151 0.236993 0.312883
C48   C     C_R   0.173933 0.142836 0.737014 0.312944
C49   C     C_R   0.899298 0.640445 0.704170 0.194140
C50   C     C_R   0.600540 0.359503 0.204213 0.194276
C51   C     C_R   0.399256 0.859553 0.295824 0.194096
C52   C     C_R   0.100722 0.140453 0.795830 0.194064
C53   C     C_R   0.024348 0.450362 0.833070 -0.086931
C54   C     C_R   0.475708 0.549691 0.333047 -0.087651
C55   C     C_R   0.524404 0.049621 0.166918 -0.086958
C56   C     C_R   0.975673 0.950358 0.666930 -0.086913
C57   C     C_R   0.810226 0.513988 0.904393 0.228115
C58   C     C_R   0.689029 0.485844 0.404538 0.227925
C59   C     C_R   0.310242 0.985987 0.095582 0.228038
C60   C     C_R   0.189870 0.013984 0.595619 0.228120
C61   C     C_R   0.060015 0.561199 0.621356 -0.141537
C62   C     C_R   0.440076 0.438799 0.121355 -0.141628
C63   C     C_R   0.560047 0.938805 0.378640 -0.141723
C64   C     C_R   0.939949 0.061203 0.878640 -0.141594
H1    H     H_    0.120974 0.400408 0.824978 0.189282
H2    H     H_    0.379455 0.599769 0.324880 0.189449
H3    H     H_    0.620959 0.099610 0.175028 0.189340
H4    H     H_    0.879017 0.900405 0.675017 0.189266
N1    N     N_R   0.721001 0.514477 0.962715 0.254292
O21   O     O_R   0.819482 0.510390 0.012039 -0.392791
O22   O     O_R   0.541328 0.512258 0.966542 -0.371511
N2    N     N_R   0.777864 0.485265 0.462936 0.254230
O23   O     O_R   0.957555 0.486879 0.466914 -0.370979
O24   O     O_R   0.679118 0.489723 0.512179 -0.393048
N3    N     N_R   0.221016 0.985492 0.037250 0.254271
O25   O     O_R   0.041332 0.987609 0.033405 -0.371429
O26   O     O_R   0.319495 0.989661 0.987935 -0.392884
N4    N     N_R   0.279123 0.014475 0.537301 0.254301
O27   O     O_R   0.180661 0.010395 0.487972 -0.392768
O28   O     O_R   0.458796 0.012256 0.533481 -0.371432
N5    N     N_R   0.763027 0.722003 0.785922 0.250186
O29   O     O_R   0.855370 0.758132 0.829342 -0.370328
O30   O     O_R   0.606881 0.753965 0.767597 -0.326729
N6    N     N_R   0.736208 0.277802 0.285986 0.250159
O31   O     O_R   0.642975 0.241417 0.329092 -0.369841
O32   O     O_R   0.892665 0.245930 0.267875 -0.327251
N7    N     N_R   0.263039 0.777968 0.214058 0.250179
O33   O     O_R   0.355431 0.741846 0.170658 -0.370369
O34   O     O_R   0.106882 0.745988 0.232358 -0.326747
N8    N     N_R   0.237040 0.222012 0.714078 0.250183
O35   O     O_R   0.144733 0.258117 0.670643 -0.370298
O36   O     O_R   0.393170 0.253997 0.732411 -0.326690
N9    N     N_R   0.606719 0.628468 0.873011 0.276616
O37   O     O_R   0.609564 0.678268 0.919892 -0.255034
O38   O     O_R   0.455692 0.621610 0.841229 -0.330074
N10   N     N_R   0.891398 0.370814 0.373477 0.276658
O39   O     O_R   0.886912 0.320812 0.420246 -0.255120
O40   O     O_R   0.043469 0.377712 0.342228 -0.329113
N11   N     N_R   0.106773 0.871467 0.126941 0.276631
O41   O     O_R   0.109686 0.821640 0.080074 -0.255016
O42   O     O_R   0.955701 0.878326 0.158686 -0.330067
N12   N     N_R   0.393416 0.128466 0.627013 0.276619
O43   O     O_R   0.390636 0.178260 0.580128 -0.254843
O44   O     O_R   0.544403 0.121624 0.658815 -0.330069
H5    H     H_    0.226864 0.486921 0.559910 0.174820
H6    H     H_    0.273419 0.513121 0.059865 0.174793
H7    H     H_    0.726914 0.013109 0.440093 0.174786
H8    H     H_    0.773072 0.986913 0.940083 0.174786
H9    H     H_    0.223152 0.395065 0.738618 0.177822
H10   H     H_    0.276758 0.604899 0.238586 0.177787
H11   H     H_    0.724038 0.104645 0.261294 0.177706
H12   H     H_    0.776809 0.895059 0.761375 0.177806
H13   H     H_    0.328299 0.386943 0.635833 0.204829
H14   H     H_    0.171889 0.613082 0.135771 0.204801
H15   H     H_    0.828763 0.112955 0.364123 0.204679
H16   H     H_    0.671642 0.886925 0.864157 0.204774
N13   N     N_R   0.905799 0.717616 0.671393 0.203171
O45   O     O_R   0.058432 0.760967 0.672603 -0.449882
O46   O     O_R   0.753241 0.752588 0.652791 -0.371146
N14   N     N_R   0.594172 0.282369 0.171392 0.203172
O47   O     O_R   0.441586 0.238983 0.172560 -0.449964
O48   O     O_R   0.746819 0.247418 0.152858 -0.371285
N15   N     N_R   0.405749 0.782389 0.328605 0.203127
O49   O     O_R   0.558427 0.739085 0.327447 -0.450053
O50   O     O_R   0.253194 0.747393 0.347191 -0.371254
N16   N     N_R   0.094220 0.217626 0.828603 0.203145
O51   O     O_R   0.941584 0.260958 0.827395 -0.449897
O52   O     O_R   0.246776 0.252614 0.847208 -0.371175

loop_
_geom_bond_atom_site_label_1
_geom_bond_atom_site_label_2
_geom_bond_distance
_ccdc_geom_bond_type
O17   V3    1.755836 S    
C17   H5    1.084519 S    
C5    C63   1.487201 S    
O1    C5    1.338904 A    
N12   O43   1.301582 A    
C31   C35   1.435073 A    
O19   V1    1.756004 S    
C60   N4    1.438919 S    
C16   C60   1.405578 A    
O3    C7    1.338850 A    
N15   O49   1.299883 A    
C48   C52   1.401481 A    
O15   V3    2.041120 S    
C10   C42   1.423889 A    
N8    O35   1.300234 A    
C36   C64   1.441577 A    
C9    C41   1.423664 A    
N11   O41   1.301609 A    
C39   C55   1.421239 A    
C54   H2    1.071258 S    
C9    N9    1.436374 S    
N5    O30   1.301205 A    
C53   H1    1.071313 S    
C26   C30   1.411936 A    
C2    C13   1.477964 S    
C40   C44   1.418458 A    
O9    V1    2.058201 S    
N15   O50   1.300413 A    
N9    O38   1.301306 A    
C30   C34   1.435058 A    
O4    C8    1.338835 A    
C25   C29   1.411895 A    
N11   O42   1.301334 A    
C48   N8    1.429092 S    
O1    V3    2.040529 S    
O13   V1    2.040969 S    
N6    O31   1.300384 A    
O2    V4    2.040470 S    
C18   C22   1.379695 A    
C33   C49   1.413237 A    
O3    V1    2.040530 S    
C50   N14   1.422818 S    
C29   C37   1.436582 A    
C1    O15   1.334695 A    
C23   C27   1.387575 A    
N7    O33   1.300247 A    
C2    O16   1.334830 A    
C47   N7    1.429061 S    
C46   C50   1.401475 A    
N2    O24   1.301429 A    
C16   C56   1.400516 A    
C45   C49   1.401474 A    
C18   C62   1.399764 A    
C11   C43   1.423687 A    
C19   C23   1.379788 A    
C55   H3    1.071304 S    
C44   C48   1.407894 A    
C22   H14   1.082483 S    
O11   C7    1.324001 A    
O12   C8    1.324040 A    
C59   N3    1.438937 S    
C14   C58   1.405401 A    
C40   C56   1.421252 A    
C13   C57   1.405577 A    
N4    O27   1.301408 A    
C27   H11   1.071478 S    
O10   V2    2.058341 S    
C34   C62   1.441637 A    
N10   O40   1.301583 A    
O5    V1    2.058129 S    
C10   N10   1.436369 S    
C39   C43   1.418459 A    
O7    V3    2.058398 S    
C38   C42   1.418590 A    
C28   C32   1.411883 A    
O8    V4    2.058259 S    
C58   N2    1.439001 S    
C18   H6    1.084516 S    
C26   H10   1.071450 S    
C37   C53   1.421244 A    
C45   N5    1.429095 S    
O18   V4    1.756004 S    
C49   N13   1.422850 S    
C14   C54   1.400426 A    
C27   C31   1.411841 A    
C51   N15   1.422805 S    
C13   C53   1.400506 A    
O11   V3    2.058184 S    
C36   C52   1.413231 A    
C32   C36   1.435105 A    
C31   C39   1.436584 A    
C15   C55   1.400505 A    
C56   H4    1.071312 S    
O7    C3    1.324413 A    
O5    C1    1.324475 A    
C57   N1    1.438913 S    
N3    O25   1.301301 A    
C52   N16   1.422854 S    
O8    C4    1.324438 A    
C24   H16   1.082482 S    
N2    O23   1.301354 A    
C21   H13   1.082482 S    
C21   C25   1.387569 A    
O9    C5    1.324012 A    
N7    O34   1.301206 A    
N1    O21   1.301408 A    
N4    O28   1.301255 A    
C19   H7    1.084515 S    
O14   V2    2.041028 S    
N14   O48   1.300427 A    
O6    V2    2.058241 S    
C6    C64   1.487140 S    
N13   O45   1.299877 A    
C28   H12   1.071458 S    
N16   O52   1.300407 A    
C20   H8    1.084515 S    
C4    O14   1.334824 A    
C35   C51   1.413181 A    
N10   O39   1.301806 A    
C34   C50   1.413197 A    
O16   V4    2.041029 S    
C25   H9    1.071461 S    
C3    O13   1.334831 A    
N12   O44   1.301306 A    
N3    O26   1.301450 A    
C38   C54   1.421181 A    
C12   N12   1.436373 S    
N14   O47   1.299870 A    
C29   C33   1.435103 A    
O6    C2    1.324399 A    
N8    O36   1.301201 A    
C12   C44   1.423666 A    
C11   C59   1.400849 A    
O12   V4    2.058072 S    
C17   C61   1.399801 A    
N5    O29   1.300234 A    
C22   C26   1.387566 A    
C19   C63   1.399831 A    
O10   C6    1.324021 A    
C4    C15   1.477956 S    
N13   O46   1.300411 A    
C15   C59   1.405561 A    
O20   V2    1.755835 S    
C46   N6    1.428951 S    
O2    C6    1.338845 A    
C47   C51   1.401477 A    
C32   C40   1.436583 A    
C42   C46   1.407924 A    
C8    C62   1.487107 S    
C12   C60   1.400838 A    
C41   C45   1.407891 A    
C11   N11   1.436372 S    
C1    C14   1.477791 S    
N6    O32   1.301241 A    
C43   C47   1.407887 A    
C3    C16   1.477979 S    
C35   C63   1.441597 A    
C37   C41   1.418470 A    
C24   C28   1.387571 A    
N1    O22   1.301252 A    
C7    C61   1.487125 S    
C23   H15   1.082516 S    
C17   C21   1.379732 A    
N16   O51   1.299883 A    
C30   C38   1.436653 A    
C20   C64   1.399795 A    
C10   C58   1.400867 A    
N9    O37   1.301583 A    
C9    C57   1.400834 A    
C33   C61   1.441571 A    
O4    V2    2.040621 S    
C20   C24   1.379742 A    
