data_mof_unit_14148.cif
_audit_creation_date              2012-12-10T17:23:10-0500
_audit_creation_method            fapswitch 2.2
_symmetry_space_group_name_H-M    P1
_symmetry_Int_Tables_number       1
_space_group_crystal_system       triclinic
_cell_length_a                    15.844057
_cell_length_b                    10.845192
_cell_length_c                    9.613723
_cell_angle_alpha                 91.298254
_cell_angle_beta                  89.320459
_cell_angle_gamma                 93.898894
_cell_volume                      1647.60918355

loop_
_atom_site_label
_atom_site_type_symbol
_atom_type_description
_atom_site_fract_x
_atom_site_fract_y
_atom_site_fract_z
_atom_type_partial_charge
C1    C     C_R   0.506157 0.263692 0.498355 0.800874
C2    C     C_3   0.082615 0.492821 0.502923 0.133725
C3    C     C_3   0.973589 0.574472 0.597213 -0.204282
C4    C     C_3   0.916230 0.490942 0.500635 0.146828
C5    C     C_3   0.032211 0.604504 0.471563 0.065593
C6    C     C_3   0.973968 0.522417 0.374410 -0.206991
C7    C     C_1   0.174411 0.493515 0.502824 -0.077672
C8    C     C_1   0.824964 0.496711 0.498662 -0.081541
C9    C     C_R   0.596888 0.138686 0.714098 -0.189589
C10   C     C_R   0.609993 0.086666 0.842320 -0.165331
C11   C     C_R   0.572212 0.970633 0.870795 -0.164339
C12   C     C_R   0.339940 0.498518 0.500640 0.844448
C13   C     C_R   0.530428 0.900525 0.765696 -0.196488
C14   C     C_R   0.525279 0.946213 0.629265 0.092208
C15   C     C_R   0.547043 0.073050 0.612044 0.091604
C16   C     C_R   0.515919 0.131211 0.495406 -0.112180
C17   C     C_R   0.483595 0.060482 0.382475 -0.214824
C18   C     C_R   0.478554 0.932963 0.387328 -0.211290
C19   C     C_R   0.498203 0.873654 0.509721 -0.115830
C20   C     C_R   0.618642 0.658143 0.145419 -0.134172
C21   C     C_R   0.679534 0.730699 0.073940 -0.229291
C22   C     C_R   0.680240 0.729396 0.930450 -0.205855
C23   C     C_R   0.498418 0.738150 0.502764 0.775956
C24   C     C_R   0.619346 0.656778 0.857734 -0.144783
C25   C     C_R   0.558812 0.576828 0.925968 0.168823
C26   C     C_R   0.558577 0.577188 0.075410 0.206317
C27   C     C_R   0.444338 0.426754 0.074736 -0.102308
C28   C     C_R   0.443377 0.426635 0.927385 0.061205
C29   C     C_R   0.660009 0.501087 0.499373 0.793756
C30   C     C_3   0.966803 0.378989 0.532248 0.067305
C31   C     C_3   0.025584 0.409568 0.406371 -0.200777
C32   C     C_1   0.250094 0.495695 0.502091 -0.175772
C33   C     C_1   0.749580 0.499847 0.498150 -0.186904
C34   C     C_3   0.025095 0.461708 0.629039 -0.222215
Cu1   Cu    Cu3+1 0.499990 0.499990 0.640660 0.927202
Cu2   Cu    Cu3+1 0.500010 0.500010 0.359340 0.930669
H1    H     H_    0.047937 0.341714 0.328401 0.136240
H2    H     H_    0.575820 0.934336 0.974337 0.157973
H3    H     H_    0.498617 0.814894 0.797180 0.175489
H4    H     H_    0.398936 0.367124 0.131170 0.142388
H5    H     H_    0.726029 0.789123 0.874938 0.152525
H6    H     H_    0.951611 0.545390 0.269752 0.131476
H7    H     H_    0.951512 0.642716 0.674987 0.131134
H8    H     H_    0.045731 0.437821 0.734299 0.128405
H9    H     H_    0.461147 0.103722 0.290673 0.161287
H10   H     H_    0.624849 0.230876 0.696307 0.158280
H11   H     H_    0.645492 0.139034 0.921920 0.146890
N1    N     N_R   0.500800 0.501210 0.147910 -0.203123
N2    N     N_R   0.500830 0.501290 0.852040 -0.217268
O1    O     O_R   0.499990 0.319640 0.618810 -0.576595
O2    O     O_R   0.500000 0.319660 0.381240 -0.581800
O3    O     O_R   0.379070 0.499980 0.618770 -0.568886
O4    O     O_R   0.379080 0.500000 0.381190 -0.574032
O5    O     O_R   0.500000 0.680340 0.618760 -0.615919
O6    O     O_R   0.500010 0.680360 0.381190 -0.596554
O7    O     O_R   0.620920 0.500000 0.618810 -0.598539
O8    O     O_R   0.620930 0.500020 0.381230 -0.588193
H12   H     H_    0.456351 0.880653 0.295991 0.168061
H13   H     H_    0.620983 0.670312 0.255275 0.196618
H14   H     H_    0.725224 0.790689 0.130558 0.150886
H15   H     H_    0.620161 0.671009 0.748681 0.199688
C35   C     C_R   0.377146 0.344462 0.860700 0.161421
C36   C     C_R   0.390630 0.219385 0.835381 -0.128882
C37   C     C_R   0.325477 0.138194 0.783952 -0.151746
C38   C     C_R   0.245278 0.180350 0.763286 -0.136767
C39   C     C_R   0.230147 0.303230 0.795124 -0.146838
C40   C     C_R   0.295455 0.384781 0.845439 -0.127359
H16   H     H_    0.451203 0.184735 0.857236 0.151589
H17   H     H_    0.336821 0.042271 0.762492 0.133638
H18   H     H_    0.194374 0.117452 0.725399 0.118777
H19   H     H_    0.167638 0.334907 0.782065 0.124113
H20   H     H_    0.282552 0.479308 0.872051 0.122328
C41   C     C_R   0.938752 0.247315 0.567275 0.104745
C42   C     C_R   0.000475 0.165342 0.598816 -0.161912
C43   C     C_R   0.976966 0.042899 0.632334 -0.117526
C44   C     C_R   0.891734 0.000645 0.633301 -0.111554
C45   C     C_R   0.829859 0.081002 0.601314 -0.141860
C46   C     C_R   0.853055 0.203805 0.568525 -0.146289
H21   H     H_    0.066883 0.196476 0.597688 0.121794
H22   H     H_    0.024805 0.980771 0.657764 0.138050
H23   H     H_    0.873650 0.905702 0.658805 0.116826
H24   H     H_    0.763805 0.048069 0.601808 0.140031
H25   H     H_    0.803720 0.263004 0.543762 0.130684
C47   C     C_R   0.071602 0.731918 0.443318 0.110103
C48   C     C_R   0.047723 0.797747 0.327602 -0.146286
C49   C     C_R   0.085900 0.915290 0.301883 -0.121662
C50   C     C_R   0.148656 0.967278 0.390439 -0.107707
C51   C     C_R   0.172785 0.902253 0.505602 -0.160724
C52   C     C_R   0.133612 0.785865 0.533211 -0.164130
H26   H     H_    0.999552 0.758915 0.257487 0.114342
H27   H     H_    0.067090 0.965860 0.212870 0.123851
H28   H     H_    0.178483 0.057916 0.369970 0.123342
H29   H     H_    0.221787 0.941943 0.573609 0.126841
H30   H     H_    0.152401 0.737166 0.623698 0.128254

loop_
_geom_bond_atom_site_label_1
_geom_bond_atom_site_label_2
_ccdc_geom_bond_type
C27   N1    A    
C50   C51   A    
C24   H15   S    
C41   C42   A    
Cu1   Cu2   S    
C4    C8    S    
C45   C46   A    
C3    H7    S    
C35   C40   A    
C21   C22   A    
C17   H9    S    
C40   H20   S    
C49   H27   S    
C30   C31   S    
C22   H5    S    
C15   C16   A    
C29   C33   S    
C18   C19   A    
C52   H30   S    
Cu2   O4    S    
C36   H16   S    
C46   H25   S    
C18   H12   S    
C2    C7    S    
C16   C17   A    
Cu1   N2    S    
C41   C46   A    
C24   C25   A    
Cu2   N1    S    
C43   H22   S    
C12   O4    A    
C26   N1    A    
C51   C52   A    
C2    C34   S    
C6    C31   S    
C9    H10   S    
C50   H28   S    
C12   C32   S    
Cu1   O5    S    
C12   O3    A    
C10   H11   S    
C42   C43   A    
C30   C34   S    
C34   H8    S    
C44   C45   A    
C21   H14   S    
C4    C6    S    
Cu2   O8    S    
C5    C47   S    
C49   C50   A    
C3    C34   S    
C25   C26   A    
C48   C49   A    
C31   H1    S    
C2    C31   S    
C11   H2    S    
C19   C23   S    
C43   C44   A    
C35   C36   A    
C1    O1    A    
C28   N2    A    
C39   H19   S    
C27   H4    S    
Cu1   O1    S    
C17   C18   A    
C1    C16   S    
C37   H17   S    
C47   C48   A    
C20   H13   S    
C1    O2    A    
Cu2   O2    S    
C29   O8    A    
C42   H21   S    
C22   C24   A    
C2    C5    S    
C47   C52   A    
C3    C4    S    
C27   C28   A    
C23   O5    A    
C9    C10   A    
C30   C41   S    
C51   H29   S    
C7    C32   T    
Cu1   O7    S    
C14   C19   A    
C3    C5    S    
C44   H23   S    
C48   H26   S    
C23   O6    A    
C29   O7    A    
C37   C38   A    
C9    C15   A    
Cu2   O6    S    
C11   C13   A    
C5    C6    S    
C20   C26   A    
C45   H24   S    
C39   C40   A    
C8    C33   T    
C25   N2    A    
C13   H3    S    
C10   C11   A    
C36   C37   A    
C20   C21   A    
C38   C39   A    
C6    H6    S    
Cu1   O3    S    
C14   C15   A    
C13   C14   A    
C4    C30   S    
C38   H18   S    
C28   C35   S    
