data_mof_unit_47996.cif
_audit_creation_date              2012-12-11T14:56:42-0500
_audit_creation_method            fapswitch 2.2
_symmetry_space_group_name_H-M    P1
_symmetry_Int_Tables_number       1
_space_group_crystal_system       triclinic
_cell_length_a                    10.606496
_cell_length_b                    10.704077
_cell_length_c                    17.134971
_cell_angle_alpha                 80.304364
_cell_angle_beta                  89.447272
_cell_angle_gamma                 119.453106
_cell_volume                      1660.04459451

loop_
_atom_site_label
_atom_site_type_symbol
_atom_type_description
_atom_site_fract_x
_atom_site_fract_y
_atom_site_fract_z
_atom_type_partial_charge
C1    C     C_R   0.222361 0.854002 0.128667 0.539199
C2    C     C_1   0.637559 0.313037 0.705437 0.036580
C3    C     C_R   0.589113 0.724109 0.794015 0.067778
C4    C     C_R   0.635137 0.277870 0.087033 0.552785
C5    C     C_R   0.551183 0.723833 0.717286 0.056758
C6    C     C_R   0.644067 0.841649 0.656534 0.012776
C7    C     C_R   0.741272 0.977162 0.675086 0.176470
C8    C     C_R   0.762107 0.986539 0.755887 0.037848
C9    C     C_R   0.681639 0.858415 0.816164 -0.040674
C10   C     C_R   0.153089 0.940210 0.772012 0.117242
C11   C     C_R   0.083341 0.910134 0.705510 0.183560
C12   C     C_R   0.791899 0.423981 0.263415 -0.155300
C13   C     C_R   0.046000 0.777898 0.681152 -0.073540
C14   C     C_R   0.036729 0.659881 0.737649 0.243271
C15   C     C_R   0.080088 0.681389 0.813465 0.259404
C16   C     C_R   0.640141 0.858224 0.125397 0.551502
C17   C     C_R   0.149576 0.825293 0.828647 -0.089913
C18   C     C_R   0.687051 0.810123 0.357113 0.550148
C19   C     C_R   0.687506 0.392950 0.396088 0.530130
C20   C     C_R   0.104024 0.810641 0.359218 0.567008
C21   C     C_R   0.672782 0.804601 0.582445 0.574812
C22   C     C_R   0.676229 0.377247 0.623559 0.566569
C23   C     C_R   0.781981 0.410035 0.185136 -0.150847
C24   C     C_R   0.025941 0.773567 0.596652 0.553067
C25   C     C_R   0.221459 0.863082 0.899910 0.523942
C26   C     C_R   0.614997 0.223034 0.859014 0.562420
C27   C     C_R   0.646116 0.868650 0.897133 0.556465
C28   C     C_R   0.518077 0.277379 0.211440 -0.059404
C29   C     C_R   0.526413 0.287911 0.291042 0.225693
C30   C     C_R   0.665548 0.360061 0.317429 0.025248
C31   C     C_R   0.645538 0.332246 0.159590 -0.019110
C32   C     C_1   0.668739 0.848261 0.205373 -0.021222
C33   C     C_1   0.681138 0.839454 0.274652 -0.021286
C34   C     C_1   0.180585 0.825706 0.211249 -0.042859
C35   C     C_1   0.151567 0.820289 0.279779 -0.028870
C36   C     C_1   0.624771 0.269782 0.775662 0.037422
Cr1   Cr    Cr6+3 0.402240 0.783890 0.019450 1.064680
Cr2   Cr    Cr6+3 0.382360 0.097900 0.991800 1.084668
Cr3   Cr    Cr6+3 0.715380 0.118170 0.988700 1.094212
Cr4   Cr    Cr6+3 0.936650 0.882420 0.465510 1.098939
Cr5   Cr    Cr6+3 0.605770 0.565620 0.493360 1.091639
Cr6   Cr    Cr6+3 0.921340 0.550490 0.496380 1.062650
H1    H     H_    0.411342 0.215128 0.192130 0.170707
H2    H     H_    0.899698 0.485809 0.281620 0.152668
H3    H     H_    0.880878 0.453859 0.145583 0.146378
H4    H     H_    0.968400 0.968571 0.641743 0.363653
H5    H     H_    0.039434 0.523021 0.680233 0.367946
H6    H     H_    0.050087 0.580335 0.922997 0.325510
H7    H     H_    0.418184 0.208358 0.396604 0.341601
H8    H     H_    0.860068 0.186977 0.632116 0.370111
I1    I     I_    0.507204 0.518662 0.874780 -0.192764
I2    I     I_    0.339278 0.560013 0.697683 -0.179075
I3    I     I_    0.931740 0.185870 0.783137 -0.135681
I4    I     I_    0.271675 0.171632 0.771075 -0.141864
O1    O     O_R   0.521780 0.757110 0.108900 -0.498167
O2    O     O_R   0.805020 0.410040 0.421340 -0.507444
O3    O     O_R   0.049240 0.685450 0.403290 -0.503289
O4    O     O_R   0.275160 0.783810 0.101120 -0.498559
O5    O     O_R   0.077520 0.903010 0.551800 -0.462854
O6    O     O_R   0.802980 0.872780 0.546830 -0.495632
O7    O     O_R   0.578090 0.681300 0.569920 -0.488400
O8    O     O_R   0.608530 0.436370 0.586530 -0.478082
O9    O     O_R   0.798770 0.401880 0.597100 -0.503770
O10   O     O_R   0.043450 0.677890 0.566230 -0.496142
O11   O     O_3   0.821250 0.666180 0.485090 -0.311236
O12   O     O_R   0.513330 0.228330 0.898660 -0.463245
O13   O     O_R   0.237900 0.972600 0.090980 -0.506459
O14   O     O_R   0.511190 0.220540 0.061620 -0.500423
O15   O     O_R   0.736920 0.257720 0.063840 -0.505466
O16   O     O_R   0.710450 0.984050 0.081720 -0.494952
O17   O     O_R   0.524090 0.765520 0.933110 -0.474950
O18   O     O_R   0.277300 0.791600 0.938160 -0.492695
O19   O     O_R   0.240210 0.981010 0.915190 -0.486111
O20   O     O_3   0.063400 0.018282 0.662057 -0.607749
O21   O     O_3   0.974795 0.520619 0.723042 -0.617797
O22   O     O_3   0.057680 0.561104 0.869141 -0.587814
O23   O     O_R   0.739230 0.266130 0.888050 -0.430188
O24   O     O_3   0.397773 0.221973 0.340518 -0.671043
O25   O     O_3   0.816733 0.094620 0.612442 -0.663237
O26   O     O_R   0.712580 0.991850 0.918770 -0.494971
O27   O     O_3   0.499990 0.999980 0.999980 -0.305540
O28   O     O_R   0.083770 0.911170 0.376030 -0.466108
O29   O     O_R   0.808770 0.880340 0.383890 -0.493284
O30   O     O_R   0.584340 0.689460 0.394160 -0.495225
O31   O     O_R   0.614320 0.443940 0.423590 -0.490216

loop_
_geom_bond_atom_site_label_1
_geom_bond_atom_site_label_2
_ccdc_geom_bond_type
C19   O2    A    
Cr4   O6    S    
C20   O28   A    
C11   C13   A    
H6    O22   S    
Cr5   O7    S    
H8    O25   S    
C7    C8    A    
C12   C23   A    
C23   H3    S    
Cr3   O23   S    
C28   C29   A    
C5    C6    A    
C10   C17   A    
H7    O24   S    
C34   C35   T    
Cr6   O2    S    
C22   O9    A    
C20   C35   S    
C29   O24   S    
Cr2   O12   S    
C8    C9    A    
C2    C22   S    
Cr6   O11   S    
C18   O30   A    
C5    I2    S    
C21   O7    A    
Cr1   O4    S    
C15   O22   S    
C24   O10   A    
Cr4   O5    S    
C13   C14   A    
Cr4   O29   S    
Cr1   O27   S    
Cr5   O8    S    
Cr6   O3    S    
C4    O15   A    
C1    C34   S    
C26   O23   A    
C26   O12   A    
Cr4   O28   S    
C16   O16   A    
Cr3   O27   S    
C21   O6    A    
C27   O26   A    
C4    O14   A    
C3    I1    S    
Cr5   O11   S    
C3    C5    A    
Cr5   O30   S    
C13   C24   S    
C23   C31   A    
C29   C30   A    
C3    C9    A    
C22   O8    A    
C18   O29   A    
Cr3   O15   S    
C25   O18   A    
C26   C36   S    
Cr2   O14   S    
Cr4   O11   S    
Cr1   O17   S    
Cr2   O27   S    
Cr6   O10   S    
H4    O20   S    
C27   O17   A    
C9    C27   S    
C7    O25   S    
C2    C36   T    
C15   C17   A    
C12   C30   A    
C28   C31   A    
C19   O31   A    
C11   O20   S    
C8    I3    S    
C6    C7    A    
C16   C32   S    
Cr5   O31   S    
C28   H1    S    
C17   C25   S    
C32   C33   T    
C16   O1    A    
H5    O21   S    
C12   H2    S    
C1    O4    A    
Cr3   O26   S    
C6    C21   S    
C24   O5    A    
C1    O13   A    
Cr3   O16   S    
C25   O19   A    
C10   I4    S    
C18   C33   S    
C4    C31   S    
C10   C11   A    
Cr1   O1    S    
Cr2   O13   S    
Cr1   O18   S    
C14   C15   A    
C20   O3    A    
C19   C30   S    
Cr6   O9    S    
C14   O21   S    
Cr2   O19   S    
