data_mof_unit_11629.cif
_audit_creation_date              2012-12-11T19:34:28-0500
_audit_creation_method            fapswitch 2.2
_symmetry_space_group_name_H-M    P1
_symmetry_Int_Tables_number       1
_space_group_crystal_system       triclinic
_cell_length_a                    8.463247
_cell_length_b                    15.435098
_cell_length_c                    18.703438
_cell_angle_alpha                 99.628611
_cell_angle_beta                  92.166088
_cell_angle_gamma                 99.599236
_cell_volume                      2369.67425503

loop_
_atom_site_label
_atom_site_type_symbol
_atom_type_description
_atom_site_fract_x
_atom_site_fract_y
_atom_site_fract_z
_atom_type_partial_charge
Ba1   Ba    Ba6+2 0.852320 0.543020 0.467270 1.736726
Ba2   Ba    Ba6+2 0.337520 0.457050 0.532740 1.717183
C1    C     C_3   0.747668 0.820630 0.219455 -0.212755
C2    C     C_3   0.434456 0.505641 0.243543 -0.025544
C3    C     C_2   0.373069 0.515138 0.167896 -0.020755
C4    C     C_3   0.233842 0.778415 0.283379 0.200892
C5    C     C_2   0.212765 0.501809 0.148812 -0.026236
C6    C     C_2   0.098348 0.481911 0.206193 -0.022250
C7    C     C_1   0.154069 0.477911 0.272875 0.103501
C8    C     C_R   0.040157 0.508207 0.933231 0.470088
C9    C     C_R   0.151433 0.505181 0.072548 0.494969
C10   C     C_R   0.084622 0.537407 0.804483 0.009308
C11   C     C_R   0.032319 0.526263 0.730367 0.054233
C12   C     C_3   0.726396 0.758589 0.275504 0.269412
C13   C     C_R   0.767278 0.454756 0.757272 -0.016275
C14   C     C_R   0.818292 0.467937 0.831449 -0.061383
C15   C     C_R   0.980109 0.505317 0.855724 -0.035351
C16   C     C_3   0.201839 0.794546 0.204256 -0.211120
C17   C     C_R   0.876935 0.481303 0.707886 -0.294815
C18   C     C_R   0.851973 0.168898 0.539490 -0.041130
C19   C     C_R   0.781988 0.078768 0.538417 -0.079897
C20   C     C_R   0.649293 0.892840 0.533495 -0.067313
C21   C     C_R   0.799433 0.934415 0.571654 -0.005777
C22   C     C_R   0.864347 0.023298 0.570693 -0.058088
C23   C     C_3   0.502836 0.315469 0.300986 0.274151
C24   C     C_R   0.585290 0.797517 0.521662 -0.025591
C25   C     C_R   0.436945 0.766851 0.480812 -0.307542
C26   C     C_R   0.610955 0.191846 0.474220 -0.016513
C27   C     C_R   0.542098 0.099406 0.469233 -0.015381
C28   C     C_3   0.280629 0.735667 0.636708 0.198226
C29   C     C_R   0.627515 0.043322 0.503950 0.069635
C30   C     C_R   0.396803 0.058336 0.428305 -0.007352
C31   C     C_R   0.326286 0.972079 0.433032 -0.033482
C32   C     C_R   0.407200 0.916374 0.466483 0.048490
C33   C     C_R   0.561440 0.950635 0.501551 0.096756
C34   C     C_3   0.592047 0.305393 0.229838 -0.211044
C35   C     C_R   0.342709 0.825116 0.458434 -0.056220
C36   C     C_R   0.767194 0.221546 0.504772 -0.206807
C37   C     C_3   0.337001 0.834770 0.668534 -0.247994
C38   C     C_3   0.945259 0.252852 0.355792 0.089175
C39   C     C_3   0.918281 0.150839 0.320327 -0.331794
C40   C     C_3   0.742636 0.684795 0.698436 0.301676
C41   C     C_3   0.633553 0.674052 0.761224 -0.250942
C42   C     C_2   0.454775 0.849302 0.733049 0.511452
C43   C     C_2   0.744374 0.118598 0.293337 0.641249
C44   C     C_2   0.962920 0.095337 0.374882 0.437531
C45   C     C_3   0.955669 0.215562 0.711717 0.366558
C46   C     C_2   0.022383 0.135493 0.256473 0.626360
C47   C     C_2   0.907241 0.729013 0.730209 0.476810
C48   C     C_2   0.703611 0.809496 0.349006 0.507708
C49   C     C_2   0.329336 0.313721 0.286678 0.454042
C50   C     C_2   0.527767 0.224453 0.172612 0.598564
C51   C     C_2   0.347256 0.785415 0.161188 0.465209
C52   C     C_2   0.118183 0.274364 0.832264 0.509247
C53   C     C_2   0.834899 0.206921 0.831342 0.362235
C54   C     C_2   0.031928 0.112294 0.792671 0.441269
C55   C     C_2   0.442153 0.064539 0.658939 0.418835
C56   C     C_3   0.985996 0.202728 0.791424 -0.206799
C57   C     C_2   0.831803 0.453315 0.631160 0.525531
C58   C     C_2   0.894370 0.894412 0.619308 0.576162
C59   C     C_2   0.331021 0.091873 0.366985 0.593611
C60   C     C_2   0.384941 0.672366 0.451970 0.594465
C61   C     C_2   0.062312 0.728481 0.163570 0.510997
C62   C     C_2   0.165022 0.887602 0.206421 0.433924
C63   C     C_3   0.500628 0.229789 0.692732 0.371026
C64   C     C_3   0.447547 0.141965 0.719075 -0.214706
C65   C     C_2   0.305366 0.508789 0.296302 -0.261408
H1    H     H_    0.389191 0.870125 0.625729 0.096533
H2    H     H_    0.624180 0.232532 0.674081 -0.083937
H3    H     H_    0.531140 0.135494 0.764158 0.081229
H4    H     H_    0.211950 0.946723 0.403067 0.109020
H5    H     H_    0.827777 0.286229 0.497705 0.101170
H6    H     H_    0.195160 0.730268 0.588926 0.094827
H7    H     H_    0.837851 0.730898 0.278945 0.109709
H8    H     H_    0.424094 0.817193 0.779243 0.043597
H9    H     H_    0.233450 0.864847 0.688050 0.148117
H10   H     H_    0.833684 0.269756 0.378491 0.011957
H11   H     H_    0.693021 0.150543 0.253793 0.042768
H12   H     H_    0.042350 0.268628 0.400041 0.040701
H13   H     H_    0.013696 0.126848 0.428298 -0.009317
H14   H     H_    0.151032 0.153193 0.264863 0.082685
H15   H     H_    0.980537 0.773625 0.701179 0.040487
H16   H     H_    0.745359 0.618943 0.665694 -0.100160
H17   H     H_    0.654059 0.616327 0.786252 0.072233
H18   H     H_    0.506494 0.665405 0.742387 0.124795
H19   H     H_    0.724455 0.781031 0.396603 0.014471
H20   H     H_    0.259640 0.315634 0.333333 -0.025601
H21   H     H_    0.556005 0.381578 0.333280 -0.001254
H22   H     H_    0.575374 0.219638 0.119333 -0.006111
H23   H     H_    0.857959 0.871140 0.234263 0.110784
H24   H     H_    0.418622 0.843521 0.145415 0.065059
H25   H     H_    0.849799 0.165565 0.686700 -0.045569
H26   H     H_    0.156304 0.271231 0.887741 -0.006944
H27   H     H_    0.774958 0.149305 0.852193 0.072225
H28   H     H_    0.135542 0.106014 0.826253 0.003483
H29   H     H_    0.416415 0.232928 0.646626 0.102274
H30   H     H_    0.547740 0.033995 0.650208 0.024457
H31   H     H_    0.251772 0.708351 0.282255 0.077501
H32   H     H_    0.326809 0.141034 0.739916 0.130490
H33   H     H_    0.460417 0.527522 0.128117 0.117986
H34   H     H_    0.656289 0.734917 0.804019 0.122855
H35   H     H_    0.970176 0.466105 0.191930 0.116793
H36   H     H_    0.206242 0.570710 0.821868 0.095168
H37   H     H_    0.733539 0.445860 0.869363 0.138751
H38   H     H_    0.344948 0.507297 0.351763 0.059115
H39   H     H_    0.790340 0.497351 0.598339 0.039930
H40   H     H_    0.850734 0.882231 0.670719 0.077717
H41   H     H_    0.981464 0.049625 0.598111 0.161021
H42   H     H_    0.345666 0.823986 0.307725 0.028157
H43   H     H_    0.263178 0.144736 0.375652 -0.074619
H44   H     H_    0.394577 0.650706 0.394983 -0.113845
H45   H     H_    0.646272 0.857261 0.217964 0.148692
H46   H     H_    0.010955 0.740591 0.112824 0.036007
H47   H     H_    0.139038 0.926325 0.257075 0.119020
H48   H     H_    0.384641 0.704568 0.620384 0.071362
H49   H     H_    0.589929 0.365411 0.204659 0.011040
H50   H     H_    0.719578 0.304049 0.243116 0.086327
H51   H     H_    0.755265 0.781774 0.164515 0.116780
H52   H     H_    0.928107 0.283614 0.711453 0.057181
N1    N     N_R   0.199501 0.531589 0.954328 -0.219847
N2    N     N_R   0.253672 0.530101 0.022162 -0.210975
N3    N     N_R   0.992010 0.482293 0.051598 -0.223871
N4    N     N_R   0.937884 0.483510 0.983682 -0.226140
O1    O     O_2   0.865600 0.448450 0.327030 -0.486235
O2    O     O_2   0.189250 0.179602 0.542656 -0.482875
O3    O     O_3   0.091394 0.203267 0.672375 -0.586378
O4    O     O_3   0.118270 0.449980 0.414460 -0.468480
O5    O     O_3   0.581870 0.610700 0.539390 -0.457600
O6    O     O_2   0.335870 0.275730 0.458590 -0.500285
O7    O     O_3   0.516517 0.245386 0.338716 -0.666674
O8    O     O_2   0.437105 0.459652 0.752278 -0.440180
O9    O     O_3   0.495379 0.300145 0.750277 -0.538039
O10   O     O_3   0.656870 0.615610 0.375490 -0.521031
O11   O     O_2   0.768996 0.565832 0.246697 -0.447329
O12   O     O_3   0.683628 0.742034 0.657558 -0.681333
O13   O     O_3   0.984825 0.305642 0.302854 -0.621612
O14   O     O_3   0.592015 0.691255 0.252489 -0.609594
O15   O     O_2   0.853830 0.724300 0.541460 -0.472402
O16   O     O_3   0.080790 0.663040 0.412350 -0.444832
O17   O     O_2   0.008756 0.821620 0.456476 -0.431813
O18   O     O_2   0.583257 0.899434 0.735200 -0.579383
O19   O     O_2   0.663208 0.054229 0.312060 -0.492857
O20   O     O_2   0.949431 0.014314 0.358412 -0.534074
O21   O     O_2   0.964771 0.103163 0.194962 -0.523526
O22   O     O_2   0.960519 0.715951 0.788374 -0.605679
O23   O     O_3   0.103590 0.796199 0.325124 -0.639977
O24   O     O_2   0.662693 0.882419 0.356140 -0.549056
O25   O     O_2   0.266600 0.308155 0.225730 -0.597704
O26   O     O_2   0.425791 0.163840 0.184931 -0.478050
O27   O     O_2   0.385614 0.712604 0.142486 -0.555779
O28   O     O_2   0.181985 0.336544 0.804756 -0.527093
O29   O     O_2   0.777343 0.274978 0.840844 -0.580666
O30   O     O_2   0.949475 0.044562 0.758312 -0.571382
O31   O     O_2   0.320397 0.036329 0.619148 -0.544239
O32   O     O_2   0.830029 0.376236 0.605059 -0.637426
O33   O     O_2   0.030171 0.884718 0.604894 -0.573523
O34   O     O_2   0.324110 0.551580 0.673010 -0.461116
O35   O     O_2   0.348569 0.057669 0.304846 -0.529283
O36   O     O_2   0.309654 0.622789 0.487818 -0.544611
O37   O     O_2   0.009505 0.659645 0.184871 -0.566854
O38   O     O_2   0.156415 0.919023 0.150886 -0.519000
O39   O     O_3   0.071440 0.550090 0.585550 -0.485210
O40   O     O_3   0.532840 0.384460 0.624520 -0.479110
O41   O     O_3   0.202967 0.694469 0.689610 -0.653742
O42   O     O_3   0.607840 0.389380 0.460620 -0.468606
O43   O     O_3   0.108920 0.337040 0.587660 -0.411888
P1    P     P_3+3 0.033440 0.421460 0.337070 1.012890
P2    P     P_3+3 0.679060 0.710980 0.562120 0.961941
P3    P     P_3+3 0.136425 0.777497 0.414082 0.984136
P4    P     P_3+3 0.156270 0.578610 0.662940 1.016656
P5    P     P_3+3 0.056938 0.221474 0.583447 1.011143
P6    P     P_3+3 0.615225 0.590821 0.280785 0.961623
P7    P     P_3+3 0.515974 0.276099 0.434421 0.925939
P8    P     P_3+3 0.558549 0.401349 0.721007 1.050966

loop_
_geom_bond_atom_site_label_1
_geom_bond_atom_site_label_2
_ccdc_geom_bond_type
C48   O24   D    
C64   H32   S    
C54   H28   S    
O17   P3    D    
C32   C35   A    
C45   H25   S    
O41   P4    S    
Ba1   O5    S    
C28   O41   S    
C55   C64   S    
Ba2   O39   S    
C41   H34   S    
C53   O29   D    
C64   H3    S    
C13   C17   A    
C20   C33   A    
C19   C29   A    
C24   P2    S    
C24   C25   A    
C1    H23   S    
C12   H7    S    
C26   C27   A    
C25   C60   S    
O10   P6    S    
C30   C59   S    
C32   C33   A    
C27   C30   A    
C35   P3    S    
C4    O23   S    
C16   C61   S    
C48   H19   S    
C59   H43   S    
C8    C15   S    
O42   P7    S    
C13   C14   A    
Ba2   O6    S    
C46   H14   S    
C46   O21   D    
O15   P2    D    
Ba1   Ba2   S    
C37   H1    S    
C53   C56   S    
C52   H26   S    
O3    P5    S    
C16   C51   S    
C14   H37   S    
C63   H29   S    
C60   H44   S    
C6    C7    D    
O14   P6    S    
C10   C15   A    
C51   H24   S    
C39   C44   S    
C3    H33   S    
C43   H11   S    
C22   H41   S    
C26   C36   A    
C2    P6    S    
Ba2   O43   S    
C34   C50   S    
Ba2   O4    S    
C45   H52   S    
O43   P5    S    
O11   P6    D    
C41   H17   S    
O6    P7    D    
C50   H22   S    
C9    N2    A    
C61   O37   D    
C53   H27   S    
Ba1   O10   S    
C23   O7    S    
C28   H48   S    
O7    P7    S    
C21   C58   S    
C4    C16   S    
C36   H5    S    
C57   H39   S    
C62   H47   S    
C11   C17   A    
C41   H18   S    
C5    C6    S    
C10   H36   S    
C8    N4    A    
C52   O28   D    
C49   H20   S    
C3    C5    D    
C28   H6    S    
C57   O32   D    
C14   C15   A    
C40   C47   S    
Ba1   P2    S    
C17   C57   S    
C23   H21   S    
C40   O12   S    
C47   H15   S    
C42   H8    S    
C5    C9    S    
C7    C65   D    
C1    H51   S    
O34   P4    D    
O1    P1    D    
C18   C36   A    
C50   O26   D    
O39   P4    S    
C12   O14   S    
Ba1   O42   S    
C1    H45   S    
O12   P2    S    
C55   H30   S    
C31   C32   A    
C38   H12   S    
C47   O22   D    
O9    P8    S    
C37   H9    S    
C10   C11   A    
C34   H50   S    
C58   H40   S    
Ba2   O42   S    
C37   C42   S    
C1    C12   S    
Ba2   P4    S    
C11   P4    S    
Ba1   O39   S    
C43   O19   D    
C4    H42   S    
C29   C33   A    
C19   C22   A    
C9    N3    A    
C40   C41   S    
C34   H49   S    
C4    H31   S    
C63   O9    S    
N1    N2    A    
C45   O3    S    
C52   C56   S    
C38   C39   S    
C39   C43   S    
C21   C22   A    
C13   P8    S    
C51   O27   D    
C60   O36   D    
C65   H38   S    
C40   H16   S    
Ba1   O4    S    
C54   O30   D    
Ba1   O16   S    
Ba2   O40   S    
C2    C65   S    
C44   O20   D    
O13   P1    S    
C55   O31   D    
O8    P8    D    
C23   C49   S    
C30   C31   A    
Ba1   O1    S    
C27   C29   A    
C59   O35   D    
C45   C56   S    
C44   H13   S    
C16   C62   S    
C62   O38   D    
C12   C48   S    
C49   O25   D    
C25   C35   A    
Ba2   O34   S    
C63   H2    S    
C39   C46   S    
C54   C56   S    
C28   C37   S    
O16   P3    S    
C58   O33   D    
C38   H10   S    
O2    P5    D    
C8    N1    A    
C31   H4    S    
C23   C34   S    
C61   H46   S    
C26   P7    S    
C2    C3    S    
C18   P5    S    
C18   C19   A    
O4    P1    S    
C63   C64   S    
C20   C24   A    
O23   P3    S    
O5    P2    S    
Ba1   P1    S    
C20   C21   A    
C7    P1    S    
C42   O18   D    
C38   O13   S    
N3    N4    A    
O40   P8    S    
C6    H35   S    
Ba1   O15   S    
Ba2   O5    S    
