data_mof_unit_50088.cif
_audit_creation_date              2012-12-11T15:10:41-0500
_audit_creation_method            fapswitch 2.2
_symmetry_space_group_name_H-M    P1
_symmetry_Int_Tables_number       1
_space_group_crystal_system       triclinic
_cell_length_a                    21.120623
_cell_length_b                    7.238597
_cell_length_c                    18.270945
_cell_angle_alpha                 90.000065
_cell_angle_beta                  93.477222
_cell_angle_gamma                 89.999977
_cell_volume                      2788.18672871

loop_
_atom_site_label
_atom_site_type_symbol
_atom_type_description
_atom_site_fract_x
_atom_site_fract_y
_atom_site_fract_z
_atom_type_partial_charge
O1    O     O_R   0.448880 0.506250 0.415280 -0.530988
O2    O     O_R   0.551120 0.006250 0.584720 -0.530988
O3    O     O_R   0.434830 0.174000 0.557310 -0.525136
O4    O     O_R   0.565170 0.674000 0.442690 -0.525136
C1    C     C_R   0.417033 0.344574 0.579710 0.704625
C2    C     C_R   0.582967 0.844574 0.420290 0.704624
O5    O     O_R   0.441680 0.176440 0.414130 -0.526704
O6    O     O_R   0.558320 0.676440 0.585870 -0.526704
O7    O     O_R   0.558020 0.007570 0.440520 -0.517694
O8    O     O_R   0.441980 0.507570 0.559480 -0.517693
C3    C     C_R   0.428250 0.344759 0.388109 0.663687
C4    C     C_R   0.571749 0.844759 0.611891 0.663688
O9    O     O_3   0.538160 0.339670 0.508820 -0.365854
O10   O     O_3   0.461840 0.839670 0.491180 -0.365854
V1    V     V_3+5 0.492920 0.064260 0.498360 1.435532
V2    V     V_3+5 0.507080 0.564260 0.501640 1.435533
C5    C     C_R   0.874263 0.989515 0.688819 -0.161093
C6    C     C_R   0.125737 0.489519 0.311180 -0.161094
H1    H     H_    0.962553 0.017627 0.752002 0.106882
H2    H     H_    0.037448 0.517632 0.247997 0.106882
H3    H     H_    0.793588 0.990286 0.572226 0.123745
H4    H     H_    0.206412 0.490289 0.427773 0.123746
H5    H     H_    0.895785 0.022463 0.638057 0.113745
H6    H     H_    0.104215 0.522469 0.361943 0.113745
C7    C     C_R   0.886663 0.942988 0.820024 -0.038394
C8    C     C_R   0.113337 0.442989 0.179976 -0.038395
C9    C     C_R   0.580163 0.808775 0.748118 -0.095719
C10   C     C_R   0.419837 0.308772 0.251882 -0.095719
C11   C     C_R   0.615936 0.810160 0.816183 0.009458
C12   C     C_R   0.384063 0.310158 0.183817 0.009458
C13   C     C_R   0.681525 0.842665 0.818071 -0.167411
C14   C     C_R   0.318475 0.342664 0.181930 -0.167411
C15   C     C_R   0.713462 0.878859 0.754052 0.040166
C16   C     C_R   0.286538 0.378859 0.245948 0.040166
C17   C     C_R   0.676726 0.885582 0.685748 0.074946
C18   C     C_R   0.323274 0.385582 0.314252 0.074947
C19   C     C_R   0.780773 0.911198 0.755923 0.085278
C20   C     C_R   0.219227 0.411199 0.244077 0.085279
C21   C     C_R   0.809011 0.952943 0.689235 0.141238
C22   C     C_R   0.190989 0.452946 0.310765 0.141239
C23   C     C_R   0.772088 0.959041 0.623178 -0.203057
C24   C     C_R   0.227912 0.459044 0.376821 -0.203058
C25   C     C_R   0.707275 0.925284 0.621287 -0.173396
C26   C     C_R   0.292725 0.425286 0.378713 -0.173397
C27   C     C_R   0.821388 0.904553 0.821284 -0.207608
C28   C     C_R   0.178612 0.404551 0.178717 -0.207608
C29   C     C_R   0.912495 0.986232 0.753627 -0.166790
C30   C     C_R   0.087505 0.486236 0.246372 -0.166790
C31   C     C_R   0.610250 0.850425 0.682895 -0.142131
C32   C     C_R   0.389750 0.350424 0.317105 -0.142131
H7    H     H_    0.804092 0.872235 0.874038 0.103315
H8    H     H_    0.195907 0.372231 0.125962 0.103316
H9    H     H_    0.706485 0.843517 0.871163 0.159299
H10   H     H_    0.293515 0.343517 0.128837 0.159298
H11   H     H_    0.681230 0.931408 0.568458 0.107391
H12   H     H_    0.318770 0.431409 0.431541 0.107391
C33   C     C_1   0.864531 0.938960 0.132110 -0.197575
C34   C     C_1   0.135469 0.438960 0.867889 -0.197575
C35   C     C_1   0.821667 0.924929 0.175857 0.013501
C36   C     C_1   0.178333 0.424929 0.824143 0.013501
C37   C     C_1   0.771087 0.905834 0.227961 0.015395
C38   C     C_1   0.228913 0.405834 0.772039 0.015395
C39   C     C_1   0.728511 0.889208 0.271946 0.017240
C40   C     C_1   0.271489 0.389208 0.728054 0.017240
C41   C     C_1   0.677970 0.870061 0.324090 0.023657
C42   C     C_1   0.322030 0.370061 0.675910 0.023657
C43   C     C_1   0.635163 0.855961 0.367897 -0.184428
C44   C     C_1   0.364837 0.355961 0.632103 -0.184428
O11   O     O_R   0.058070 0.289240 0.940580 -0.520212
O12   O     O_R   0.941930 0.789240 0.059420 -0.520212
O13   O     O_R   0.058330 0.616740 0.085880 -0.531712
O14   O     O_R   0.941670 0.116740 0.914120 -0.531712
C45   C     C_R   0.072069 0.448800 0.111732 0.685995
C46   C     C_R   0.927930 0.948800 0.888268 0.685997
O15   O     O_R   0.065180 0.619040 0.942700 -0.521573
O16   O     O_R   0.934820 0.119040 0.057300 -0.521573
O17   O     O_R   0.948870 0.787780 0.915270 -0.530082
O18   O     O_R   0.051130 0.287780 0.084730 -0.530082
C47   C     C_R   0.083192 0.450329 0.920201 0.705286
C48   C     C_R   0.916808 0.950329 0.079799 0.705286
O19   O     O_3   0.961870 0.453310 0.991210 -0.364782
O20   O     O_3   0.038130 0.953310 0.008790 -0.364783
V3    V     V_3+5 0.007070 0.728770 0.001630 1.429505
V4    V     V_3+5 0.992930 0.228770 0.998370 1.429505
C49   C     C_2   0.511326 0.761535 0.743579 0.348976
H13   H     H_    0.479056 0.830723 0.704022 0.051927
O21   O     O_2   0.490574 0.638814 0.781215 -0.525501
C50   C     C_2   0.488673 0.261531 0.256421 0.348977
H14   H     H_    0.520944 0.330717 0.295978 0.051928
O22   O     O_2   0.509425 0.138811 0.218785 -0.525501
C51   C     C_2   0.585235 0.787466 0.886892 0.454030
H15   H     H_    0.534518 0.805455 0.889778 0.103530
O23   O     O_2   0.616514 0.750830 0.943459 -0.520509
C52   C     C_2   0.414764 0.287463 0.113108 0.454032
H16   H     H_    0.465481 0.305454 0.110223 0.103529
O24   O     O_2   0.383485 0.250826 0.056542 -0.520509

loop_
_geom_bond_atom_site_label_1
_geom_bond_atom_site_label_2
_ccdc_geom_bond_type
C42   C44   T    
C39   C41   S    
C9    C11   A    
O1    C3    A    
O2    C4    A    
O16   V4    S    
C2    O7    A    
C4    C31   S    
O3    V1    S    
C21   C23   A    
C49   H13   S    
O5    C3    A    
C5    H5    S    
C6    H6    S    
C20   C22   A    
H1    C29   S    
C33   C35   T    
O17   V3    S    
C34   C36   T    
C28   H8    S    
C8    C45   S    
C36   C38   S    
C7    C46   S    
C5    C21   A    
C9    C49   S    
C6    C22   A    
C38   C40   T    
C10   C32   A    
C41   C43   T    
C46   O17   A    
C17   C31   A    
C45   O18   A    
C13   C15   A    
C17   C25   A    
C7    C29   A    
C8    C30   A    
O5    V1    S    
O6    V2    S    
C11   C13   A    
C23   C25   A    
C33   C48   S    
C24   C26   A    
C1    C44   S    
C14   H10   S    
O13   V3    S    
C49   O21   D    
C35   C37   S    
O12   C48   A    
O16   C48   A    
O14   C46   A    
C51   H15   S    
O13   C45   A    
C15   C19   A    
C14   C16   A    
O4    V2    S    
C10   C50   S    
O12   V3    S    
C51   O23   D    
C26   H12   S    
O6    C4    A    
C37   C39   T    
O1    V2    S    
O14   V4    S    
C13   H9    S    
C52   O24   D    
O2    V1    S    
H2    C30   S    
C34   C47   S    
H3    C23   S    
C25   H11   S    
C2    C43   S    
C50   O22   D    
O11   C47   A    
O4    C2    A    
C19   C27   A    
C7    C27   A    
C11   C51   S    
O19   V4    S    
C18   C32   A    
C16   C20   A    
C5    C29   A    
O3    C1    A    
C6    C30   A    
C10   C12   A    
O7    V1    S    
C1    O8    A    
C12   C52   S    
O11   V4    S    
O8    V2    S    
C12   C14   A    
O15   V3    S    
H4    C24   S    
C22   C24   A    
C15   C17   A    
C16   C18   A    
C52   H16   S    
C20   C28   A    
C18   C26   A    
C8    C28   A    
O18   V4    S    
C50   H14   S    
C19   C21   A    
O20   V3    S    
O9    V2    S    
C3    C32   S    
C27   H7    S    
O10   V1    S    
O15   C47   A    
C9    C31   A    
C40   C42   S    
