data_mof_unit_52187.cif
_audit_creation_date              2012-12-10T17:55:07-0500
_audit_creation_method            fapswitch 2.2
_symmetry_space_group_name_H-M    P1
_symmetry_Int_Tables_number       1
_space_group_crystal_system       triclinic
_cell_length_a                    8.844753
_cell_length_b                    10.776558
_cell_length_c                    9.582647
_cell_angle_alpha                 90.363411
_cell_angle_beta                  98.109302
_cell_angle_gamma                 92.533441
_cell_volume                      903.289556681

loop_
_atom_site_label
_atom_site_type_symbol
_atom_type_description
_atom_site_fract_x
_atom_site_fract_y
_atom_site_fract_z
_atom_type_partial_charge
C1    C     C_R   0.497202 0.262616 0.499369 0.865598
C2    C     C_R   0.502795 0.737383 0.500631 0.865585
C3    C     C_R   0.204747 0.501251 0.464533 0.880088
C4    C     C_R   0.795252 0.498750 0.535467 0.880105
C5    C     C_2   0.042010 0.517819 0.447887 -0.001172
C6    C     C_2   0.957990 0.482187 0.552115 -0.001180
C7    C     C_R   0.625886 0.071474 0.462991 0.120381
C8    C     C_R   0.374115 0.928526 0.537018 0.120427
C9    C     C_R   0.629929 0.941358 0.463727 0.097008
C10   C     C_R   0.370078 0.058642 0.536279 0.096971
C11   C     C_R   0.503111 0.871571 0.500904 -0.098218
C12   C     C_R   0.496888 0.128429 0.499097 -0.098158
C13   C     C_R   0.393708 0.428012 0.057228 0.283185
C14   C     C_R   0.606292 0.571988 0.942772 0.283188
C15   C     C_R   0.396976 0.427597 0.909689 -0.065987
C16   C     C_R   0.603024 0.572403 0.090311 -0.065981
Cu1   Cu    Cu3+1 0.500000 0.500020 0.640660 0.940662
Cu2   Cu    Cu3+1 0.500000 0.499980 0.359340 0.940658
H1    H     H_    0.316054 0.369561 0.840355 0.135595
H2    H     H_    0.683947 0.630438 0.159645 0.135590
N1    N     N_R   0.500040 0.500030 0.852080 -0.175661
N2    N     N_R   0.499960 0.499970 0.147920 -0.175662
O1    O     O_R   0.499990 0.319660 0.618740 -0.586057
O2    O     O_R   0.500010 0.680340 0.381260 -0.586068
O3    O     O_R   0.499990 0.319630 0.381170 -0.576684
O4    O     O_R   0.500010 0.680370 0.618830 -0.576673
O5    O     O_R   0.274840 0.500010 0.591370 -0.583183
O6    O     O_R   0.725160 0.499990 0.408630 -0.583183
O7    O     O_R   0.274830 0.499980 0.353800 -0.590985
O8    O     O_R   0.725170 0.500020 0.646200 -0.590986
C17   C     C_3   0.977991 0.586061 0.315836 -0.889852
H3    H     H_    0.068863 0.629984 0.261161 0.240045
H4    H     H_    0.910135 0.519954 0.239801 0.253694
H5    H     H_    0.908672 0.663075 0.343342 0.232780
C18   C     C_3   0.022013 0.413955 0.684170 -0.889864
H6    H     H_    0.931146 0.370050 0.738862 0.240052
H7    H     H_    0.091319 0.336931 0.656670 0.232789
H8    H     H_    0.089883 0.480065 0.760190 0.253704
N3    N     N_3   0.752013 0.148238 0.428170 -0.589187
H9    H     H_    0.772593 0.124870 0.326701 0.233345
H10   H     H_    0.848916 0.133041 0.500934 0.219041
N4    N     N_3   0.247981 0.851760 0.571881 -0.589138
H11   H     H_    0.227403 0.875145 0.673357 0.233336
H12   H     H_    0.151062 0.866943 0.499106 0.219016
C19   C     C_3   0.767177 0.875784 0.426646 -0.901233
H13   H     H_    0.733332 0.822359 0.327015 0.239456
H14   H     H_    0.865268 0.939011 0.411157 0.228287
H15   H     H_    0.808534 0.811539 0.512465 0.215138
C20   C     C_3   0.232855 0.124215 0.573398 -0.901301
H16   H     H_    0.266714 0.177588 0.673052 0.239479
H17   H     H_    0.191508 0.188507 0.487631 0.215137
H18   H     H_    0.134767 0.060986 0.588849 0.228312
C21   C     C_3   0.263377 0.353595 0.106430 -0.802342
H19   H     H_    0.209231 0.286292 0.023976 0.179309
H20   H     H_    0.299999 0.297456 0.199407 0.258773
H21   H     H_    0.172613 0.416296 0.126456 0.238144
C22   C     C_3   0.736622 0.646407 0.893570 -0.802345
H22   H     H_    0.790766 0.713710 0.976024 0.179311
H23   H     H_    0.827387 0.583707 0.873544 0.238142
H24   H     H_    0.699999 0.702545 0.800592 0.258773

loop_
_geom_bond_atom_site_label_1
_geom_bond_atom_site_label_2
_ccdc_geom_bond_type
C5    C17   S    
C15   H1    S    
C17   H4    S    
C9    C19   S    
C17   H3    S    
C13   C15   A    
C16   H2    S    
C20   H18   S    
C3    O5    A    
Cu1   Cu2   S    
C17   H5    S    
N3    H10   S    
Cu2   O7    S    
Cu2   O3    S    
C19   H13   S    
C1    O3    A    
Cu1   O8    S    
C9    C11   A    
C3    O7    A    
C22   H22   S    
Cu1   O1    S    
C1    C12   S    
N4    H12   S    
C8    C11   A    
Cu2   O2    S    
Cu1   O4    S    
C10   C12   A    
C14   N1    A    
C4    C6    S    
C4    O6    A    
C8    N4    S    
C13   N2    A    
C1    O1    A    
C13   C21   S    
C21   H20   S    
C2    O2    A    
C5    C6    D    
C14   C16   A    
C7    C12   A    
C22   H23   S    
N4    H11   S    
C2    C11   S    
Cu1   O5    S    
C3    C5    S    
C15   N1    A    
C18   H8    S    
Cu2   O6    S    
C6    C18   S    
C2    O4    A    
C20   H16   S    
C19   H14   S    
C21   H21   S    
N3    H9    S    
C7    C9    A    
C14   C22   S    
C7    N3    S    
C22   H24   S    
C16   N2    A    
C19   H15   S    
C18   H7    S    
Cu2   N2    S    
C10   C20   S    
C8    C10   A    
C4    O8    A    
C18   H6    S    
C21   H19   S    
C20   H17   S    
Cu1   N1    S    
