data_mof_unit_45936.cif
_audit_creation_date              2012-12-10T18:42:29-0500
_audit_creation_method            fapswitch 2.2
_symmetry_space_group_name_H-M    P1
_symmetry_Int_Tables_number       1
_space_group_crystal_system       triclinic
_cell_length_a                    8.653949
_cell_length_b                    10.72459
_cell_length_c                    9.827047
_cell_angle_alpha                 90.733777
_cell_angle_beta                  98.2032
_cell_angle_gamma                 89.289723
_cell_volume                      902.591427827

loop_
_atom_site_label
_atom_site_type_symbol
_atom_type_description
_atom_site_fract_x
_atom_site_fract_y
_atom_site_fract_z
_atom_type_partial_charge
Br1   Br    Br    0.960383 0.384566 0.285971 -0.411224
Br2   Br    Br    0.039620 0.615553 0.713980 -0.411201
Br3   Br    Br    0.683105 0.129708 0.262317 -0.404003
Br4   Br    Br    0.316974 0.870302 0.737809 -0.403991
C1    C     C_R   0.503771 0.259924 0.499311 0.925908
C2    C     C_R   0.430679 0.068884 0.596853 -0.230961
C3    C     C_R   0.496132 0.872475 0.502455 -0.148435
C4    C     C_R   0.503810 0.127524 0.497552 -0.148436
C5    C     C_R   0.595596 0.577852 0.085048 -0.004521
C6    C     C_R   0.404400 0.422151 0.914952 -0.004548
C7    C     C_R   0.595510 0.577849 0.941043 0.005288
C8    C     C_R   0.404484 0.422155 0.058956 0.005271
C9    C     C_R   0.496203 0.740075 0.500687 0.925874
C10   C     C_R   0.201533 0.500735 0.465009 0.947989
C11   C     C_R   0.798468 0.499281 0.534990 0.948011
C12   C     C_2   0.039720 0.482602 0.448436 -0.006839
C13   C     C_2   0.960280 0.517449 0.551555 -0.006879
C14   C     C_R   0.573865 0.058753 0.399593 0.294098
C15   C     C_R   0.426106 0.941245 0.600443 0.294137
C16   C     C_R   0.569283 0.931114 0.403173 -0.230949
H1    H     H_    0.625302 0.877505 0.329213 0.194283
H2    H     H_    0.374686 0.122489 0.670833 0.194281
H3    H     H_    0.672025 0.640004 0.150150 0.145142
H4    H     H_    0.327968 0.360001 0.849849 0.145130
H5    H     H_    0.671776 0.640053 0.896773 0.162992
H6    H     H_    0.328209 0.359958 0.103225 0.162988
N1    N     N_R   0.499960 0.499970 0.857200 -0.091030
N2    N     N_R   0.500040 0.500030 0.142800 -0.091028
O1    O     O_R   0.499990 0.316750 0.614620 -0.639050
O2    O     O_R   0.500010 0.683250 0.385380 -0.639056
O3    O     O_R   0.499990 0.316780 0.385290 -0.578792
O4    O     O_R   0.500010 0.683220 0.614710 -0.578799
O5    O     O_R   0.271750 0.499990 0.587840 -0.592673
O6    O     O_R   0.728250 0.500010 0.412160 -0.592643
O7    O     O_R   0.271750 0.500010 0.358510 -0.599717
O8    O     O_R   0.728250 0.499990 0.641490 -0.599720
Zn1   Zn    Zn3+2 0.500000 0.499980 0.653120 1.031548
Zn2   Zn    Zn3+2 0.500000 0.500020 0.346880 1.031557

loop_
_geom_bond_atom_site_label_1
_geom_bond_atom_site_label_2
_ccdc_geom_bond_type
C6    N1    A    
C1    C4    S    
N2    Zn2   S    
C11   O8    A    
C9    O4    A    
C14   C16   A    
O3    Zn2   S    
C7    N1    A    
C10   O5    A    
C4    C14   A    
Br1   C12   S    
O4    Zn1   S    
Br2   C13   S    
C2    C15   A    
C5    C7    A    
C6    C8    A    
N1    Zn1   S    
O8    Zn1   S    
C8    N2    A    
C3    C15   A    
C10   C12   S    
C7    H5    S    
C2    H2    S    
C1    O1    A    
C9    O2    A    
C3    C9    S    
O7    Zn2   S    
C16   H1    S    
O2    Zn2   S    
Br3   C14   S    
C3    C16   A    
O1    Zn1   S    
C10   O7    A    
C11   C13   S    
C5    H3    S    
C2    C4    A    
C11   O6    A    
C6    H4    S    
O6    Zn2   S    
Br4   C15   S    
O5    Zn1   S    
C5    N2    A    
C8    H6    S    
C12   C13   D    
C1    O3    A    
