data_mof_unit_50914.cif
_audit_creation_date              2012-12-10T17:47:17-0500
_audit_creation_method            fapswitch 2.2
_symmetry_space_group_name_H-M    P1
_symmetry_Int_Tables_number       1
_space_group_crystal_system       triclinic
_cell_length_a                    11.687269
_cell_length_b                    14.701718
_cell_length_c                    14.581735
_cell_angle_alpha                 65.510192
_cell_angle_beta                  102.882742
_cell_angle_gamma                 102.443189
_cell_volume                      2201.19333722

loop_
_atom_site_label
_atom_site_type_symbol
_atom_type_description
_atom_site_fract_x
_atom_site_fract_y
_atom_site_fract_z
_atom_type_partial_charge
C1    C     C_R   0.479982 0.119449 0.311646 0.822238
C2    C     C_R   0.548093 0.611864 0.103368 0.469586
C3    C     C_R   0.683955 0.276712 0.680012 0.360517
C4    C     C_R   0.308831 0.721583 0.323224 0.353129
C5    C     C_R   0.655989 0.198124 0.645289 -0.023473
C6    C     C_R   0.339601 0.800638 0.357590 -0.034937
C7    C     C_R   0.521207 0.287861 0.506380 -0.002015
C8    C     C_R   0.481182 0.713542 0.491035 -0.010752
C9    C     C_R   0.548418 0.373280 0.533916 -0.127434
C10   C     C_R   0.457724 0.630652 0.459931 -0.127240
C11   C     C_R   0.634046 0.367546 0.622077 -0.032440
C12   C     C_R   0.522047 0.880454 0.688164 0.814417
C13   C     C_R   0.371033 0.636432 0.372259 -0.028088
C14   C     C_R   0.491329 0.462321 0.478427 0.035886
C15   C     C_R   0.518721 0.543681 0.512381 0.030428
C16   C     C_R   0.284193 0.000417 0.500117 0.826377
C17   C     C_R   0.715809 0.999527 0.499971 0.807701
C18   C     C_R   0.607871 0.536475 0.596902 -0.275087
C19   C     C_R   0.408578 0.472885 0.389392 -0.280652
C20   C     C_R   0.665612 0.452049 0.649912 0.437165
C21   C     C_R   0.350147 0.557244 0.336762 0.451363
C22   C     C_1   0.162745 0.000998 0.500362 -0.172816
C23   C     C_R   0.450327 0.323099 0.997753 0.015293
C24   C     C_1   0.837255 0.998850 0.499871 -0.180422
C25   C     C_1   0.060064 0.000441 0.500280 0.008134
C26   C     C_1   0.939937 0.999351 0.500031 0.006652
C27   C     C_R   0.467126 0.186591 0.202603 -0.147345
C28   C     C_R   0.536224 0.812723 0.796696 -0.159717
C29   C     C_R   0.436604 0.218419 0.022672 -0.256718
C30   C     C_R   0.593223 0.780406 0.976483 -0.222823
C31   C     C_R   0.447902 0.150044 0.124378 0.424092
C32   C     C_R   0.594713 0.846426 0.874789 0.431550
C33   C     C_R   0.477585 0.290458 0.177622 -0.283068
C34   C     C_R   0.549382 0.677546 0.001471 0.000102
C35   C     C_R   0.493402 0.710091 0.822041 -0.275796
C36   C     C_R   0.470579 0.360699 0.076225 0.057196
C37   C     C_R   0.509315 0.639983 0.923110 0.055999
C38   C     C_3   0.341367 0.390858 0.740953 0.050660
C39   C     C_3   0.296048 0.318513 0.686486 -0.755888
C40   C     C_3   0.669402 0.610340 0.251513 0.042652
C41   C     C_3   0.722129 0.679219 0.309027 -0.777869
C42   C     C_3   0.776243 0.935683 0.844392 0.036173
C43   C     C_3   0.864706 0.010567 0.880809 -0.793689
C44   C     C_3   0.534113 0.024240 0.125506 0.039582
C45   C     C_R   0.488031 0.466988 0.051382 0.022780
C46   C     C_3   0.532468 0.910379 0.170023 -0.674306
C47   C     C_3   0.694476 0.212805 0.852114 0.073370
C48   C     C_3   0.774979 0.208718 0.950993 -0.704719
C49   C     C_3   0.111877 0.722961 0.260275 0.104981
C50   C     C_3   0.020438 0.730905 0.165853 -0.716956
C51   C     C_R   0.486353 0.534086 0.947825 0.026701
C52   C     C_R   0.468952 0.493873 0.872144 -0.281987
C53   C     C_R   0.510930 0.508723 0.126757 -0.255780
C54   C     C_R   0.446359 0.389932 0.895519 0.449775
Cl1   Cl    Cl    0.781284 0.461780 0.748132 -0.590439
Cl2   Cl    Cl    0.253759 0.557464 0.224513 -0.575106
Cu1   Cu    Cu3+1 0.469550 0.918260 0.475690 0.947951
Cu2   Cu    Cu3+1 0.530450 0.081740 0.524310 0.952056
H1    H     H_    0.637206 0.596497 0.624159 0.164773
H2    H     H_    0.454891 0.284128 0.443425 0.142095
H3    H     H_    0.297830 0.868291 0.317060 0.170764
H4    H     H_    0.695721 0.129839 0.687825 0.171073
H5    H     H_    0.375086 0.465075 0.684757 0.159033
H6    H     H_    0.264996 0.399408 0.769655 0.157515
H7    H     H_    0.255820 0.245149 0.739441 0.245243
H8    H     H_    0.228091 0.350796 0.620020 0.210913
H9    H     H_    0.370098 0.305418 0.659371 0.252302
H10   H     H_    0.740789 0.604256 0.215546 0.131746
H11   H     H_    0.639240 0.534579 0.307363 0.163155
H12   H     H_    0.387932 0.416850 0.356568 0.156979
H13   H     H_    0.653313 0.688280 0.344962 0.264432
H14   H     H_    0.795536 0.646315 0.369335 0.209716
H15   H     H_    0.757281 0.754607 0.255713 0.230140
H16   H     H_    0.781276 0.954770 0.763078 0.156385
H17   H     H_    0.805211 0.859752 0.890422 0.141461
H18   H     H_    0.857055 0.995385 0.960585 0.243651
H19   H     H_    0.956187 0.002907 0.877944 0.214250
H20   H     H_    0.848446 0.088827 0.831300 0.269929
H21   H     H_    0.618510 0.057690 0.160156 0.130228
H22   H     H_    0.532031 0.051863 0.041720 0.142886
H23   H     H_    0.445968 0.686000 0.761727 0.172007
H24   H     H_    0.448244 0.873415 0.139759 0.278657
H25   H     H_    0.607719 0.891777 0.149206 0.192429
H26   H     H_    0.541700 0.880980 0.254378 0.244088
H27   H     H_    0.658871 0.134139 0.858550 0.162950
H28   H     H_    0.619529 0.253295 0.842604 0.192937
H29   H     H_    0.809940 0.286281 0.947689 0.291211
H30   H     H_    0.724517 0.168905 0.015928 0.163713
H31   H     H_    0.850483 0.168066 0.963848 0.240601
H32   H     H_    0.104769 0.783923 0.284364 0.113625
H33   H     H_    0.090303 0.648092 0.321858 0.146691
H34   H     H_    0.493460 0.314613 0.239893 0.166892
H35   H     H_    0.021616 0.668900 0.141463 0.278056
H36   H     H_    0.930699 0.725308 0.182969 0.176306
H37   H     H_    0.040184 0.804600 0.102712 0.245739
H38   H     H_    0.418455 0.188887 0.963294 0.186131
H39   H     H_    0.633395 0.808950 0.035567 0.184137
H40   H     H_    0.479236 0.541576 0.794265 0.144356
H41   H     H_    0.502299 0.463873 0.205228 0.141863
H42   H     H_    0.546133 0.716740 0.554866 0.145451
N1    N     N_R   0.576230 0.204580 0.560790 -0.201471
N2    N     N_R   0.423770 0.795420 0.439210 -0.205453
O1    O     O_R   0.459870 0.022090 0.338120 -0.535297
O2    O     O_3   0.572484 0.650937 0.178600 -0.570240
O3    O     O_3   0.659896 0.941220 0.853729 -0.591338
O4    O     O_3   0.434342 0.047334 0.147133 -0.563657
O5    O     O_3   0.760509 0.263181 0.770292 -0.543430
O6    O     O_3   0.225957 0.733058 0.236489 -0.523669
O7    O     O_R   0.540130 0.977910 0.661880 -0.549083
O8    O     O_R   0.511290 0.160150 0.379180 -0.598736
O9    O     O_R   0.488710 0.839850 0.620820 -0.595387
O10   O     O_R   0.311490 0.930960 0.479480 -0.578208
O11   O     O_R   0.688510 0.069040 0.520520 -0.574464
O12   O     O_R   0.362910 0.069020 0.520540 -0.571400
O13   O     O_R   0.637090 0.930980 0.479460 -0.575983
O14   O     O_3   0.434065 0.352065 0.820388 -0.605633

loop_
_geom_bond_atom_site_label_1
_geom_bond_atom_site_label_2
_ccdc_geom_bond_type
C15   C18   A    
Cu2   O7    S    
C49   H32   S    
C35   H23   S    
C17   O11   A    
Cu1   O13   S    
C53   H41   S    
C43   H20   S    
Cu1   N2    S    
C4    O6    S    
C30   H39   S    
C16   O10   A    
C42   H17   S    
C12   C28   S    
C23   C29   A    
C6    H3    S    
C35   C37   A    
C24   C26   T    
C10   C15   A    
C38   C39   S    
C37   C51   A    
C50   H37   S    
Cu1   O10   S    
C45   C51   A    
C34   C37   A    
C33   C36   A    
C29   H38   S    
C4    C13   A    
C46   H24   S    
C28   C35   A    
C52   C54   A    
C22   C25   T    
C54   O14   S    
Cu2   O11   S    
C48   H30   S    
C1    O1    A    
C41   H13   S    
C2    C34   A    
C45   C53   A    
C39   H7    S    
C49   H33   S    
C20   Cl1   S    
C28   C32   A    
C12   O7    A    
C44   C46   S    
C49   O6    S    
C38   H6    S    
Cu1   O1    S    
C5    N1    A    
C11   C20   A    
C42   H16   S    
C17   C24   S    
C40   H11   S    
C30   C34   A    
C27   C31   A    
C51   C52   A    
C47   H28   S    
C44   H22   S    
C4    C6    A    
C33   H34   S    
C50   H36   S    
C3    O5    S    
C25   C26   S    
C2    C53   A    
C27   C33   A    
C9    C14   A    
C1    O8    A    
C40   O2    S    
C38   O14   S    
C47   C48   S    
C2    O2    S    
C48   H29   S    
C13   C21   A    
C36   C45   A    
Cu2   N1    S    
C9    C11   A    
C41   H14   S    
C46   H26   S    
C40   C41   S    
C23   C36   A    
C47   O5    S    
C48   H31   S    
C7    N1    A    
C39   H8    S    
C42   C43   S    
C47   H27   S    
C7    H2    S    
C17   O13   A    
C23   C54   A    
Cu2   O12   S    
C38   H5    S    
C43   H18   S    
C7    C9    A    
C16   C22   S    
C19   C21   A    
Cu2   O8    S    
C39   H9    S    
C14   C19   A    
C44   H21   S    
C3    C5    A    
C10   C13   A    
C16   O12   A    
C21   Cl2   S    
C50   H35   S    
C44   O4    S    
C43   H19   S    
C32   O3    S    
C8    H42   S    
C29   C31   A    
C30   C32   A    
Cu1   Cu2   S    
Cu1   O9    S    
C52   H40   S    
C31   O4    S    
C5    H4    S    
C18   C20   A    
C6    N2    A    
C42   O3    S    
C3    C11   A    
C41   H15   S    
C46   H25   S    
C18   H1    S    
C8    C10   A    
C49   C50   S    
C40   H10   S    
C1    C27   S    
C14   C15   A    
C19   H12   S    
C8    N2    A    
C12   O9    A    
