data_mof_unit_42206.cif
_audit_creation_date              2013-03-05T15:52:44-0500
_audit_creation_method            fapswitch 2.2
_symmetry_space_group_name_H-M    P1
_symmetry_Int_Tables_number       1
_space_group_crystal_system       triclinic
_cell_length_a                    9.939522
_cell_length_b                    10.626011
_cell_length_c                    13.112457
_cell_angle_alpha                 91.46372
_cell_angle_beta                  69.869577
_cell_angle_gamma                 89.91796
_cell_volume                      1299.80159893

loop_
_atom_site_label
_atom_site_type_symbol
_atom_site_description
_atom_site_fract_x
_atom_site_fract_y
_atom_site_fract_z
_atom_type_partial_charge
O1    O     O_R   0.385310 0.683220 0.500000 -0.624157
O2    O     O_R   0.614640 0.683250 0.500010 -0.628320
C1    C     C_R   0.499690 0.739303 0.500033 0.957938
O3    O     O_R   0.328400 0.499950 0.653610 -0.631806
O4    O     O_R   0.557730 0.499970 0.653620 -0.630220
C2    C     C_R   0.420211 0.493446 0.703818 0.913554
Zn1   Zn    Zn3+2 0.346880 0.499980 0.499990 0.940198
Zn2   Zn    Zn3+2 0.653120 0.500020 0.500010 0.942059
O5    O     O_R   0.385360 0.316750 0.499990 -0.610217
O6    O     O_R   0.614690 0.316780 0.500000 -0.618526
O7    O     O_R   0.442270 0.500030 0.346380 -0.621357
O8    O     O_R   0.671600 0.500050 0.346390 -0.613827
C3    C     C_R   0.501190 0.260877 0.497802 0.876289
C4    C     C_R   0.579937 0.498891 0.295920 0.830505
C5    C     C_R   0.771174 0.364936 0.017259 -0.200411
H1    H     H_    0.826360 0.382799 0.161418 0.155615
H2    H     H_    0.772659 0.276805 0.824615 0.156838
H3    H     H_    0.865471 0.308386 0.974317 0.145816
C6    C     C_R   0.628475 0.481191 0.178850 -0.057168
C7    C     C_R   0.235143 0.540098 0.882403 -0.127546
C8    C     C_R   0.197725 0.558878 0.993893 -0.134479
C9    C     C_R   0.296429 0.531926 0.044337 -0.191421
C10   C     C_R   0.432475 0.478595 0.984059 0.094373
C11   C     C_R   0.460092 0.441383 0.874915 0.070129
C12   C     C_R   0.541852 0.460318 0.028455 0.081823
C13   C     C_R   0.665827 0.387431 0.970706 0.161031
C14   C     C_R   0.681116 0.336015 0.868578 -0.227680
C15   C     C_R   0.579580 0.362515 0.821117 -0.182865
C16   C     C_R   0.531959 0.514203 0.128494 -0.260893
C17   C     C_R   0.750992 0.409564 0.122459 -0.207392
C18   C     C_R   0.368357 0.485869 0.821883 -0.107766
H4    H     H_    0.445557 0.578191 0.171782 0.148142
H5    H     H_    0.162085 0.571979 0.843118 0.156594
H6    H     H_    0.262019 0.550449 0.130849 0.134562
H7    H     H_    0.094277 0.599659 0.040702 0.148789
H8    H     H_    0.594692 0.319158 0.742354 0.169722
C19   C     C_R   0.514634 0.861369 0.304033 -0.153186
H9    H     H_    0.515006 0.759705 0.301133 0.127012
C20   C     C_R   0.522630 0.923030 0.209475 -0.132890
H10   H     H_    0.528361 0.868991 0.136937 0.149011
C21   C     C_R   0.523824 0.053958 0.208205 -0.126702
H11   H     H_    0.530642 0.101813 0.134688 0.152813
C22   C     C_R   0.517025 0.123482 0.301505 -0.171675
H12   H     H_    0.519537 0.224995 0.297108 0.134066
C23   C     C_R   0.508486 0.062156 0.398060 0.098678
C24   C     C_R   0.507038 0.930500 0.399727 0.058137
C25   C     C_R   0.499461 0.871915 0.497170 -0.236143
C26   C     C_R   0.494141 0.940691 0.591638 0.303061
H13   H     H_    0.494074 0.125440 0.659315 0.171510
C27   C     C_R   0.499271 0.069817 0.587446 -0.268029
C28   C     C_R   0.503848 0.128675 0.493150 -0.151669
H14   H     H_    0.931653 0.361379 0.375783 0.143907
C29   C     C_R   0.796733 0.664769 0.643636 -0.115795
H15   H     H_    0.689159 0.675277 0.646359 0.231793
C30   C     C_R   0.834660 0.741652 0.716716 -0.160824
H16   H     H_    0.756068 0.804377 0.772550 0.204639
C31   C     C_R   0.973279 0.738749 0.717933 -0.207987
H17   H     H_    0.002550 0.799095 0.774582 0.173509
C32   C     C_R   0.075089 0.659309 0.645749 -0.151623
H18   H     H_    0.179969 0.663121 0.650133 0.228132
C33   C     C_R   0.040198 0.579094 0.571622 0.153878
C34   C     C_R   0.896061 0.580322 0.571022 0.152849
N1    N     N_R   0.856860 0.501200 0.500990 -0.120531
C35   C     C_R   0.959730 0.423757 0.431655 -0.118709
H19   H     H_    0.181757 0.361823 0.375407 0.150983
C36   C     C_R   0.102741 0.424037 0.431472 -0.105133
N2    N     N_R   0.142450 0.501280 0.501020 -0.121031
N3    N     N_R   0.479130 0.881563 0.692637 0.188094
O9    O     O_R   0.394639 0.786012 0.724253 -0.455990
O10   O     O_R   0.530879 0.935429 0.761252 -0.432084

loop_
_geom_bond_atom_site_label_1
_geom_bond_atom_site_label_2
_geom_bond_distance
_ccdc_geom_bond_type
C5    H3    1.083718 S    
C10   C11   1.407212 A    
C19   H9    1.079935 S    
C8    H7    1.082818 S    
H14   C35   1.081856 S    
O4    Zn2   1.908279 S    
C21   C22   1.394196 A    
C21   H11   1.082877 S    
C33   N2    1.372777 A    
C25   C26   1.407057 A    
C19   C24   1.416810 A    
Zn2   O8    1.958737 S    
C22   H12   1.081553 S    
C30   H16   1.081849 S    
C10   C12   1.413971 A    
C36   N2    1.368041 A    
C13   C14   1.391840 A    
C11   C18   1.410804 A    
C32   H18   1.064380 S    
C20   C21   1.391789 A    
C30   C31   1.383694 A    
C3    C28   1.404365 S    
C29   H15   1.063097 S    
C26   N3    1.441421 S    
C9    H6    1.078835 S    
Zn1   O7    1.908279 S    
C22   C23   1.415331 A    
C31   H17   1.082838 S    
C34   N1    1.381931 A    
O1    Zn1   1.984765 S    
O3    Zn1   1.958736 S    
O4    C2    1.299894 A    
C7    H5    1.083103 S    
C26   C27   1.374917 A    
O8    C4    1.297233 A    
O2    C1    1.287629 A    
C16   H4    1.079391 S    
C29   C30   1.391877 A    
C12   C16   1.389575 A    
C33   C34   1.435423 A    
C19   C20   1.395272 A    
O7    C4    1.298716 A    
C6    C16   1.387883 A    
C32   C33   1.407872 A    
O3    C2    1.298701 A    
C31   C32   1.389215 A    
H19   C36   1.081938 S    
C23   C28   1.404182 A    
Zn2   N1    2.029590 S    
H1    C17   1.083168 S    
N1    C35   1.367014 A    
H2    C14   1.083910 S    
C23   C24   1.399724 A    
C20   H10   1.082753 S    
C7    C8    1.387783 A    
C15   H8    1.081732 S    
C5    C17   1.394205 A    
Zn2   O6    1.984766 S    
H13   C27   1.085369 S    
C29   C34   1.411833 A    
C1    C25   1.410613 S    
C14   C15   1.387653 A    
Zn1   O5    1.983679 S    
N3    O10   1.301810 A    
O5    C3    1.285776 A    
C24   C25   1.414327 A    
C5    C13   1.404586 A    
C2    C18   1.458114 S    
C27   C28   1.386693 A    
C12   C13   1.420111 A    
C8    C9    1.391969 A    
C6    C17   1.399208 A    
Zn1   N2    2.027353 S    
C4    C6    1.449070 S    
O6    C3    1.284449 A    
C9    C10   1.419034 A    
O2    Zn2   1.983678 S    
C11   C15   1.414478 A    
N3    O9    1.300897 A    
O1    C1    1.284485 A    
C7    C18   1.402216 A    
C35   C36   1.420640 A    
