data_mof_unit_67323.cif
_audit_creation_date              2012-12-11T18:51:26-0500
_audit_creation_method            fapswitch 2.2
_symmetry_space_group_name_H-M    P1
_symmetry_Int_Tables_number       1
_space_group_crystal_system       triclinic
_cell_length_a                    8.374567
_cell_length_b                    15.227539
_cell_length_c                    15.082367
_cell_angle_alpha                 98.556168
_cell_angle_beta                  98.920212
_cell_angle_gamma                 98.84553
_cell_volume                      1847.91307336

loop_
_atom_site_label
_atom_site_type_symbol
_atom_type_description
_atom_site_fract_x
_atom_site_fract_y
_atom_site_fract_z
_atom_type_partial_charge
Ba1   Ba    Ba6+2 0.844890 0.542420 0.457460 4.310116
Ba2   Ba    Ba6+2 0.344950 0.457650 0.542550 4.567034
C1    C     C_3   0.558690 0.854058 0.221658 -1.052334
C2    C     C_R   0.891772 0.454777 0.920540 -0.002752
C3    C     C_R   0.034707 0.461322 0.107218 0.799062
C4    C     C_3   0.109899 0.816368 0.236790 3.910582
C5    C     C_R   0.869560 0.422672 0.072780 1.608497
C6    C     C_R   0.798847 0.421810 0.982566 -1.641040
C7    C     C_R   0.106796 0.466618 0.201173 0.027168
C8    C     C_R   0.271564 0.507255 0.230290 1.553484
C9    C     C_R   0.080850 0.528843 0.797548 0.190366
C10   C     C_R   0.153074 0.532497 0.891331 -1.738750
C11   C     C_R   0.058782 0.494155 0.952176 0.891055
C12   C     C_3   0.574852 0.767975 0.258727 2.989854
C13   C     C_R   0.315575 0.575335 0.927142 -1.508285
C14   C     C_R   0.387500 0.575547 0.017026 3.965236
C15   C     C_R   0.297008 0.537868 0.077895 0.941650
C16   C     C_3   0.095242 0.897523 0.189540 -0.823932
C17   C     C_R   0.130348 0.497397 0.045750 -2.255661
C18   C     C_R   0.366472 0.542403 0.170743 -1.636903
C19   C     C_R   0.917125 0.485293 0.768024 0.550277
C20   C     C_R   0.341239 0.823171 0.440244 -0.523059
C21   C     C_R   0.588485 0.794197 0.527954 -1.328003
C22   C     C_R   0.766777 0.230266 0.544912 0.628692
C23   C     C_3   0.386758 0.269384 0.255223 1.261499
C24   C     C_R   0.875112 0.170936 0.564073 0.442911
C25   C     C_R   0.817116 0.076517 0.538175 -1.301517
C26   C     C_R   0.645266 0.042867 0.512947 0.204678
C27   C     C_R   0.544653 0.103633 0.482273 0.032944
C28   C     C_3   0.254097 0.762815 0.783082 1.135444
C29   C     C_R   0.573619 0.948837 0.504151 -0.457578
C30   C     C_R   0.411326 0.916267 0.454410 1.379092
C31   C     C_R   0.322824 0.977198 0.419315 -2.238384
C32   C     C_R   0.387694 0.068129 0.431786 0.662759
C33   C     C_R   0.655684 0.886727 0.545991 1.365080
C34   C     C_3   0.366242 0.214405 0.159284 0.365480
C35   C     C_R   0.435112 0.762919 0.472641 1.133798
C36   C     C_R   0.607293 0.197607 0.496199 -1.201367
C37   C     C_3   0.120366 0.755209 0.841167 1.003917
C38   C     C_3   0.828528 0.267357 0.302674 -0.649405
C39   C     C_3   0.847686 0.174487 0.321105 -0.457172
C40   C     C_3   0.648132 0.749785 0.749428 1.265275
C41   C     C_3   0.661755 0.852280 0.778207 0.494549
C42   C     C_3   0.068288 0.227387 0.779786 -4.670251
C43   C     C_3   0.994131 0.139467 0.805953 3.490696
C44   C     C_3   0.634804 0.232650 0.790787 2.375195
C45   C     C_3   0.561932 0.139385 0.808344 -0.355458
C46   C     C_R   0.822179 0.449163 0.827769 0.152801
Cl1   Cl    Cl    0.680945 0.699636 0.848866 -0.693006
Cl2   Cl    Cl    0.857514 0.911791 0.834418 -0.172055
H1    H     H_    0.673052 0.783815 0.320384 -0.612484
H2    H     H_    0.582440 0.865283 0.828522 -0.581600
H3    H     H_    0.625348 0.883667 0.718777 0.406173
H4    H     H_    0.455554 0.741661 0.277621 -0.457801
H5    H     H_    0.564410 0.910771 0.278345 -0.179675
H6    H     H_    0.263717 0.271363 0.273271 -0.080499
H7    H     H_    0.453989 0.338953 0.258057 -0.317429
H8    H     H_    0.296227 0.145648 0.156447 -0.567531
H9    H     H_    0.488479 0.207144 0.143135 0.537637
H10   H     H_    0.439939 0.844827 0.174716 0.917426
H11   H     H_    0.185247 0.903092 0.143124 0.077332
H12   H     H_    0.096573 0.688742 0.860026 -0.254464
H13   H     H_    0.140499 0.273262 0.842078 0.773899
H14   H     H_    0.969697 0.262892 0.752722 2.037065
H15   H     H_    0.091165 0.099406 0.823232 -0.311790
H16   H     H_    0.937461 0.155003 0.866625 -0.374014
H17   H     H_    0.900296 0.098754 0.748362 -1.115661
H18   H     H_    0.757305 0.257116 0.834972 -1.354585
H19   H     H_    0.648034 0.225438 0.717811 -0.970005
H20   H     H_    0.615082 0.086895 0.769392 0.475117
H21   H     H_    0.427196 0.124856 0.782805 -0.213398
H22   H     H_    0.791884 0.392131 0.114691 0.032192
H23   H     H_    0.004989 0.765943 0.803829 0.004015
H24   H     H_    0.669405 0.394308 0.962293 0.459018
H25   H     H_    0.514888 0.607296 0.038063 -1.434550
H26   H     H_    0.389758 0.609797 0.886358 0.530541
H27   H     H_    0.327477 0.511558 0.300859 -0.772500
H28   H     H_    0.861058 0.481489 0.697604 -0.778673
H29   H     H_    0.381735 0.691917 0.461921 -0.561639
H30   H     H_    0.200149 0.955293 0.382660 1.067324
H31   H     H_    0.772410 0.909478 0.591928 0.178242
H32   H     H_    0.242374 0.821327 0.262995 -4.987392
H33   H     H_    0.813239 0.302174 0.557114 -0.654566
H34   H     H_    0.717140 0.264476 0.252106 0.518807
H35   H     H_    0.312079 0.109999 0.400135 0.619155
H36   H     H_    0.969066 0.891394 0.150553 -0.065438
H37   H     H_    0.125396 0.961538 0.239141 0.283284
H38   H     H_    0.372020 0.760351 0.825750 -0.051482
H39   H     H_    0.436867 0.840492 0.982415 0.503629
H40   H     H_    0.014067 0.101423 0.155412 0.511108
H41   H     H_    0.008058 0.263608 0.028195 0.458947
H42   H     H_    0.835446 0.657419 0.047183 0.408267
H43   H     H_    0.702071 0.218760 0.055042 0.385233
H44   H     H_    0.079189 0.025601 0.628952 0.384771
H45   H     H_    0.822872 0.308899 0.368945 0.152944
H46   H     H_    0.264862 0.806433 0.602822 0.356286
H47   H     H_    0.765501 0.152423 0.366931 1.077680
H48   H     H_    0.976914 0.179359 0.354170 0.293934
H49   H     H_    0.523014 0.719753 0.711905 -0.236476
H50   H     H_    0.657434 0.869722 0.182296 0.311959
O1    O     O_2   0.826410 0.445300 0.275350 -0.314687
O2    O     O_2   0.219350 0.187428 0.555032 -0.911779
O3    O     O_3   0.176963 0.208506 0.720338 -0.165639
O4    O     O_3   0.098900 0.448430 0.388910 -0.960832
O5    O     O_3   0.590780 0.611410 0.551120 -0.475415
O6    O     O_2   0.326530 0.274990 0.446290 -0.617766
O7    O     O_3   0.478456 0.224078 0.313015 -0.548178
O8    O     O_2   0.493468 0.458774 0.818887 -1.372661
O9    O     O_3   0.528988 0.293366 0.809406 -0.352870
O10   O     O_3   0.628630 0.613330 0.338230 -1.249787
O11   O     O_2   0.704862 0.549158 0.178853 -0.324351
O12   O     O_3   0.766837 0.729200 0.697897 -1.025385
O13   O     O_3   0.962990 0.301247 0.266665 -0.067753
O14   O     O_3   0.618262 0.706247 0.191891 -0.933113
O15   O     O_2   0.863180 0.725040 0.553770 -1.114761
O16   O     O_3   0.060890 0.661420 0.386090 -0.701350
O17   O     O_2   0.036391 0.815795 0.477886 -0.279421
O18   O     O_2   0.200235 0.929524 0.935652 -0.810906
O19   O     O_2   0.031685 0.816623 0.994473 0.144256
O20   O     O_3   0.344883 0.811233 0.007740 -0.549464
O21   O     O_2   0.620853 0.072536 0.183130 -0.142509
O22   O     O_2   0.849984 0.006383 0.248457 -0.139222
O23   O     O_3   0.015171 0.817249 0.306252 -0.595977
O24   O     O_3   0.907776 0.121848 0.141405 -1.017349
O25   O     O_2   0.365786 0.355263 0.072122 -0.917508
O26   O     O_2   0.254775 0.205207 0.982353 -0.041509
O27   O     O_3   0.076326 0.274038 0.090145 -0.813062
O28   O     O_2   0.167714 0.701886 0.098581 -0.369218
O29   O     O_2   0.019044 0.637692 0.207530 0.033036
O30   O     O_3   0.860077 0.715505 0.090419 -0.960964
O31   O     O_2   0.448931 0.082692 0.952538 -0.251068
O32   O     O_2   0.734103 0.074705 0.943022 -0.586171
O33   O     O_3   0.660438 0.231621 0.993373 -0.757784
O34   O     O_2   0.363300 0.554730 0.724710 -0.577278
O35   O     O_2   0.855850 0.927926 0.427424 -0.431676
O36   O     O_2   0.038785 0.065989 0.432297 -0.529478
O37   O     O_3   0.087667 0.986799 0.571826 -0.578130
O38   O     O_2   0.087899 0.884817 0.713383 -0.010800
O39   O     O_2   0.359916 0.946286 0.804915 -0.754805
O40   O     O_3   0.339197 0.857982 0.643862 -0.480539
O41   O     O_3   0.090820 0.551650 0.611100 -0.576816
O42   O     O_3   0.561090 0.386750 0.661790 -0.722748
O43   O     O_3   0.225940 0.696577 0.703954 -1.462204
O44   O     O_3   0.598940 0.388670 0.448890 -0.665884
O45   O     O_3   0.128820 0.338650 0.613920 -0.803369
P1    P     P_3+3 0.996530 0.418490 0.288400 0.855968
P2    P     P_3+3 0.693090 0.712100 0.580610 0.960153
P3    P     P_3+3 0.118057 0.778777 0.399672 0.588054
P4    P     P_3+3 0.193180 0.581580 0.711620 1.437712
P5    P     P_3+3 0.096039 0.222757 0.610792 0.920283
P6    P     P_3+3 0.579083 0.598980 0.219968 2.332233
P7    P     P_3+3 0.505939 0.273169 0.427942 1.088953
P8    P     P_3+3 0.604896 0.397037 0.780183 0.900107
S1    S     S_3+6 0.174103 0.832360 0.946555 0.804962
S2    S     S_3+6 0.801957 0.090732 0.221072 -0.425312
S3    S     S_3+6 0.266367 0.264621 0.072665 -0.225100
S4    S     S_3+6 0.040398 0.714271 0.156597 -0.898006
S5    S     S_3+6 0.601508 0.129614 0.926813 0.793472
S6    S     S_3+6 0.950244 0.011814 0.490052 1.131884
S7    S     S_3+6 0.258767 0.866980 0.738640 0.698917

loop_
_geom_bond_atom_site_label_1
_geom_bond_atom_site_label_2
_ccdc_geom_bond_type
C46   P8    S    
C31   H30   S    
C4    H32   S    
C14   H25   S    
Ba2   O44   S    
O22   S2    D    
C38   H34   S    
C23   H6    S    
C2    C6    A    
C34   H9    S    
O29   S4    D    
C33   H31   S    
O41   P4    S    
C5    C6    A    
C42   H14   S    
Ba2   O45   S    
C28   S7    S    
C35   H29   S    
C23   O7    S    
C6    H24   S    
Ba2   O34   S    
C20   C30   A    
O17   P3    D    
C4    O23   S    
C26   C27   A    
C22   H33   S    
C22   C24   A    
O33   S5    S    
H43   O33   S    
C41   H2    S    
C25   S6    S    
C13   C14   A    
O5    P2    S    
O15   P2    D    
C7    P1    S    
C15   C18   A    
Ba1   Ba2   S    
C2    C11   A    
C40   O12   S    
C44   H19   S    
O3    P5    S    
C44   H18   S    
O36   S6    D    
C1    H5    S    
C1    H50   S    
C42   O3    S    
O8    P8    D    
C38   O13   S    
C8    C18   A    
C14   C15   A    
C19   H28   S    
C43   H17   S    
C22   C36   A    
H39   O20   S    
Ba1   O16   S    
O9    P8    S    
C7    C8    A    
O45   P5    S    
O25   S3    D    
C19   C46   A    
C1    H10   S    
Ba2   P4    S    
C41   H3    S    
C13   H26   S    
Ba1   P1    S    
C23   H7    S    
O14   P6    S    
C36   P7    S    
C8    H27   S    
C9    P4    S    
O28   S4    D    
C26   C29   A    
C42   H13   S    
C4    C16   S    
O1    P1    D    
O35   S6    D    
O37   S6    S    
C37   S1    S    
O4    P1    S    
C24   P5    S    
O6    P7    D    
O10   P6    S    
C5    H22   S    
O16   P3    S    
C11   C17   A    
C40   Cl1   S    
C12   O14   S    
O34   P4    D    
C21   P2    S    
C27   C32   A    
Ba2   O6    S    
O32   S5    D    
C28   O43   S    
C32   H35   S    
O13   P1    S    
C27   C36   A    
O31   S5    D    
H42   O30   S    
C45   H20   S    
C3    C7    A    
Ba1   O10   S    
C12   H1    S    
C10   C13   A    
Ba2   O4    S    
O20   S1    S    
C31   C32   A    
C24   C25   A    
C41   Cl2   S    
C16   H36   S    
C10   C11   A    
Ba1   O4    S    
C45   H21   S    
C1    C12   S    
H41   O27   S    
O2    P5    D    
O7    P7    S    
C38   C39   S    
C12   H4    S    
C20   P3    S    
O39   S7    D    
O19   S1    D    
C21   C33   A    
O30   S4    S    
C43   H15   S    
Ba2   O42   S    
C39   H47   S    
Ba1   P2    S    
C40   C41   S    
C38   H45   S    
C28   H38   S    
Ba1   O1    S    
C25   C26   A    
C4    S4    S    
C42   C43   S    
C34   S3    S    
C3    C5    A    
C2    C46   A    
Ba2   O41   S    
C37   H12   S    
C44   C45   S    
O21   S2    D    
H40   O24   S    
C29   C30   A    
O11   P6    D    
O27   S3    S    
H46   O40   S    
C9    C10   A    
C18   P6    S    
C16   H11   S    
C3    C17   A    
Ba2   O5    S    
C34   H8    S    
C16   H37   S    
O12   P2    S    
C30   C31   A    
O24   S2    S    
O44   P7    S    
Ba1   O44   S    
C21   C35   A    
C40   H49   S    
O40   S7    S    
C20   C35   A    
C15   C17   A    
C9    C19   A    
C28   C37   S    
O18   S1    D    
C29   C33   A    
C37   H23   S    
O42   P8    S    
Ba1   O41   S    
C23   C34   S    
O38   S7    D    
O43   P4    S    
O23   P3    S    
C44   O9    S    
C43   H16   S    
H44   O37   S    
C39   H48   S    
Ba1   O15   S    
Ba1   O5    S    
C39   S2    S    
C45   S5    S    
O26   S3    D    
