data_mof_unit_27518.cif
_audit_creation_date              2013-03-05T16:36:14-0500
_audit_creation_method            fapswitch 2.2
_symmetry_space_group_name_H-M    P1
_symmetry_Int_Tables_number       1
_space_group_crystal_system       triclinic
_cell_length_a                    27.699191
_cell_length_b                    9.068973
_cell_length_c                    7.782191
_cell_angle_alpha                 90.136904
_cell_angle_beta                  89.774772
_cell_angle_gamma                 89.962079
_cell_volume                      1954.89027614

loop_
_atom_site_label
_atom_site_type_symbol
_atom_site_description
_atom_site_fract_x
_atom_site_fract_y
_atom_site_fract_z
_atom_type_partial_charge
O1    O     O_R   0.500000 0.288390 0.642760 -0.573099
O2    O     O_R   0.500000 0.711610 0.357240 -0.571466
O3    O     O_R   0.500000 0.711610 0.642760 -0.569897
O4    O     O_R   0.500000 0.288390 0.357240 -0.567973
C1    C     C_R   0.500028 0.220042 0.499873 0.872503
C2    C     C_R   0.500169 0.779957 0.500133 0.875392
O5    O     O_R   0.430260 0.500000 0.642770 -0.563144
O6    O     O_R   0.569740 0.500000 0.357230 -0.556258
O7    O     O_R   0.569740 0.500000 0.642770 -0.554797
O8    O     O_R   0.430260 0.500000 0.357230 -0.565506
C3    C     C_R   0.407329 0.500034 0.500291 0.943668
C4    C     C_R   0.592895 0.498480 0.499537 0.923417
Cu1   Cu    Cu3+1 0.500000 0.500000 0.669080 1.101275
Cu2   Cu    Cu3+1 0.500000 0.500000 0.330920 1.101469
C5    C     C_R   0.180359 0.356585 0.393069 0.641022
C6    C     C_R   0.822370 0.610753 0.406434 0.638863
C7    C     C_R   0.179194 0.605743 0.317739 0.634038
C8    C     C_R   0.824653 0.364461 0.512600 0.644366
O9    O     O_2   0.205339 0.229357 0.379693 -0.451831
O10   O     O_2   0.796430 0.730497 0.361240 -0.477681
O11   O     O_2   0.202608 0.709993 0.226935 -0.449153
O12   O     O_2   0.801071 0.246253 0.576216 -0.477633
N1    N     N_R   0.203863 0.490654 0.392758 -0.436685
N2    N     N_R   0.799350 0.488150 0.467928 -0.417291
C9    C     C_R   0.279912 0.640407 0.450190 0.388315
C10   C     C_R   0.720749 0.399782 0.367125 0.367625
C11   C     C_R   0.276482 0.391033 0.552668 0.390506
C12   C     C_R   0.724407 0.576726 0.603669 0.371023
C13   C     C_R   0.330875 0.636645 0.454035 0.079994
C14   C     C_R   0.669929 0.397046 0.380120 0.102348
C15   C     C_R   0.327438 0.386103 0.561828 0.086564
C16   C     C_R   0.673398 0.583752 0.608008 0.101224
C17   C     C_R   0.253751 0.505616 0.457779 0.137701
C18   C     C_R   0.747493 0.487727 0.480509 0.198699
C19   C     C_R   0.103312 0.481016 0.368918 -0.047023
C20   C     C_R   0.899532 0.485014 0.430131 -0.042242
C21   C     C_R   0.129644 0.350959 0.396208 -0.053352
C22   C     C_R   0.872841 0.612158 0.388724 -0.051744
C23   C     C_R   0.128505 0.608729 0.321401 -0.054941
C24   C     C_R   0.875031 0.359812 0.492144 -0.050662
C25   C     C_R   0.105039 0.218968 0.425317 -0.123237
C26   C     C_R   0.896897 0.737415 0.329443 -0.127948
C27   C     C_R   0.102874 0.735777 0.278155 -0.126786
C28   C     C_R   0.901180 0.232969 0.532609 -0.130176
C29   C     C_R   0.354504 0.505901 0.500738 -0.230335
C30   C     C_R   0.646140 0.492635 0.496950 -0.237160
H1    H     H_    0.124475 0.116284 0.442047 0.191964
H2    H     H_    0.877191 0.836615 0.296561 0.196320
H3    H     H_    0.121579 0.835634 0.240600 0.190666
H4    H     H_    0.883254 0.135626 0.581981 0.194916
C31   C     C_R   0.976687 0.351924 0.446461 0.041447
C32   C     C_R   0.026164 0.612008 0.339623 0.042888
C33   C     C_R   0.974903 0.612300 0.352703 0.040761
C34   C     C_R   0.027541 0.348938 0.422318 0.042355
C35   C     C_R   0.950588 0.483098 0.409698 0.079729
C36   C     C_R   0.052103 0.480818 0.377490 0.081289
C37   C     C_R   0.950933 0.228740 0.510205 -0.205621
C38   C     C_R   0.052764 0.738298 0.288937 -0.205599
C39   C     C_R   0.946829 0.738073 0.312457 -0.203996
C40   C     C_R   0.054966 0.217806 0.439271 -0.205625
H5    H     H_    0.968279 0.127799 0.548515 0.141718
H6    H     H_    0.036222 0.842153 0.257831 0.135674
H7    H     H_    0.962086 0.839638 0.266286 0.139698
H8    H     H_    0.038811 0.111414 0.460826 0.135225
C41   C     C_1   0.500094 0.065420 0.499828 -0.075011
C42   C     C_1   0.500151 0.934587 0.500193 -0.074814
N3    N     N_1   0.500000 0.500000 0.076820 -0.011514
N4    N     N_1   0.500000 0.500000 0.923180 -0.011834
Br1   Br    Br    0.360108 0.212532 0.646408 -0.420912
Br2   Br    Br    0.641310 0.727549 0.753042 -0.410218
Br3   Br    Br    0.368128 0.810020 0.396765 -0.416273
Br4   Br    Br    0.633571 0.252841 0.249986 -0.415608
O13   O     O_3   0.248166 0.296231 0.648739 -0.656073
H9    H     H_    0.268201 0.243236 0.733377 0.376598
O14   O     O_3   0.753290 0.656909 0.714135 -0.662492
H10   H     H_    0.733862 0.694086 0.811709 0.379826
O15   O     O_3   0.255261 0.772379 0.465670 -0.634016
H11   H     H_    0.277737 0.852915 0.495890 0.389165
O16   O     O_3   0.745998 0.317543 0.246903 -0.662188
H12   H     H_    0.723997 0.284589 0.154937 0.379566

loop_
_geom_bond_atom_site_label_1
_geom_bond_atom_site_label_2
_geom_bond_distance
_ccdc_geom_bond_type
C38   H6    1.075653 S    
O5    Cu1   1.943362 S    
O13   H9    0.988351 S    
O3    C2    1.272577 A    
C33   C39   1.416445 A    
C34   C40   1.417421 A    
O15   H11   0.988570 S    
C11   C17   1.424089 A    
O5    C3    1.280002 A    
C7    N1    1.379211 A    
C9    O15   1.382300 S    
C19   C21   1.403407 A    
C22   C26   1.395820 A    
C7    C23   1.404472 A    
O7    Cu1   1.941759 S    
C5    C21   1.405835 A    
C20   C24   1.408484 A    
C8    C24   1.404455 A    
C27   C38   1.390397 A    
C5    O9    1.348605 S    
C10   C18   1.402156 A    
N1    C17   1.479667 S    
Cu2   N3    1.977454 S    
C31   C37   1.415600 A    
O3    Cu1   1.930472 S    
C6    O10   1.349831 S    
C5    N1    1.379571 A    
C12   C18   1.403497 A    
C6    N2    1.368560 A    
Cu1   Cu2   2.631626 S    
O4    Cu2   1.930473 S    
O2    C2    1.271832 A    
C33   C35   1.422842 A    
C9    C13   1.412465 A    
C34   C36   1.419944 A    
C11   C15   1.414180 A    
N3    N4    1.195657 T    
C12   C16   1.414580 A    
C8    N2    1.368605 A    
C4    C30   1.475803 S    
O8    Cu2   1.941762 S    
C27   H3    1.083825 S    
C16   Br2   1.936000 S    
C7    O11   1.346925 S    
C13   C29   1.403315 A    
C19   C23   1.402237 A    
O14   H10   0.987526 S    
C15   Br1   1.933316 S    
C14   Br4   1.937412 S    
C2    C42   1.402340 S    
C28   C37   1.388916 A    
O6    C4    1.282057 A    
C25   H1    1.083709 S    
C26   H2    1.083673 S    
C32   C38   1.418168 A    
C1    C41   1.402263 S    
C10   C14   1.411148 A    
O1    C1    1.271769 A    
C3    C29   1.464135 S    
O1    Cu1   1.929499 S    
C32   C33   1.423134 A    
C28   H4    1.083611 S    
O6    Cu2   1.943360 S    
C19   C36   1.419753 A    
C8    O12   1.349786 S    
C16   C30   1.415062 A    
C14   C30   1.415314 A    
C25   C40   1.390871 A    
O4    C1    1.272633 A    
C26   C39   1.388857 A    
C23   C27   1.395518 A    
C37   H5    1.076845 S    
C39   H7    1.075638 S    
C10   O16   1.382588 S    
C40   H8    1.077079 S    
C31   C34   1.420587 A    
C20   C22   1.408017 A    
C20   C35   1.422584 A    
C31   C35   1.421879 A    
C21   C25   1.396371 A    
O2    Cu2   1.929499 S    
O7    C4    1.283879 A    
N2    C18   1.439360 S    
O8    C3    1.279600 A    
O16   H12   0.987710 S    
C24   C28   1.396243 A    
C41   C42   1.186527 T    
C15   C29   1.403287 A    
C9    C17   1.422703 A    
C11   O13   1.383010 S    
C12   O14   1.382409 S    
C32   C36   1.421557 A    
C6    C22   1.404321 A    
C13   Br3   1.933259 S    
Cu1   N4    1.977454 S    
