data_mof_unit_58424.cif
_audit_creation_date              2012-12-10T17:44:28-0500
_audit_creation_method            fapswitch 2.2
_symmetry_space_group_name_H-M    P1
_symmetry_Int_Tables_number       1
_space_group_crystal_system       triclinic
_cell_length_a                    9.897693
_cell_length_b                    10.651182
_cell_length_c                    15.499151
_cell_angle_alpha                 91.534158
_cell_angle_beta                  67.503796
_cell_angle_gamma                 90.432895
_cell_volume                      1509.0700939

loop_
_atom_site_label
_atom_site_type_symbol
_atom_type_description
_atom_site_fract_x
_atom_site_fract_y
_atom_site_fract_z
_atom_type_partial_charge
C1    C     C_R   0.503089 0.740536 0.494505 0.862721
C2    C     C_R   0.703518 0.391101 0.041476 0.174879
C3    C     C_R   0.571054 0.455722 0.092181 0.097694
C4    C     C_R   0.408187 0.499513 0.675942 0.859255
C5    C     C_R   0.806292 0.371976 0.082223 -0.185229
C6    C     C_R   0.776666 0.414243 0.173698 -0.190754
C7    C     C_R   0.551577 0.508056 0.179549 -0.242696
C8    C     C_R   0.284645 0.889591 0.449461 -0.199409
C9    C     C_R   0.150074 0.946320 0.466010 0.056404
C10   C     C_R   0.108484 0.053207 0.524054 -0.243683
C11   C     C_R   0.208077 0.111313 0.556519 0.014753
C12   C     C_R   0.398038 0.463425 0.917248 0.083094
C13   C     C_R   0.352845 0.062588 0.528141 0.049095
C14   C     C_R   0.380239 0.941060 0.489478 0.063007
C15   C     C_R   0.501144 0.875541 0.494484 -0.103196
C16   C     C_R   0.490854 0.261818 0.513101 0.895034
C17   C     C_R   0.606858 0.938752 0.518238 -0.205428
C18   C     C_R   0.597114 0.066259 0.532817 -0.213034
C19   C     C_R   0.474618 0.129733 0.532346 -0.131071
C20   C     C_R   0.791212 0.669218 0.619706 -0.158270
C21   C     C_R   0.827615 0.750563 0.679143 -0.198132
C22   C     C_R   0.966250 0.747019 0.680891 -0.183441
C23   C     C_R   0.257968 0.514930 0.971860 0.112752
C24   C     C_R   0.069715 0.662950 0.622523 -0.156736
C25   C     C_R   0.037649 0.581229 0.559967 0.165808
C26   C     C_R   0.893440 0.582643 0.559225 0.183730
C27   C     C_R   0.961846 0.421277 0.443206 -0.131609
C28   C     C_R   0.591639 0.498688 0.323994 0.875226
C29   C     C_R   0.105146 0.421563 0.443039 -0.116630
C30   C     C_R   0.349182 0.496635 0.777506 -0.068241
C31   C     C_R   0.646915 0.480066 0.222967 -0.056881
C32   C     C_R   0.162796 0.551827 0.928083 -0.001508
C33   C     C_R   0.208860 0.541042 0.831113 -0.234405
C34   C     C_R   0.496910 0.431099 0.959713 0.078867
C35   C     C_R   0.440470 0.455732 0.820425 -0.266983
C36   C     C_1   0.051930 0.890229 0.427474 0.137505
C37   C     C_1   0.152407 0.207769 0.628904 0.182285
C38   C     C_1   0.022719 0.610652 0.979449 0.140570
C39   C     C_R   0.462362 0.467005 0.054205 0.069584
C40   C     C_R   0.319153 0.509900 0.108428 -0.230440
C41   C     C_R   0.218514 0.531636 0.068172 -0.230820
C42   C     C_R   0.629781 0.365511 0.910795 -0.221932
C43   C     C_R   0.730405 0.345064 0.951582 -0.227651
H1    H     H_    0.907109 0.321282 0.044411 0.141033
H2    H     H_    0.173215 0.664143 0.628633 0.201391
H3    H     H_    0.851563 0.391393 0.206823 0.151258
H4    H     H_    0.830272 0.293891 0.912202 0.157315
H5    H     H_    0.138314 0.573311 0.797188 0.160696
H6    H     H_    0.548716 0.425095 0.775867 0.163242
H7    H     H_    0.280235 0.524704 0.183120 0.151596
H8    H     H_    0.657156 0.324683 0.841795 0.148665
H9    H     H_    0.110997 0.565775 0.112888 0.164689
H10   H     H_    0.747165 0.816205 0.724628 0.152740
H11   H     H_    0.186309 0.357389 0.396592 0.155243
H12   H     H_    0.698636 0.890396 0.524084 0.183449
H13   H     H_    0.314213 0.806466 0.404389 0.164717
H14   H     H_    0.999014 0.091197 0.543849 0.139546
H15   H     H_    0.687501 0.115363 0.541611 0.167834
H16   H     H_    0.935196 0.356992 0.396863 0.145793
H17   H     H_    0.682069 0.677652 0.623674 0.202359
H18   H     H_    0.459360 0.568102 0.217201 0.147317
H19   H     H_    0.993882 0.809579 0.727857 0.152726
N1    N     N_R   0.856800 0.501200 0.500850 -0.115629
N2    N     N_R   0.142390 0.501280 0.500880 -0.119567
N3    N     N_1   0.973793 0.844683 0.396120 -0.208204
N4    N     N_1   0.106915 0.284439 0.687139 -0.208772
N5    N     N_1   0.910948 0.658498 0.020252 -0.191088
O1    O     O_R   0.385310 0.683220 0.500000 -0.645096
O2    O     O_R   0.614640 0.683250 0.500010 -0.627757
O3    O     O_R   0.319840 0.499980 0.632240 -0.623700
O4    O     O_R   0.549160 0.500000 0.632250 -0.639558
O5    O     O_R   0.385360 0.316750 0.499990 -0.609616
O6    O     O_R   0.614690 0.316780 0.500000 -0.618855
O7    O     O_R   0.450840 0.500000 0.367750 -0.617231
O8    O     O_R   0.680160 0.500020 0.367760 -0.603827
Zn1   Zn    Zn3+2 0.346880 0.499980 0.499990 0.936242
Zn2   Zn    Zn3+2 0.653120 0.500020 0.500010 0.936962

loop_
_geom_bond_atom_site_label_1
_geom_bond_atom_site_label_2
_ccdc_geom_bond_type
C27   C29   A    
O2    Zn2   S    
C34   C42   A    
O5    Zn1   S    
C28   O7    A    
C8    H13   S    
C4    O3    A    
C12   C23   A    
O7    Zn1   S    
C30   C35   A    
C24   H2    S    
C3    C7    A    
C5    C6    A    
C29   H11   S    
C1    O1    A    
C18   C19   A    
C11   C37   S    
C7    H18   S    
C18   H15   S    
C8    C9    A    
C16   O5    A    
C35   H6    S    
C9    C36   S    
C1    C15   S    
C32   C38   S    
C20   H17   S    
C9    C10   A    
C17   H12   S    
C41   H9    S    
C42   H8    S    
C6    C31   A    
C29   N2    A    
C3    C39   A    
C21   C22   A    
C7    C31   A    
C13   C19   A    
C16   O6    A    
C10   H14   S    
C24   C25   A    
C39   C40   A    
C36   N3    T    
C25   C26   A    
C1    O2    A    
C34   C39   A    
C25   N2    A    
C26   N1    A    
C22   H19   S    
C2    C43   A    
C37   N4    T    
C17   C18   A    
N2    Zn1   S    
C20   C21   A    
C12   C35   A    
O8    Zn2   S    
C27   N1    A    
C40   C41   A    
C5    H1    S    
O3    Zn1   S    
C22   C24   A    
C2    C5    A    
C42   C43   A    
C12   C34   A    
O4    Zn2   S    
N1    Zn2   S    
C15   C17   A    
C8    C14   A    
C6    H3    S    
C30   C33   A    
C28   C31   S    
O1    Zn1   S    
C23   C41   A    
C32   C33   A    
C2    C3    A    
C27   H16   S    
C23   C32   A    
C21   H10   S    
C11   C13   A    
C20   C26   A    
C16   C19   S    
C40   H7    S    
C10   C11   A    
C38   N5    T    
C33   H5    S    
O6    Zn2   S    
C14   C15   A    
C13   C14   A    
C28   O8    A    
C43   H4    S    
C4    O4    A    
C4    C30   S    
