data_mof_unit_16095.cif
_audit_creation_date              2012-12-11T13:59:53-0500
_audit_creation_method            fapswitch 2.2
_symmetry_space_group_name_H-M    P1
_symmetry_Int_Tables_number       1
_space_group_crystal_system       triclinic
_cell_length_a                    11.248716
_cell_length_b                    11.248717
_cell_length_c                    18.697438
_cell_angle_alpha                 89.951246
_cell_angle_beta                  90.048698
_cell_angle_gamma                 120.007364
_cell_volume                      2048.73711683

loop_
_atom_site_label
_atom_site_type_symbol
_atom_type_description
_atom_site_fract_x
_atom_site_fract_y
_atom_site_fract_z
_atom_type_partial_charge
C1    C     C_R   0.542763 0.478861 0.852978 0.567506
C2    C     C_R   0.481198 0.541436 0.350706 0.609723
C3    C     C_R   0.060733 0.518971 0.350845 0.553313
C4    C     C_R   0.458720 0.939887 0.350523 0.584454
C5    C     C_2   0.997822 0.500641 0.578737 -0.081419
C6    C     C_2   0.499624 0.497628 0.578402 -0.037207
C7    C     C_2   0.504120 0.006408 0.577571 -0.122496
C8    C     C_2   0.500641 0.997822 0.421263 -0.081419
C9    C     C_2   0.497629 0.499623 0.421598 -0.037206
C10   C     C_2   0.006408 0.504120 0.422429 -0.122496
C11   C     C_2   0.980651 0.395013 0.462996 -0.055853
C12   C     C_R   0.521140 0.063850 0.852980 0.559443
C13   C     C_2   0.606440 0.583577 0.462333 -0.069559
C14   C     C_2   0.417973 0.025053 0.461436 0.010693
C15   C     C_2   0.395012 0.980649 0.537005 -0.055854
C16   C     C_2   0.583579 0.606439 0.537666 -0.069559
C17   C     C_2   0.025055 0.417974 0.538564 0.010694
C18   C     C_2   0.003863 0.501926 0.921786 -0.107350
C19   C     C_2   0.498089 0.501782 0.921779 -0.105259
C20   C     C_2   0.498299 0.996252 0.921819 -0.106240
C21   C     C_2   0.501926 0.003863 0.078213 -0.107350
C22   C     C_2   0.501782 0.498089 0.078221 -0.105259
C23   C     C_R   0.936160 0.457239 0.852974 0.560113
C24   C     C_2   0.996253 0.498300 0.078181 -0.106240
C25   C     C_2   0.016606 0.605783 0.037978 -0.163600
C26   C     C_2   0.394387 0.410708 0.038065 -0.164977
C27   C     C_2   0.589511 0.984087 0.038176 -0.166245
C28   C     C_2   0.605783 0.016605 0.962022 -0.163599
C29   C     C_2   0.410709 0.394386 0.961936 -0.164977
C30   C     C_2   0.984088 0.589512 0.961824 -0.166245
C31   C     C_2   0.908597 0.253180 0.432887 0.241079
C32   C     C_2   0.749389 0.655848 0.433680 0.254061
C33   C     C_2   0.349977 0.099806 0.432538 0.292508
C34   C     C_R   0.478861 0.542763 0.147022 0.567506
C35   C     C_2   0.253180 0.908595 0.567114 0.241080
C36   C     C_2   0.655852 0.749388 0.566319 0.254062
C37   C     C_2   0.099808 0.349980 0.567462 0.292509
C38   C     C_R   0.063850 0.521140 0.147020 0.559443
C39   C     C_R   0.457239 0.936160 0.147026 0.560113
C40   C     C_R   0.541437 0.481198 0.649294 0.609722
C41   C     C_R   0.518971 0.060733 0.649155 0.553312
C42   C     C_R   0.939888 0.458720 0.649477 0.584453
Cr1   Cr    Cr6+3 0.464030 0.233680 0.750360 1.050074
Cr2   Cr    Cr6+3 0.766320 0.230350 0.750360 1.082860
Cr3   Cr    Cr6+3 0.769650 0.535970 0.750360 1.055838
Cr4   Cr    Cr6+3 0.233680 0.464030 0.249640 1.050074
Cr5   Cr    Cr6+3 0.230350 0.766320 0.249640 1.082860
Cr6   Cr    Cr6+3 0.535970 0.769650 0.249640 1.055837
H1    H     H_    0.037194 0.602715 0.446959 0.140311
H2    H     H_    0.395215 0.947000 0.944020 0.109088
H3    H     H_    0.552102 0.604854 0.943991 0.110070
H4    H     H_    0.052745 0.447776 0.944107 0.111039
H5    H     H_    0.875272 0.235767 0.377498 0.142524
H6    H     H_    0.832596 0.734323 0.465178 0.124205
H7    H     H_    0.275262 0.109981 0.464610 0.143379
H8    H     H_    0.235768 0.875267 0.622503 0.142523
H9    H     H_    0.734328 0.832595 0.534821 0.124206
H10   H     H_    0.109985 0.275265 0.535391 0.143377
H11   H     H_    0.061958 0.708529 0.060260 0.157674
H12   H     H_    0.399470 0.430114 0.446011 0.077374
H13   H     H_    0.291670 0.353117 0.060370 0.158113
H14   H     H_    0.647264 0.939178 0.060590 0.157372
H15   H     H_    0.708528 0.061957 0.939739 0.157674
H16   H     H_    0.353119 0.291669 0.939631 0.158113
H17   H     H_    0.939179 0.647265 0.939409 0.157372
H18   H     H_    0.567978 0.966778 0.446199 0.101663
H19   H     H_    0.602715 0.037193 0.553041 0.140312
H20   H     H_    0.430114 0.399470 0.553989 0.077374
H21   H     H_    0.966777 0.567977 0.553800 0.101663
H22   H     H_    0.947000 0.395215 0.055980 0.109088
H23   H     H_    0.604855 0.552102 0.056009 0.110070
H24   H     H_    0.447776 0.052745 0.055893 0.111039
O1    O     O_R   0.434100 0.092480 0.829780 -0.519192
O2    O     O_R   0.362730 0.477510 0.175360 -0.496040
O3    O     O_R   0.114780 0.637270 0.175360 -0.496893
O4    O     O_R   0.522490 0.885220 0.175360 -0.503672
O5    O     O_R   0.432250 0.092620 0.670380 -0.528101
O6    O     O_R   0.907380 0.339630 0.670380 -0.455449
O7    O     O_R   0.660370 0.567750 0.670380 -0.471910
O8    O     O_R   0.092620 0.432250 0.329620 -0.528102
O9    O     O_R   0.339630 0.907380 0.329620 -0.455449
O10   O     O_R   0.567750 0.660370 0.329620 -0.471910
O11   O     O_R   0.475790 0.362860 0.676880 -0.497095
O12   O     O_R   0.907520 0.341620 0.829780 -0.510811
O13   O     O_R   0.637140 0.112930 0.676880 -0.473774
O14   O     O_R   0.887070 0.524210 0.676880 -0.516459
O15   O     O_R   0.362860 0.475790 0.323120 -0.497096
O16   O     O_R   0.112930 0.637140 0.323120 -0.473775
O17   O     O_R   0.524210 0.887070 0.323120 -0.516459
O18   O     O_3   0.666667 0.333333 0.749450 -0.274750
O19   O     O_3   0.333333 0.666667 0.250550 -0.274750
O20   O     O_2   0.879717 0.153557 0.470488 -0.543637
O21   O     O_2   0.777028 0.623322 0.376405 -0.476807
O22   O     O_2   0.381986 0.157123 0.374449 -0.498914
O23   O     O_R   0.658380 0.565900 0.829780 -0.510765
O24   O     O_2   0.153556 0.879715 0.529514 -0.543637
O25   O     O_2   0.623325 0.777029 0.623593 -0.476807
O26   O     O_2   0.157125 0.381988 0.625552 -0.498914
O27   O     O_R   0.092480 0.434100 0.170220 -0.519192
O28   O     O_R   0.341620 0.907520 0.170220 -0.510811
O29   O     O_R   0.565900 0.658380 0.170220 -0.510765
O30   O     O_R   0.477510 0.362730 0.824640 -0.496040
O31   O     O_R   0.637270 0.114780 0.824640 -0.496893
O32   O     O_R   0.885220 0.522490 0.824640 -0.503672

loop_
_geom_bond_atom_site_label_1
_geom_bond_atom_site_label_2
_ccdc_geom_bond_type
Cr1   O1    S    
C5    C42   S    
C8    H18   S    
Cr1   O11   S    
Cr6   O4    S    
C13   C32   S    
C4    C8    S    
C33   O22   D    
C14   C33   S    
C18   H4    S    
C35   O24   D    
C27   H14   S    
C26   H13   S    
Cr4   O15   S    
C41   O5    A    
C5    C17   D    
C7    H19   S    
C32   H6    S    
C9    C13   D    
C20   H2    S    
C4    O9    A    
Cr6   O19   S    
C24   C38   S    
C36   O25   D    
C18   C30   D    
C37   H10   S    
C6    H20   S    
C32   O21   D    
C21   C27   D    
C29   H16   S    
C11   C31   S    
C12   O1    A    
C40   O11   A    
C3    O8    A    
C15   C35   S    
C37   O26   D    
Cr2   O31   S    
C3    O16   A    
C38   O3    A    
C22   C34   S    
C1    C19   S    
C34   O29   A    
C23   O12   A    
C21   H24   S    
C24   H22   S    
C18   C23   S    
Cr1   O18   S    
C2    O15   A    
C24   C25   D    
C12   O31   A    
C36   H9    S    
Cr5   O9    S    
Cr4   O19   S    
C20   C28   D    
C5    H21   S    
Cr5   O28   S    
Cr3   O32   S    
C23   O32   A    
C21   C39   S    
C1    O23   A    
C12   C20   S    
C40   O7    A    
C33   H7    S    
Cr3   O7    S    
C17   C37   S    
C39   O4    A    
C31   H5    S    
Cr3   O18   S    
C34   O2    A    
C42   O14   A    
C42   O6    A    
Cr6   O17   S    
C6    C40   S    
C2    O10   A    
Cr2   O13   S    
C19   C29   D    
C22   H23   S    
Cr4   O2    S    
Cr2   O18   S    
C4    O17   A    
C25   C30   S    
C11   C17   S    
C8    C14   D    
C35   H8    S    
Cr5   O19   S    
C38   O27   A    
Cr2   O12   S    
Cr1   O5    S    
C41   O13   A    
C9    H12   S    
Cr5   O16   S    
Cr4   O27   S    
Cr2   O6    S    
Cr3   O14   S    
Cr1   O30   S    
Cr5   O3    S    
C3    C10   S    
C16   C36   S    
Cr4   O8    S    
C2    C9    S    
C39   O28   A    
Cr6   O29   S    
C7    C15   D    
Cr6   O10   S    
C7    C41   S    
C30   H17   S    
C10   C11   D    
C6    C16   D    
C28   H15   S    
C19   H3    S    
C26   C29   S    
C31   O20   D    
C22   C26   D    
C13   C16   S    
C27   C28   S    
C14   C15   S    
C25   H11   S    
C10   H1    S    
C1    O30   A    
Cr3   O23   S    
