data_mof_unit_57824.cif
_audit_creation_date              2012-12-11T14:21:08-0500
_audit_creation_method            fapswitch 2.2
_symmetry_space_group_name_H-M    P1
_symmetry_Int_Tables_number       1
_space_group_crystal_system       triclinic
_cell_length_a                    11.577191
_cell_length_b                    11.595557
_cell_length_c                    19.416201
_cell_angle_alpha                 90.452337
_cell_angle_beta                  89.679976
_cell_angle_gamma                 59.183794
_cell_volume                      2238.29781514

loop_
_atom_site_label
_atom_site_type_symbol
_atom_type_description
_atom_site_fract_x
_atom_site_fract_y
_atom_site_fract_z
_atom_type_partial_charge
C1    C     C_R   0.640780 0.118343 0.598849 0.548644
C2    C     C_1   0.652702 0.681732 0.663537 0.002287
C3    C     C_1   0.149290 0.186730 0.863773 0.003820
C4    C     C_1   0.231411 0.142855 0.735990 -0.032493
C5    C     C_1   0.191610 0.161972 0.805616 -0.028528
C6    C     C_1   0.261877 0.131358 0.676019 0.002569
C7    C     C_1   0.677937 0.190786 0.861134 0.001624
C8    C     C_1   0.657797 0.168496 0.728918 -0.033018
C9    C     C_1   0.664849 0.181184 0.800471 -0.032075
C10   C     C_1   0.652577 0.151214 0.668271 -0.000490
C11   C     C_R   0.694291 0.584478 0.209100 -0.010556
C12   C     C_R   0.614106 0.743096 0.597662 0.535160
C13   C     C_R   0.582383 0.602210 0.249402 0.025084
C14   C     C_R   0.599554 0.584861 0.320821 0.044136
C15   C     C_R   0.797610 0.599750 0.314982 -0.176941
C16   C     C_R   0.806756 0.570967 0.244203 -0.159769
C17   C     C_R   0.451170 0.647125 0.224793 -0.094068
C18   C     C_R   0.353613 0.649784 0.268570 -0.098995
C19   C     C_R   0.387572 0.596223 0.334232 -0.105136
C20   C     C_R   0.511748 0.561701 0.360362 -0.079498
C21   C     C_R   0.684067 0.622385 0.351923 -0.008919
C22   C     C_R   0.165945 0.183285 0.187920 -0.051484
C23   C     C_R   0.299296 0.119357 0.604991 0.561868
C24   C     C_R   0.190303 0.272030 0.224988 0.018762
C25   C     C_R   0.168896 0.282669 0.296355 -0.006777
C26   C     C_R   0.179744 0.066170 0.294323 0.235137
C27   C     C_R   0.173366 0.073599 0.222316 -0.129271
C28   C     C_R   0.226885 0.356475 0.192015 -0.066176
C29   C     C_R   0.216724 0.465785 0.226869 -0.133269
C30   C     C_R   0.170156 0.491829 0.294760 -0.155279
C31   C     C_R   0.143995 0.402724 0.329037 -0.090795
C32   C     C_R   0.180695 0.170461 0.332394 -0.016808
C33   C     C_R   0.710959 0.200771 0.205173 -0.003613
C34   C     C_R   0.620833 0.082758 0.393966 0.554520
C35   C     C_R   0.798333 0.070932 0.233423 0.034995
C36   C     C_R   0.747440 0.024502 0.284341 0.020759
C37   C     C_R   0.555560 0.248899 0.299478 -0.138644
C38   C     C_R   0.588597 0.287416 0.238376 -0.155945
C39   C     C_R   0.929390 0.979493 0.207894 -0.086168
C40   C     C_R   0.983605 0.842460 0.213928 -0.124078
C41   C     C_R   0.917834 0.795970 0.254318 -0.137421
C42   C     C_R   0.804996 0.885598 0.292631 -0.103909
C43   C     C_R   0.638135 0.117952 0.324158 -0.003015
C44   C     C_R   0.085073 0.229176 0.929642 0.540332
C45   C     C_R   0.625450 0.724079 0.408335 0.538540
C46   C     C_R   0.710114 0.545291 0.922691 0.562175
C47   C     C_R   0.707667 0.206138 0.930497 0.556815
C48   C     C_R   0.090049 0.231286 0.123174 0.523485
C49   C     C_R   0.706364 0.555313 0.134129 0.544699
C50   C     C_R   0.737475 0.232309 0.135711 0.529124
C51   C     C_R   0.240761 0.142922 0.401733 0.551479
C52   C     C_1   0.700724 0.578772 0.851507 0.000607
C53   C     C_1   0.674795 0.642223 0.721726 -0.029495
C54   C     C_1   0.691303 0.606009 0.791438 -0.031040
Cr1   Cr    Cr6+3 0.404720 0.198220 0.499960 1.006164
Cr2   Cr    Cr6+3 0.698290 0.897110 0.500380 0.985647
Cr3   Cr    Cr6+3 0.396970 0.904720 0.499610 1.005541
Cr4   Cr    Cr6+3 0.926180 0.151990 0.028120 1.010810
Cr5   Cr    Cr6+3 0.921330 0.451820 0.027470 1.026760
Cr6   Cr    Cr6+3 0.626260 0.446870 0.028710 1.012651
H1    H     H_    0.874038 0.611435 0.340121 0.114247
H2    H     H_    0.237932 0.533035 0.199176 0.100043
H3    H     H_    0.149572 0.583231 0.320478 0.099431
H4    H     H_    0.103551 0.428975 0.380939 0.133630
H5    H     H_    0.465014 0.320859 0.326943 0.158781
H6    H     H_    0.985693 0.011529 0.178074 0.146515
H7    H     H_    0.518965 0.384241 0.217106 0.144950
H8    H     H_    0.073145 0.773390 0.185080 0.099719
H9    H     H_    0.954856 0.691109 0.256149 0.123563
H10   H     H_    0.757691 0.847318 0.325377 0.151757
H11   H     H_    0.417208 0.691197 0.174945 0.151353
H12   H     H_    0.897661 0.546434 0.216165 0.155383
H13   H     H_    0.251443 0.694779 0.252026 0.112827
H14   H     H_    0.314946 0.592510 0.367677 0.095315
H15   H     H_    0.531768 0.534708 0.414129 0.116128
H16   H     H_    0.259743 0.340175 0.138633 0.139502
H17   H     H_    0.176143 0.992792 0.193033 0.124277
O1    O     O_R   0.267740 0.231960 0.575440 -0.505539
O2    O     O_R   0.685970 0.784660 0.430010 -0.528672
O3    O     O_R   0.502530 0.767000 0.423990 -0.495596
O4    O     O_R   0.288330 0.026350 0.429250 -0.457214
O5    O     O_3   0.499990 0.000020 0.499980 -0.278154
O6    O     O_R   0.821500 0.119340 0.952830 -0.492822
O7    O     O_R   0.037130 0.162530 0.957360 -0.492747
O8    O     O_R   0.056440 0.344740 0.951340 -0.510169
O9    O     O_R   0.797900 0.560360 0.957470 -0.474884
O10   O     O_R   0.596130 0.579390 0.952730 -0.492757
O11   O     O_R   0.639060 0.321160 0.958670 -0.504571
O12   O     O_R   0.527280 0.186640 0.570530 -0.503676
O13   O     O_R   0.821240 0.124200 0.104370 -0.509371
O14   O     O_R   0.036890 0.167040 0.097840 -0.527955
O15   O     O_R   0.056180 0.349610 0.102880 -0.524486
O16   O     O_R   0.797660 0.564870 0.097950 -0.477974
O17   O     O_R   0.595880 0.584250 0.104270 -0.528670
O18   O     O_R   0.638830 0.325670 0.099150 -0.504840
O19   O     O_3   0.824590 0.350230 0.028100 -0.303531
O20   O     O_R   0.728090 0.003450 0.576380 -0.509013
O21   O     O_R   0.682970 0.789190 0.570490 -0.494813
O22   O     O_R   0.499290 0.771880 0.575530 -0.520758
O23   O     O_R   0.285330 0.030870 0.569730 -0.505698
O24   O     O_R   0.270980 0.227080 0.423890 -0.536201
O25   O     O_R   0.530280 0.182120 0.430050 -0.500386
O26   O     O_R   0.731330 0.998570 0.424830 -0.537057
O27   O     O_3   0.201533 0.949318 0.325306 -0.546224
C55   C     C_3   0.088559 0.973390 0.365845 0.020697
H18   H     H_    0.028783 0.942518 0.335039 0.161365
H19   H     H_    0.020241 0.080775 0.381107 0.103977
C56   C     C_3   0.136712 0.888801 0.431678 -0.243588
H20   H     H_    0.237849 0.799430 0.423163 0.199096
H21   H     H_    0.144915 0.948541 0.474233 0.176498
C57   C     C_3   0.041764 0.842646 0.456067 -0.468497
H22   H     H_    0.948255 0.930130 0.476742 0.204587
H23   H     H_    0.089486 0.769536 0.498318 0.131853
H24   H     H_    0.018624 0.793153 0.413570 0.149849

loop_
_geom_bond_atom_site_label_1
_geom_bond_atom_site_label_2
_ccdc_geom_bond_type
C25   C31   A    
C22   C48   S    
C26   C32   A    
C41   C42   A    
C36   C42   A    
C35   C36   A    
C16   H12   S    
Cr2   O21   S    
C2    C12   S    
Cr6   O11   S    
C53   C54   S    
C55   H19   S    
Cr1   O25   S    
C26   C27   A    
C29   C30   A    
Cr2   O2    S    
C14   C21   A    
C28   C29   A    
C30   C31   A    
C50   O18   A    
C15   C16   A    
Cr3   O22   S    
C46   C52   S    
C42   H10   S    
C56   H20   S    
C18   C19   A    
Cr4   O19   S    
C12   O22   A    
C26   O27   S    
C50   O13   A    
C19   C20   A    
C8    C9    S    
C48   O14   A    
C37   H5    S    
C47   O6    A    
C49   O17   A    
C45   O3    A    
Cr4   O14   S    
C51   O4    A    
C12   O21   A    
C25   C32   A    
C23   O23   A    
C30   H3    S    
Cr3   O3    S    
Cr2   O20   S    
O27   C55   S    
Cr6   O10   S    
C52   C54   T    
C21   C45   S    
C55   C56   S    
C3    C44   S    
C34   C43   S    
C14   C20   A    
C24   C25   A    
C45   O2    A    
C1    O20   A    
C39   C40   A    
Cr1   O1    S    
C27   H17   S    
C33   C50   S    
Cr3   O23   S    
C20   H15   S    
C7    C47   S    
C37   C43   A    
C35   C39   A    
Cr5   O8    S    
C32   C51   S    
C37   C38   A    
C11   C49   S    
Cr4   O7    S    
C11   C16   A    
C17   C18   A    
C15   H1    S    
C57   H23   S    
C34   O25   A    
Cr1   O5    S    
Cr4   O13   S    
Cr6   O19   S    
C4    C6    T    
C40   C41   A    
C17   H11   S    
C18   H13   S    
C22   C27   A    
C40   H8    S    
C39   H6    S    
C22   C24   A    
Cr5   O19   S    
C44   O8    A    
C28   H16   S    
C41   H9    S    
C46   O10   A    
C7    C9    T    
C29   H2    S    
C1    O12   A    
C57   H22   S    
C31   H4    S    
C19   H14   S    
C1    C10   S    
C24   C28   A    
Cr2   O26   S    
C4    C5    S    
C3    C5    T    
C2    C53   T    
Cr2   O5    S    
C13   C17   A    
C51   O24   A    
C55   H18   S    
Cr1   O24   S    
C33   C38   A    
C56   C57   S    
C44   O7    A    
C47   O11   A    
Cr5   O9    S    
Cr1   O12   S    
Cr4   O6    S    
C11   C13   A    
C6    C23   S    
C34   O26   A    
C33   C35   A    
C56   H21   S    
C57   H24   S    
Cr3   O4    S    
Cr5   O15   S    
C23   O1    A    
Cr6   O18   S    
C15   C21   A    
C38   H7    S    
C8    C10   T    
C48   O15   A    
Cr3   O5    S    
C36   C43   A    
Cr5   O16   S    
C49   O16   A    
C13   C14   A    
C46   O9    A    
Cr6   O17   S    
