data_mof_unit_49671.cif
_audit_creation_date              2012-12-11T16:04:55-0500
_audit_creation_method            fapswitch 2.2
_symmetry_space_group_name_H-M    P1
_symmetry_Int_Tables_number       1
_space_group_crystal_system       triclinic
_cell_length_a                    10.654111
_cell_length_b                    10.636663
_cell_length_c                    16.879174
_cell_angle_alpha                 98.971511
_cell_angle_beta                  98.955626
_cell_angle_gamma                 61.624296
_cell_volume                      1655.06802679

loop_
_atom_site_label
_atom_site_type_symbol
_atom_type_description
_atom_site_fract_x
_atom_site_fract_y
_atom_site_fract_z
_atom_type_partial_charge
C1    C     C_R   0.354745 0.775211 0.398582 0.550175
C2    C     C_3   0.762518 0.291537 0.248039 -0.120012
C3    C     C_3   0.831588 0.342348 0.324169 0.056055
C4    C     C_3   0.981988 0.236219 0.302300 -0.150307
C5    C     C_3   0.981650 0.353000 0.257642 -0.137674
C6    C     C_3   0.829943 0.459747 0.280536 -0.102594
C7    C     C_3   0.762511 0.407677 0.203658 -0.114715
C8    C     C_3   0.913648 0.301607 0.181672 0.056374
C9    C     C_3   0.475722 0.772409 0.220196 -0.128397
C10   C     C_3   0.415633 0.685122 0.252664 -0.113919
C11   C     C_3   0.348602 0.809304 0.318159 0.054797
C12   C     C_R   0.371162 0.347022 0.358602 0.540323
C13   C     C_3   0.410526 0.894561 0.287829 -0.124830
C14   C     C_3   0.269937 0.964174 0.233219 -0.112264
C15   C     C_3   0.209083 0.877569 0.264674 -0.123106
C16   C     C_3   0.274523 0.754675 0.198299 -0.115348
C17   C     C_3   0.334520 0.840935 0.167073 0.058269
C18   C     C_3   0.462578 0.262792 0.777031 -0.120099
C19   C     C_3   0.402849 0.404292 0.737777 -0.121123
C20   C     C_3   0.340961 0.337916 0.664593 0.049138
C21   C     C_3   0.401391 0.197305 0.702762 -0.098319
C22   C     C_3   0.258914 0.259471 0.739663 -0.005584
C23   C     C_R   0.777048 0.376740 0.401908 0.555732
C24   C     C_3   0.197898 0.400317 0.700460 -0.106299
C25   C     C_3   0.259464 0.465094 0.775695 -0.131179
C26   C     C_3   0.319941 0.323586 0.813816 0.061751
C27   C     C_1   0.764959 0.369727 0.716141 -0.050240
C28   C     C_1   0.808360 0.332023 0.783105 -0.059571
C29   C     C_1   0.359153 0.762062 0.714966 -0.056925
C30   C     C_1   0.327897 0.807083 0.782907 -0.059037
C31   C     C_R   0.958380 0.284923 0.102565 0.556046
C32   C     C_R   0.320183 0.300760 0.119743 0.532723
C33   C     C_R   0.298307 0.885034 0.086314 0.532390
C34   C     C_R   0.379829 0.715269 0.631588 0.537608
C35   C     C_R   0.875418 0.303576 0.863149 0.541979
C36   C     C_R   0.308627 0.294706 0.892402 0.545243
C37   C     C_R   0.283546 0.877539 0.860585 0.535308
C38   C     C_R   0.368132 0.346613 0.585746 0.533251
C39   C     C_R   0.717233 0.411296 0.635642 0.535184
C40   C     C_1   0.346229 0.337701 0.274695 -0.065474
C41   C     C_1   0.334229 0.328341 0.203372 -0.063571
C42   C     C_3   0.914301 0.184320 0.224398 -0.123036
Cr1   Cr    Cr6+3 0.608340 0.611040 0.520430 1.016973
Cr2   Cr    Cr6+3 0.287650 0.601120 0.489350 1.019156
Cr3   Cr    Cr6+3 0.604040 0.287870 0.490280 1.018526
Cr4   Cr    Cr6+3 0.054020 0.052700 0.970850 1.020168
Cr5   Cr    Cr6+3 0.059230 0.375120 0.993390 1.016605
Cr6   Cr    Cr6+3 0.374950 0.061200 0.992340 1.022259
H1    H     H_    0.671926 0.266692 0.246216 0.129154
H2    H     H_    0.215848 0.078629 0.221483 0.108742
H3    H     H_    0.102763 0.917208 0.286809 0.121361
H4    H     H_    0.220754 0.695901 0.160196 0.125767
H5    H     H_    0.463302 0.463865 0.734522 0.091352
H6    H     H_    0.570581 0.208835 0.809825 0.131052
H7    H     H_    0.456794 0.088035 0.671360 0.136006
H8    H     H_    0.090447 0.453642 0.666996 0.139583
H9    H     H_    0.203628 0.573877 0.807485 0.131912
H10   H     H_    0.944751 0.073664 0.196143 0.132296
H11   H     H_    0.069010 0.169063 0.345818 0.112484
H12   H     H_    0.070451 0.379903 0.259547 0.116152
H13   H     H_    0.794847 0.573593 0.304448 0.133029
H14   H     H_    0.674673 0.474825 0.160528 0.119965
H15   H     H_    0.474996 0.569940 0.263602 0.110877
H16   H     H_    0.583611 0.730643 0.199624 0.114295
H17   H     H_    0.463867 0.953120 0.326569 0.129825
O1    O     O_R   0.751220 0.499230 0.435170 -0.519194
O2    O     O_R   0.297880 0.469080 0.560050 -0.515468
O3    O     O_R   0.489720 0.254590 0.564810 -0.521675
O4    O     O_R   0.725220 0.304230 0.585080 -0.486648
O5    O     O_3   0.500010 0.500010 0.500020 -0.290476
O6    O     O_R   0.171830 0.913880 0.057510 -0.529226
O7    O     O_R   0.940690 0.186050 0.054730 -0.500580
O8    O     O_R   0.920470 0.405720 0.075010 -0.514835
O9    O     O_R   0.196690 0.370460 0.084120 -0.518390
O10   O     O_R   0.412990 0.180750 0.091610 -0.505545
O11   O     O_R   0.366620 0.943130 0.065760 -0.500333
O12   O     O_R   0.477220 0.727600 0.436870 -0.499221
O13   O     O_R   0.160510 0.906330 0.879210 -0.506748
O14   O     O_R   0.930190 0.179050 0.889450 -0.487959
O15   O     O_R   0.909140 0.398170 0.896710 -0.504161
O16   O     O_R   0.186190 0.363460 0.918830 -0.500885
O17   O     O_R   0.401670 0.173200 0.913310 -0.513962
O18   O     O_R   0.356120 0.936130 0.900470 -0.494802
O19   O     O_3   0.162740 0.163010 0.985530 -0.273205
O20   O     O_R   0.258650 0.745120 0.411470 -0.511889
O21   O     O_R   0.297070 0.467240 0.395960 -0.495257
O22   O     O_R   0.488830 0.252610 0.387790 -0.515889
O23   O     O_R   0.724400 0.302390 0.420980 -0.497341
O24   O     O_R   0.752100 0.501210 0.612190 -0.508104
O25   O     O_R   0.478040 0.729440 0.600970 -0.503218
O26   O     O_R   0.259530 0.747110 0.588490 -0.495423
C43   C     C_3   0.177157 0.175691 0.738115 -0.361520
H18   H     H_    0.141070 0.150655 0.675103 0.139186
H19   H     H_    0.248262 0.075567 0.765920 0.151855
H20   H     H_    0.084153 0.239976 0.772945 0.154651

loop_
_geom_bond_atom_site_label_1
_geom_bond_atom_site_label_2
_ccdc_geom_bond_type
C18   C21   S    
C1    O12   A    
Cr6   O11   S    
C3    C23   S    
C19   C20   S    
C1    C11   S    
C3    C6    S    
C42   H10   S    
C32   O10   A    
C7    C8    S    
C13   H17   S    
Cr1   O24   S    
C25   H9    S    
C6    H13   S    
Cr3   O22   S    
C8    C42   S    
C32   O9    A    
C5    C6    S    
C31   O8    A    
C15   C16   S    
C9    H16   S    
C35   O15   A    
C18   C19   S    
C9    C13   S    
C34   O26   A    
C11   C15   S    
C10   H15   S    
C2    C7    S    
C28   C35   S    
C36   O17   A    
C16   C17   S    
C18   C26   S    
C32   C41   S    
Cr2   O5    S    
C15   H3    S    
C9    C10   S    
Cr4   O7    S    
C5    H12   S    
C19   H5    S    
C21   C22   S    
Cr6   O10   S    
C17   C33   S    
Cr5   O15   S    
Cr2   O21   S    
C1    O20   A    
Cr1   O25   S    
C14   H2    S    
Cr3   O4    S    
C20   C24   S    
Cr3   O23   S    
C24   C25   S    
Cr5   O8    S    
C27   C39   S    
C21   H7    S    
C18   H6    S    
C25   C26   S    
C29   C34   S    
C43   H20   S    
Cr6   O19   S    
C30   C37   S    
C12   C40   S    
C34   O25   A    
C7    H14   S    
C29   C30   T    
C2    H1    S    
C20   C38   S    
C33   O11   A    
C36   O16   A    
Cr3   O3    S    
C43   H19   S    
C39   O4    A    
Cr5   O19   S    
C20   C21   S    
Cr4   O6    S    
Cr2   O26   S    
Cr4   O19   S    
C26   C36   S    
C31   O7    A    
C38   O3    A    
Cr1   O5    S    
C23   O23   A    
C22   C24   S    
Cr1   O12   S    
C3    C4    S    
C23   O1    A    
Cr4   O13   S    
C9    C17   S    
C40   C41   T    
C12   O22   A    
Cr3   O5    S    
C8    C31   S    
C16   H4    S    
Cr5   O9    S    
C4    C5    S    
C5    C8    S    
C6    C7    S    
C24   H8    S    
C37   O13   A    
Cr6   O18   S    
C12   O21   A    
C2    C3    S    
C10   C16   S    
C11   C13   S    
Cr4   O14   S    
C4    C42   S    
C2    C42   S    
Cr1   O1    S    
C4    H11   S    
C35   O14   A    
C43   H18   S    
Cr6   O17   S    
Cr5   O16   S    
C19   C25   S    
C10   C11   S    
C33   O6    A    
C38   O2    A    
C22   C26   S    
C27   C28   T    
C22   C43   S    
C14   C15   S    
C37   O18   A    
Cr2   O2    S    
C13   C14   S    
C39   O24   A    
Cr2   O20   S    
C14   C17   S    
