data_mof_unit_50986.cif
_audit_creation_date              2012-12-11T14:52:47-0500
_audit_creation_method            fapswitch 2.2
_symmetry_space_group_name_H-M    P1
_symmetry_Int_Tables_number       1
_space_group_crystal_system       triclinic
_cell_length_a                    8.216375
_cell_length_b                    15.10752
_cell_length_c                    26.999126
_cell_angle_alpha                 97.049711
_cell_angle_beta                  92.816914
_cell_angle_gamma                 80.538624
_cell_volume                      3279.35737622

loop_
_atom_site_label
_atom_site_type_symbol
_atom_type_description
_atom_site_fract_x
_atom_site_fract_y
_atom_site_fract_z
_atom_type_partial_charge
Ba1   Ba    Ba6+2 0.860900 0.457020 0.523210 1.639628
Ba2   Ba    Ba6+2 0.328940 0.542910 0.476780 1.639448
C1    C     C_3   0.693856 0.137430 0.653704 -0.366061
C2    C     C_R   0.888027 0.586645 0.176796 0.577617
C3    C     C_2   0.750886 0.556129 0.272336 -0.085766
C4    C     C_3   0.189057 0.256225 0.657084 0.284160
C5    C     C_3   0.729214 0.587953 0.327087 -0.047018
C6    C     C_1   0.985355 0.486328 0.343063 0.036814
C7    C     C_2   0.028064 0.483326 0.295524 -0.106259
C8    C     C_2   0.902812 0.517221 0.256231 0.186451
C9    C     C_R   0.026934 0.509250 0.101909 -0.079535
C10   C     C_R   0.085346 0.435471 0.128710 -0.034433
C11   C     C_R   0.186262 0.360519 0.104312 -0.056790
C12   C     C_3   0.689379 0.228434 0.634670 0.341155
C13   C     C_R   0.924417 0.584151 0.125982 -0.023492
C14   C     C_2   0.844279 0.532111 0.360405 -0.291562
C15   C     C_2   0.354066 0.478467 0.641416 -0.280900
C16   C     C_3   0.159418 0.235066 0.709140 -0.333038
C17   C     C_R   0.201998 0.427835 0.974476 0.033980
C18   C     C_R   0.065202 0.586321 0.975307 0.010293
C19   C     C_R   0.151835 0.505968 0.949367 -0.007990
C20   C     C_R   0.285178 0.349322 0.946633 -0.094102
C21   C     C_R   0.321471 0.348143 0.896635 -0.059504
C22   C     C_R   0.275986 0.424943 0.871723 -0.017079
C23   C     C_3   0.480667 0.684314 0.629086 0.300464
C24   C     C_R   0.190844 0.503994 0.898013 -0.085348
C25   C     C_R   0.146492 0.581317 0.873053 -0.072848
C26   C     C_R   0.182497 0.578003 0.821948 0.607924
C27   C     C_R   0.314596 0.424211 0.821049 0.578640
C28   C     C_3   0.223510 0.265809 0.414694 0.312890
C29   C     C_2   0.463262 0.480043 0.729286 -0.070753
C30   C     C_3   0.503654 0.485951 0.675578 -0.051556
C31   C     C_1   0.208569 0.518695 0.657385 0.039838
C32   C     C_2   0.170478 0.520586 0.704972 -0.104774
C33   C     C_2   0.304251 0.498471 0.743911 0.203570
C34   C     C_3   0.454840 0.719094 0.683910 -0.368683
C35   C     C_R   0.167701 0.430545 0.026229 0.021711
C36   C     C_R   0.069678 0.508052 0.050878 0.035952
C37   C     C_R   0.011768 0.584078 0.024866 0.036053
C38   C     C_R   0.226726 0.358013 0.054440 -0.097972
C39   C     C_R   0.856473 0.654849 0.098459 -0.078410
C40   C     C_3   0.246030 0.164030 0.400346 -0.380700
C41   C     C_R   0.040437 0.666554 0.951080 0.370152
C42   C     C_R   0.074070 0.661869 0.900142 -0.115924
C43   C     C_R   0.895291 0.653533 0.048781 -0.049957
C44   C     C_R   0.749927 0.766313 0.478108 -0.286412
C45   C     C_3   0.021419 0.737233 0.341471 0.337467
C46   C     C_R   0.839086 0.826340 0.460975 0.013041
C47   C     C_R   0.779507 0.919561 0.467520 -0.128851
C48   C     C_R   0.631647 0.954095 0.493668 0.011499
C49   C     C_R   0.551926 0.890749 0.513656 -0.111739
C50   C     C_R   0.611211 0.798602 0.506051 0.043793
C51   C     C_R   0.414482 0.086730 0.527510 -0.131903
C52   C     C_3   0.971567 0.732636 0.582443 0.306545
C53   C     C_R   0.352493 0.178906 0.535052 0.010365
C54   C     C_R   0.581352 0.211614 0.492137 0.067295
C55   C     C_R   0.645363 0.119317 0.484356 -0.117040
C56   C     C_3   0.026371 0.763376 0.289050 -0.327231
C57   C     C_R   0.564725 0.054224 0.502454 0.005458
C58   C     C_R   0.438342 0.241076 0.518629 -0.286839
C59   C     C_3   0.941111 0.834612 0.596206 -0.380387
C60   C     C_3   0.697273 0.345382 0.374375 0.300426
C61   C     C_3   0.703038 0.322518 0.317981 -0.359885
C62   C     C_3   0.476864 0.783797 0.362781 0.362446
C63   C     C_3   0.422884 0.874352 0.342902 -0.362313
C64   C     C_R   0.040890 0.437780 0.179194 0.598484
H1    H     H_    0.800697 0.224769 0.612278 0.101203
H2    H     H_    0.816783 0.363993 0.388603 0.010767
H3    H     H_    0.597188 0.403400 0.383019 0.078760
H4    H     H_    0.694432 0.083821 0.621596 0.076145
H5    H     H_    0.807217 0.267258 0.308110 0.134393
H6    H     H_    0.720222 0.382572 0.300277 0.068160
H7    H     H_    0.585461 0.300764 0.303258 0.135242
H8    H     H_    0.576467 0.241563 0.610815 -0.034450
H9    H     H_    0.583487 0.138674 0.676094 0.127094
H10   H     H_    0.362172 0.666586 0.612647 0.028126
H11   H     H_    0.577354 0.623357 0.626134 0.034181
H12   H     H_    0.329125 0.144459 0.368244 0.128166
H13   H     H_    0.364807 0.782841 0.687297 0.140002
H14   H     H_    0.405484 0.668924 0.703172 0.078315
H15   H     H_    0.573829 0.732027 0.702375 0.125388
H16   H     H_    0.807007 0.121557 0.677290 0.133297
H17   H     H_    0.192318 0.289634 0.737151 0.132009
H18   H     H_    0.107747 0.672914 0.343902 0.087929
H19   H     H_    0.893769 0.727434 0.347976 -0.053302
H20   H     H_    0.145312 0.785649 0.283185 0.149126
H21   H     H_    0.014512 0.704007 0.261551 0.123230
H22   H     H_    0.923706 0.819021 0.282887 0.119411
H23   H     H_    0.300854 0.128268 0.432041 0.064056
H24   H     H_    0.614065 0.771180 0.364171 -0.066630
H25   H     H_    0.431152 0.788660 0.401236 0.079284
H26   H     H_    0.477023 0.927750 0.367061 0.068431
H27   H     H_    0.286515 0.892563 0.342799 0.151342
H28   H     H_    0.121667 0.325021 0.653133 0.084265
H29   H     H_    0.466067 0.871080 0.304285 0.124775
H30   H     H_    0.154725 0.458449 0.285247 0.141394
H31   H     H_    0.234997 0.302851 0.123818 0.123680
H32   H     H_    0.563285 0.467605 0.756620 0.100779
H33   H     H_    0.385629 0.285991 0.877380 0.121132
H34   H     H_    0.124582 0.142788 0.389865 0.129202
H35   H     H_    0.322197 0.286521 0.962172 0.069285
H36   H     H_    0.307080 0.298213 0.039292 0.071447
H37   H     H_    0.651491 0.577135 0.246255 0.125446
H38   H     H_    0.769355 0.711198 0.115001 0.129050
H39   H     H_    0.323301 0.255023 0.653121 -0.011644
H40   H     H_    0.049076 0.723111 0.882085 0.118392
H41   H     H_    0.043084 0.538663 0.716046 0.121134
H42   H     H_    0.825645 0.706188 0.029318 0.146797
H43   H     H_    0.825668 0.546463 0.400281 0.082548
H44   H     H_    0.365346 0.439543 0.604800 0.070862
H45   H     H_    0.854617 0.709406 0.569707 0.003296
H46   H     H_    0.338740 0.042844 0.540126 0.078626
H47   H     H_    0.853670 0.962885 0.453453 0.075170
H48   H     H_    0.755091 0.100468 0.462819 0.078752
H49   H     H_    0.447448 0.910385 0.537257 0.072522
H50   H     H_    0.388153 0.312312 0.523665 0.069118
H51   H     H_    0.027005 0.230716 0.712837 0.140915
H52   H     H_    0.796763 0.694623 0.473687 0.062932
H53   H     H_    0.235757 0.169891 0.716383 0.121290
H54   H     H_    0.345308 0.286184 0.423978 0.002893
H55   H     H_    0.143451 0.283369 0.447553 0.062893
H56   H     H_    0.060587 0.715931 0.551899 0.074253
H57   H     H_    0.988571 0.798512 0.956020 0.305947
H58   H     H_    0.844381 0.853565 0.624625 0.133179
H59   H     H_    0.900100 0.869221 0.562907 0.065712
H60   H     H_    0.056883 0.857796 0.611540 0.127270
N1    N     N_R   0.944393 0.513485 0.203373 -0.421715
N2    N     N_R   0.265001 0.499795 0.796288 -0.425049
O1    O     O_2   0.905540 0.548000 0.618290 -0.464354
O2    O     O_2   0.178606 0.822051 0.468218 -0.483455
O3    O     O_3   0.069141 0.806076 0.376027 -0.601184
O4    O     O_3   0.137550 0.547930 0.558110 -0.492106
O5    O     O_3   0.574690 0.391440 0.474610 -0.491194
O6    O     O_2   0.341330 0.720570 0.525000 -0.461618
O7    O     O_3   0.531314 0.752202 0.605408 -0.640579
O8    O     O_2   0.407140 0.540767 0.322979 -0.497212
O9    O     O_3   0.411382 0.715439 0.331655 -0.592146
O10   O     O_2   0.086377 0.371628 0.201183 -0.596220
O11   O     O_2   0.392384 0.356085 0.799008 -0.601856
O12   O     O_3   0.668163 0.269448 0.395370 -0.634685
O13   O     O_2   0.807378 0.655216 0.197455 -0.615763
O14   O     O_2   0.142896 0.645448 0.800567 -0.594639
O15   O     O_3   0.688580 0.383890 0.587540 -0.488981
O16   O     O_2   0.848335 0.428961 0.672203 -0.498096
O17   O     O_3   0.033280 0.692468 0.624866 -0.627154
O18   O     O_3   0.686505 0.296207 0.675307 -0.592270
O19   O     O_2   0.848360 0.279400 0.474970 -0.460084
O20   O     O_3   0.104690 0.337720 0.562900 -0.492804
O21   O     O_2   0.014674 0.178117 0.530461 -0.483193
O22   O     O_3   0.998357 0.750234 0.978288 -0.743583
O23   O     O_3   0.130809 0.191345 0.621962 -0.602846
O24   O     O_2   0.284150 0.451970 0.381680 -0.461431
O25   O     O_3   0.052160 0.451990 0.441880 -0.497142
O26   O     O_3   0.501140 0.616030 0.412450 -0.478062
O27   O     O_3   0.152122 0.307729 0.373824 -0.623423
O28   O     O_3   0.615020 0.608480 0.525380 -0.476342
O29   O     O_3   0.085020 0.662210 0.437090 -0.493266
P1    P     P_3+3 0.070480 0.574800 0.610950 0.996171
P2    P     P_3+3 0.668430 0.292880 0.460530 0.985089
P3    P     P_3+3 0.150412 0.220480 0.562079 0.938555
P4    P     P_3+3 0.119230 0.425130 0.389040 0.993830
P5    P     P_3+3 0.043592 0.779840 0.436131 0.946764
P6    P     P_3+3 0.682122 0.400659 0.652724 0.968008
P7    P     P_3+3 0.526958 0.721442 0.540830 0.952355
P8    P     P_3+3 0.511846 0.611212 0.347821 0.948190

loop_
_geom_bond_atom_site_label_1
_geom_bond_atom_site_label_2
_ccdc_geom_bond_type
C63   H26   S    
C21   H33   S    
C19   C24   A    
C3    H37   S    
C9    C36   A    
O7    P7    S    
C47   H47   S    
C62   H24   S    
Ba1   O4    S    
O19   P2    D    
C15   H44   S    
O9    P8    S    
C51   C57   A    
C54   C55   A    
C16   H17   S    
C24   C25   A    
Ba2   O6    S    
C20   H35   S    
C59   H58   S    
C23   H11   S    
C48   C57   S    
C12   H8    S    
Ba1   P1    S    
C17   C19   A    
C22   C24   A    
C32   C33   S    
C54   P2    S    
Ba1   O1    S    
C6    P4    S    
O12   P2    S    
C36   C37   A    
Ba1   O5    S    
C55   C57   A    
C46   P5    S    
O8    P8    D    
C30   P6    S    
C44   C50   A    
C64   N1    Am   
C44   H52   S    
C49   H49   S    
Ba1   Ba2   S    
O20   P3    S    
C29   H32   S    
C22   C27   A    
C11   C38   A    
C17   C35   A    
C9    C13   A    
C25   C42   A    
C6    C7    D    
C4    H28   S    
Ba2   O4    S    
C21   C22   A    
C16   H51   S    
O26   P8    S    
C59   H60   S    
C1    H9    S    
C7    C8    S    
O24   P4    D    
C43   H42   S    
C37   C43   A    
O2    P5    D    
C63   H27   S    
C52   H56   S    
H57   O22   S    
Ba2   O26   S    
C53   C58   A    
C56   H21   S    
C15   C31   D    
C1    H16   S    
C4    C16   S    
C56   H20   S    
Ba2   P4    S    
O15   P6    S    
O1    P1    D    
C14   H43   S    
C31   C32   D    
C62   O9    S    
C51   C53   A    
Ba2   O24   S    
C27   O11   D    
C44   C46   A    
Ba2   O5    S    
C49   C50   A    
Ba1   P2    S    
C1    H4    S    
C13   C39   A    
C34   H14   S    
C2    O13   D    
C3    C5    S    
C18   C37   A    
C61   H7    S    
O3    P5    S    
C10   C64   A    
O27   P4    S    
C54   C58   A    
C60   H3    S    
C45   O3    S    
O5    P2    S    
Ba1   O28   S    
C41   C42   A    
C35   C36   A    
Ba1   O15   S    
C40   H34   S    
C29   C30   S    
C64   O10   D    
C28   H55   S    
C34   H15   S    
C12   H1    S    
C17   C20   A    
C60   C61   S    
C48   C49   A    
C45   H18   S    
C61   H6    S    
Ba1   O25   S    
C41   O22   S    
C7    H30   S    
C1    C12   S    
C50   P7    S    
C52   O17   S    
C4    O23   S    
C51   H46   S    
C28   O27   S    
C61   H5    S    
C40   H12   S    
Ba2   O25   S    
O16   P6    D    
C29   C33   D    
C58   H50   S    
C26   O14   D    
C32   H41   S    
C8    N1    S    
C45   H19   S    
C18   C41   A    
C31   P1    S    
C53   P3    S    
Ba2   O28   S    
C2    N1    Am   
C18   C19   A    
C5    C14   S    
C34   H13   S    
C56   H22   S    
C9    C10   A    
C55   H48   S    
C5    P8    S    
C52   C59   S    
C42   H40   S    
C35   C38   A    
O18   P6    S    
C12   O18   S    
C39   H38   S    
C60   H2    S    
C40   H23   S    
O23   P3    S    
C23   H10   S    
C2    C13   A    
C3    C8    D    
C62   C63   S    
C45   C56   S    
O17   P1    S    
C28   H54   S    
Ba2   O29   S    
C46   C47   A    
O29   P5    S    
C4    H39   S    
O6    P7    D    
C52   H45   S    
C11   H31   S    
C33   N2    S    
C23   O7    S    
O21   P3    D    
O4    P1    S    
Ba1   O19   S    
C23   C34   S    
C38   H36   S    
C63   H29   S    
C10   C11   A    
O28   P7    S    
C6    C14   D    
C47   C48   A    
C27   N2    Am   
O25   P4    S    
C25   C26   A    
C15   C30   S    
C39   C43   A    
C20   C21   A    
C28   C40   S    
Ba1   O20   S    
C59   H59   S    
C62   H25   S    
C60   O12   S    
C16   H53   S    
C26   N2    Am   
