data_mof_unit_45049.cif
_audit_creation_date              2012-12-11T15:45:06-0500
_audit_creation_method            fapswitch 2.2
_symmetry_space_group_name_H-M    P1
_symmetry_Int_Tables_number       1
_space_group_crystal_system       triclinic
_cell_length_a                    19.066616
_cell_length_b                    11.025313
_cell_length_c                    18.71206
_cell_angle_alpha                 89.501085
_cell_angle_beta                  89.758199
_cell_angle_gamma                 90.482039
_cell_volume                      3933.23875844

loop_
_atom_site_label
_atom_site_type_symbol
_atom_type_description
_atom_site_fract_x
_atom_site_fract_y
_atom_site_fract_z
_atom_type_partial_charge
C1    C     C_R   0.761158 0.533146 0.646490 0.542471
C2    C     C_R   0.239949 0.536535 0.352739 0.561385
C3    C     C_R   0.261158 0.033146 0.646490 0.542513
C4    C     C_R   0.739949 0.036535 0.352739 0.561388
C5    C     C_R   0.837297 0.133579 0.515758 -0.191126
C6    C     C_R   0.249523 0.020103 0.449850 -0.130410
C7    C     C_R   0.337297 0.633579 0.515758 -0.191125
C8    C     C_R   0.749523 0.520103 0.449850 -0.130412
C9    C     C_R   0.826024 0.111986 0.442675 -0.138036
C10   C     C_R   0.264690 0.989688 0.520110 -0.129300
C11   C     C_R   0.326024 0.611985 0.442675 -0.138038
C12   C     C_R   0.764691 0.489688 0.520110 -0.129293
C13   C     C_3   0.629540 0.131950 0.469339 -0.182307
C14   C     C_3   0.254003 0.303455 0.579394 -0.237904
C15   C     C_3   0.129540 0.631950 0.469339 -0.182306
C16   C     C_3   0.754002 0.803455 0.579394 -0.237911
C17   C     C_3   0.642193 0.155578 0.548317 0.098956
C18   C     C_3   0.246548 0.337905 0.501247 0.105355
C19   C     C_3   0.142193 0.655578 0.548317 0.098956
C20   C     C_3   0.746548 0.837905 0.501248 0.105359
C21   C     C_R   0.780577 0.159186 0.561163 0.018788
C22   C     C_R   0.224771 0.136231 0.433961 0.074827
C23   C     C_R   0.280577 0.659186 0.561163 0.018788
C24   C     C_R   0.724771 0.636231 0.433961 0.074825
C25   C     C_R   0.990564 0.325448 0.421237 -0.038661
C26   C     C_R   0.995677 0.349529 0.570742 -0.000398
C27   C     C_R   0.490564 0.825448 0.421237 -0.038662
C28   C     C_R   0.495677 0.849529 0.570742 -0.000399
C29   C     C_R   0.017867 0.106281 0.436588 -0.088500
C30   C     C_R   0.043207 0.143059 0.581102 -0.088247
C31   C     C_R   0.517867 0.606281 0.436588 -0.088500
C32   C     C_R   0.543207 0.643059 0.581102 -0.088246
C33   C     C_R   0.042085 0.011224 0.479206 -0.131217
C34   C     C_R   0.056553 0.030517 0.550910 -0.125491
C35   C     C_R   0.542085 0.511224 0.479206 -0.131217
C36   C     C_R   0.556553 0.530517 0.550910 -0.125490
C37   C     C_R   0.015739 0.239118 0.539453 -0.009037
C38   C     C_R   0.008294 0.223809 0.464926 -0.007384
C39   C     C_R   0.515739 0.739118 0.539453 -0.009035
C40   C     C_R   0.508294 0.723809 0.464926 -0.007384
C41   C     C_R   0.977162 0.450452 0.525541 0.034401
C42   C     C_R   0.964121 0.430010 0.452853 -0.006906
C43   C     C_R   0.477162 0.950452 0.525541 0.034401
C44   C     C_R   0.464121 0.930010 0.452853 -0.006906
C45   C     C_R   0.791148 0.170881 0.638535 0.569642
C46   C     C_R   0.208895 0.169175 0.361464 0.566347
C47   C     C_R   0.291148 0.670881 0.638535 0.569646
C48   C     C_R   0.708895 0.669175 0.361464 0.566348
C49   C     C_R   0.972106 0.572531 0.549252 -0.057613
C50   C     C_R   0.931219 0.520195 0.410963 -0.092031
C51   C     C_R   0.472106 0.072531 0.549252 -0.057613
C52   C     C_R   0.431219 0.020195 0.410963 -0.092031
C53   C     C_R   0.944124 0.663306 0.505864 -0.130859
C54   C     C_R   0.921389 0.636008 0.437500 -0.093151
C55   C     C_R   0.444124 0.163306 0.505864 -0.130859
C56   C     C_R   0.421389 0.136009 0.437500 -0.093150
C57   C     C_R   0.730322 0.007588 0.063715 -0.044191
C58   C     C_R   0.257145 0.041823 0.931071 -0.080531
C59   C     C_R   0.230307 0.507538 0.063707 -0.044204
C60   C     C_R   0.757056 0.542136 0.931032 -0.080607
C61   C     C_R   0.792833 0.983827 0.029416 0.067878
C62   C     C_R   0.215151 0.973512 0.976926 -0.015866
C63   C     C_R   0.292818 0.483795 0.029407 0.067899
C64   C     C_R   0.715081 0.473759 0.976871 -0.015413
C65   C     C_R   0.801888 0.005677 0.957932 -0.067672
C66   C     C_R   0.214732 0.992699 0.048563 -0.069496
C67   C     C_R   0.301873 0.505633 0.957922 -0.067662
C68   C     C_R   0.714683 0.492841 0.048517 -0.069485
C69   C     C_R   0.680495 0.059406 0.946466 0.237662
C70   C     C_R   0.292998 0.162850 0.032213 0.244992
C71   C     C_R   0.180479 0.559344 0.946451 0.237869
C72   C     C_R   0.793002 0.662947 0.032221 0.245034
C73   C     C_R   0.672611 0.040804 0.021216 -0.097054
C74   C     C_R   0.291426 0.144266 0.958220 -0.116356
C75   C     C_R   0.172592 0.540724 0.021203 -0.096971
C76   C     C_R   0.791399 0.644478 0.958218 -0.116469
C77   C     C_3   0.865246 0.025170 0.047436 0.169911
C78   C     C_3   0.203831 0.841121 0.986631 0.105509
C79   C     C_3   0.365226 0.525143 0.047430 0.169907
C80   C     C_3   0.703793 0.341348 0.986510 0.105554
C81   C     C_3   0.876107 0.046488 0.968037 -0.188676
C82   C     C_3   0.207299 0.861655 0.066875 -0.197011
C83   C     C_3   0.376092 0.546443 0.968031 -0.188675
C84   C     C_3   0.707271 0.361767 0.066760 -0.197046
C85   C     C_R   0.748772 0.056891 0.916565 -0.033347
C86   C     C_R   0.252968 0.085159 0.078733 0.042261
C87   C     C_R   0.248759 0.556848 0.916552 -0.033356
C88   C     C_R   0.752956 0.585228 0.078716 0.042275
C89   C     C_R   0.970335 0.348631 0.645744 0.524559
C90   C     C_R   0.026889 0.343263 0.351898 0.530694
C91   C     C_R   0.470335 0.848631 0.645744 0.524562
C92   C     C_R   0.526889 0.843263 0.351898 0.530690
C93   C     C_R   0.012562 0.335720 0.071162 0.007601
C94   C     C_R   0.004006 0.341523 0.922286 -0.046962
C95   C     C_R   0.512574 0.835727 0.071158 0.007558
C96   C     C_R   0.504016 0.841512 0.922281 -0.046982
C97   C     C_R   0.010293 0.443710 0.034356 -0.089005
C98   C     C_R   0.005663 0.448112 0.961923 0.036006
C99   C     C_R   0.510340 0.943715 0.034346 -0.089022
C100  C     C_R   0.505707 0.948107 0.961911 0.036040
C101  C     C_R   0.017647 0.229609 0.956928 0.195557
C102  C     C_R   0.016824 0.225433 0.033341 0.259417
C103  C     C_R   0.517627 0.729592 0.956932 0.195562
C104  C     C_R   0.516806 0.725431 0.033345 0.259386
C105  C     C_3   0.960276 0.543637 0.046412 0.172465
C106  C     C_3   0.953663 0.549795 0.965919 0.168630
C107  C     C_3   0.460353 0.043688 0.046398 0.172464
C108  C     C_3   0.453733 0.049828 0.965906 0.168654
C109  C     C_R   0.769562 0.497266 0.860054 0.537860
C110  C     C_R   0.225880 0.483408 0.140566 0.576044
C111  C     C_R   0.269649 0.996947 0.860085 0.537858
C112  C     C_R   0.725885 0.983424 0.140565 0.576029
C113  C     C_R   0.770841 0.120249 0.850726 0.520270
C114  C     C_R   0.229287 0.125067 0.148196 0.557604
C115  C     C_R   0.270837 0.620239 0.850722 0.520255
C116  C     C_R   0.729286 0.625076 0.148193 0.557629
C117  C     C_R   0.970400 0.347087 0.853127 0.541776
C118  C     C_R   0.031454 0.345833 0.145611 0.606898
C119  C     C_R   0.470403 0.847086 0.853126 0.541715
C120  C     C_R   0.531456 0.845834 0.145610 0.606917
C121  C     C_R   0.757289 0.111441 0.415063 0.015300
C122  C     C_R   0.252564 0.073080 0.574724 0.041474
C123  C     C_R   0.257289 0.611441 0.415063 0.015298
C124  C     C_R   0.752564 0.573080 0.574724 0.041486
C125  C     C_R   0.704945 0.164273 0.456939 -0.044406
C126  C     C_R   0.222979 0.184551 0.559846 -0.036179
C127  C     C_R   0.204945 0.664273 0.456939 -0.044407
C128  C     C_R   0.722979 0.684551 0.559846 -0.036184
C129  C     C_R   0.716319 0.186386 0.528684 0.046983
C130  C     C_R   0.211765 0.217934 0.489087 0.035317
C131  C     C_R   0.216318 0.686386 0.528684 0.046982
C132  C     C_R   0.711765 0.717934 0.489087 0.035318
Cr1   Cr    Cr6+3 0.885860 0.491680 0.749630 0.988901
Cr2   Cr    Cr6+3 0.114140 0.491680 0.250370 1.006098
Cr3   Cr    Cr6+3 0.385860 0.991680 0.749630 0.988887
Cr4   Cr    Cr6+3 0.614140 0.991680 0.250370 1.006101
Cr5   Cr    Cr6+3 0.730490 0.332970 0.748720 0.982853
Cr6   Cr    Cr6+3 0.269510 0.332970 0.251280 1.043804
Cr7   Cr    Cr6+3 0.230490 0.832970 0.748720 0.982901
Cr8   Cr    Cr6+3 0.769510 0.832970 0.251280 1.043820
Cr9   Cr    Cr6+3 0.887570 0.179310 0.750150 1.012471
Cr10  Cr    Cr6+3 0.112430 0.179310 0.249850 1.027270
Cr11  Cr    Cr6+3 0.387570 0.679310 0.750150 1.012422
Cr12  Cr    Cr6+3 0.612430 0.679310 0.249850 1.027256
H1    H     H_    0.888940 0.120103 0.537762 0.145525
H2    H     H_    0.259134 0.955052 0.407921 0.132177
H3    H     H_    0.388940 0.620103 0.537762 0.145526
H4    H     H_    0.759134 0.455052 0.407921 0.132181
H5    H     H_    0.941036 0.755305 0.525230 0.108147
H6    H     H_    0.899432 0.705721 0.403552 0.180397
H7    H     H_    0.441037 0.255305 0.525230 0.108147
H8    H     H_    0.399432 0.205721 0.403552 0.180398
H9    H     H_    0.623100 0.058676 0.046545 0.171535
H10   H     H_    0.323500 0.201457 0.923602 0.163040
H11   H     H_    0.123080 0.558590 0.046532 0.171603
H12   H     H_    0.823493 0.701663 0.923616 0.162993
H13   H     H_    0.898342 0.952640 0.070578 0.206595
H14   H     H_    0.246617 0.784971 0.964653 0.107303
H15   H     H_    0.398316 0.452616 0.070584 0.206524
H16   H     H_    0.746588 0.285248 0.964499 0.107259
H17   H     H_    0.884203 0.143172 0.952746 0.161549
H18   H     H_    0.157902 0.839282 0.095856 0.168396
H19   H     H_    0.384192 0.643123 0.952732 0.161577
H20   H     H_    0.657883 0.339324 0.095736 0.168374
H21   H     H_    0.912976 0.981508 0.943295 0.180192
H22   H     H_    0.255227 0.825440 0.092373 0.113678
H23   H     H_    0.412959 0.481455 0.943295 0.180218
H24   H     H_    0.755207 0.325535 0.092230 0.113557
H25   H     H_    0.984938 0.624536 0.071361 0.197272
H26   H     H_    0.901783 0.523116 0.944787 0.108332
H27   H     H_    0.485039 0.124575 0.071336 0.197233
H28   H     H_    0.401851 0.023165 0.944779 0.108276
H29   H     H_    0.869293 0.079520 0.410719 0.147530
H30   H     H_    0.287013 0.902208 0.532010 0.110957
H31   H     H_    0.369293 0.579520 0.410719 0.147529
H32   H     H_    0.787013 0.402208 0.532010 0.110958
H33   H     H_    0.116712 0.535945 0.456860 0.176027
H34   H     H_    0.808988 0.796189 0.598597 0.143059
H35   H     H_    0.616712 0.035945 0.456860 0.176027
H36   H     H_    0.308989 0.296189 0.598596 0.143062
H37   H     H_    0.593915 0.199185 0.444353 0.103610
H38   H     H_    0.218743 0.354994 0.615223 0.164118
H39   H     H_    0.093915 0.699184 0.444353 0.103609
H40   H     H_    0.718743 0.854994 0.615223 0.164113
H41   H     H_    0.612075 0.233584 0.569719 0.097789
H42   H     H_    0.211575 0.415222 0.490981 0.167160
H43   H     H_    0.112075 0.733583 0.569719 0.097788
H44   H     H_    0.711574 0.915222 0.490981 0.167160
H45   H     H_    0.049865 0.922428 0.456410 0.108085
H46   H     H_    0.077066 0.957592 0.583547 0.118251
H47   H     H_    0.549865 0.422428 0.456410 0.108085
H48   H     H_    0.577066 0.457592 0.583547 0.118251
H49   H     H_    0.004135 0.085034 0.382125 0.142155
H50   H     H_    0.055563 0.154901 0.637018 0.127499
H51   H     H_    0.504135 0.585034 0.382125 0.142153
H52   H     H_    0.555563 0.654901 0.637019 0.127482
H53   H     H_    0.915844 0.502232 0.356351 0.135985
H54   H     H_    0.993673 0.602674 0.599291 0.153363
H55   H     H_    0.415844 0.002232 0.356351 0.135983
H56   H     H_    0.493673 0.102674 0.599291 0.153364
O1    O     O_R   0.957020 0.451640 0.669920 -0.529589
O2    O     O_R   0.042980 0.451640 0.330080 -0.515741
O3    O     O_R   0.457020 0.951640 0.669920 -0.529583
O4    O     O_R   0.542980 0.951640 0.330080 -0.515739
O5    O     O_R   0.736470 0.210100 0.823360 -0.512833
O6    O     O_R   0.263530 0.210100 0.176640 -0.512299
O7    O     O_R   0.236470 0.710100 0.823360 -0.512727
O8    O     O_R   0.763530 0.710100 0.176640 -0.512292
O9    O     O_R   0.831960 0.093290 0.830130 -0.503526
O10   O     O_R   0.168040 0.093290 0.169870 -0.519371
O11   O     O_R   0.331960 0.593290 0.830130 -0.503541
O12   O     O_R   0.668040 0.593290 0.169870 -0.519374
O13   O     O_R   0.945600 0.250580 0.824860 -0.466429
O14   O     O_R   0.054400 0.250580 0.175140 -0.452784
O15   O     O_R   0.445600 0.750580 0.824860 -0.466474
O16   O     O_R   0.554400 0.750580 0.175140 -0.452812
O17   O     O_3   0.834640 0.334650 0.749500 -0.278875
O18   O     O_3   0.165360 0.334650 0.250500 -0.308210
O19   O     O_3   0.334640 0.834650 0.749500 -0.278998
O20   O     O_3   0.665360 0.834650 0.250500 -0.308206
O21   O     O_R   0.821450 0.543440 0.674610 -0.497330
O22   O     O_R   0.178550 0.543440 0.325390 -0.507804
O23   O     O_R   0.321450 0.043440 0.674610 -0.497308
O24   O     O_R   0.678550 0.043440 0.325390 -0.507801
O25   O     O_R   0.715320 0.458650 0.668100 -0.534968
O26   O     O_R   0.284680 0.458650 0.331900 -0.479402
O27   O     O_R   0.215320 0.958650 0.668100 -0.534955
O28   O     O_R   0.784680 0.958650 0.331900 -0.479402
O29   O     O_R   0.737170 0.209590 0.674530 -0.505217
O30   O     O_R   0.262830 0.209590 0.325470 -0.479201
O31   O     O_R   0.237170 0.709590 0.674530 -0.505228
O32   O     O_R   0.762830 0.709590 0.325470 -0.479200
O33   O     O_R   0.832710 0.092740 0.669580 -0.515495
O34   O     O_R   0.167290 0.092740 0.330420 -0.529883
O35   O     O_R   0.332710 0.592740 0.669580 -0.515487
O36   O     O_R   0.667290 0.592740 0.330420 -0.529877
O37   O     O_R   0.946290 0.250060 0.676040 -0.523197
O38   O     O_R   0.053710 0.250060 0.323960 -0.522216
O39   O     O_R   0.446290 0.750060 0.676040 -0.523197
O40   O     O_R   0.553710 0.750060 0.323960 -0.522218
O41   O     O_R   0.956270 0.452200 0.830470 -0.533718
O42   O     O_R   0.043730 0.452200 0.169530 -0.528294
O43   O     O_R   0.456270 0.952200 0.830470 -0.533754
O44   O     O_R   0.543730 0.952200 0.169530 -0.528255
O45   O     O_R   0.820760 0.543950 0.823440 -0.514776
O46   O     O_R   0.179240 0.543950 0.176560 -0.512873
O47   O     O_R   0.320760 0.043950 0.823440 -0.514739
O48   O     O_R   0.679240 0.043950 0.176560 -0.512894
O49   O     O_R   0.714570 0.459210 0.828640 -0.536458
O50   O     O_R   0.285430 0.459210 0.171360 -0.460571
O51   O     O_R   0.214570 0.959210 0.828640 -0.536381
O52   O     O_R   0.785430 0.959210 0.171360 -0.460556
O53   O     O_3   0.622283 0.086693 0.906303 -0.637374
H57   H     H_    0.633912 0.076566 0.855079 0.324121
O54   O     O_3   0.339149 0.249264 0.056626 -0.718136
H58   H     H_    0.359463 0.220620 0.102214 0.366317
O55   O     O_3   0.122270 0.586681 0.906292 -0.637186
H59   H     H_    0.133901 0.576588 0.855066 0.324123
O56   O     O_3   0.839187 0.749281 0.056665 -0.718098
H60   H     H_    0.859486 0.720573 0.102246 0.366290
O57   O     O_3   0.866057 0.131803 0.088494 -0.640628
H61   H     H_    0.841873 0.196866 0.061536 0.297135
O58   O     O_3   0.135895 0.808555 0.965460 -0.648858
H62   H     H_    0.134450 0.819858 0.912805 0.373671
O59   O     O_3   0.366028 0.631786 0.088482 -0.640628
H63   H     H_    0.341872 0.696857 0.061505 0.297106
O60   O     O_3   0.635866 0.308804 0.965316 -0.649016
H64   H     H_    0.634547 0.319558 0.912633 0.373893
O61   O     O_3   0.019685 0.123610 0.917899 -0.587540
C133  C     C_3   0.080635 0.123881 0.874805 -0.097197
H65   H     H_    0.128240 0.150841 0.905184 0.112856
H66   H     H_    0.074974 0.184170 0.827419 0.130506
H67   H     H_    0.088420 0.030586 0.854939 0.170080
O62   O     O_3   0.007755 0.119130 0.073275 -0.524723
C134  C     C_3   0.046816 0.021020 0.048203 -0.020437
H68   H     H_    0.063098 0.966130 0.094954 0.140118
H69   H     H_    0.093825 0.051175 0.018728 0.157513
H70   H     H_    0.014209 0.961735 0.014058 0.173664
O63   O     O_3   0.519648 0.623581 0.917912 -0.587487
C135  C     C_3   0.580584 0.623827 0.874797 -0.097124
H71   H     H_    0.628186 0.650998 0.905119 0.112744
H72   H     H_    0.574858 0.683935 0.827340 0.130551
H73   H     H_    0.588427 0.530475 0.855043 0.170215
O64   O     O_3   0.507710 0.619142 0.073286 -0.524733
C136  C     C_3   0.546755 0.521000 0.048228 -0.020367
H74   H     H_    0.563067 0.466165 0.094991 0.140054
H75   H     H_    0.593743 0.551113 0.018704 0.157715
H76   H     H_    0.514127 0.461680 0.014125 0.173630
O65   O     O_3   0.899614 0.502716 0.082800 -0.730409
H77   H     H_    0.878789 0.433332 0.056485 0.304809
O66   O     O_3   0.981102 0.659020 0.938331 -0.640243
H78   H     H_    0.963126 0.666861 0.888882 0.340730
O67   O     O_3   0.399685 0.002827 0.082797 -0.730380
H79   H     H_    0.378842 0.933441 0.056497 0.304824
O68   O     O_3   0.481190 0.159030 0.938304 -0.640148
H80   H     H_    0.463181 0.166897 0.888867 0.340704
O69   O     O_3   0.637231 0.048452 0.589078 -0.733452
H81   H     H_    0.626825 0.073322 0.638775 0.336539
O70   O     O_3   0.310991 0.344437 0.464875 -0.702919
H82   H     H_    0.343936 0.391390 0.494873 0.323755
O71   O     O_3   0.137231 0.548452 0.589078 -0.733452
H83   H     H_    0.126825 0.573322 0.638775 0.336539
O72   O     O_3   0.810991 0.844437 0.464875 -0.702920
H84   H     H_    0.843936 0.891390 0.494873 0.323755

loop_
_geom_bond_atom_site_label_1
_geom_bond_atom_site_label_2
_ccdc_geom_bond_type
C10   H30   S    
C80   O60   S    
O66   H78   S    
C32   H52   S    
C107  H27   S    
C2    C123  S    
C109  O49   A    
C77   O57   S    
O64   C136  S    
C6    H2    S    
C94   C117  S    
C95   C99   A    
C29   C33   A    
C33   H45   S    
O62   C134  S    
Cr3   O43   S    
Cr6   O26   S    
Cr8   O20   S    
C35   C36   A    
C70   C74   A    
C9    C121  A    
Cr2   O2    S    
C87   C115  S    
C97   C105  S    
C122  C126  A    
C15   C127  S    
C18   O70   S    
C22   C130  A    
C20   C132  S    
C41   C49   A    
C14   H38   S    
C47   O35   A    
Cr1   O1    S    
Cr8   O28   S    
C90   O38   A    
Cr11  O39   S    
C5    H1    S    
C62   C66   A    
Cr3   O3    S    
O71   H83   S    
C60   C76   A    
C7    H3    S    
C93   C102  A    
C43   C44   A    
C37   C38   A    
C84   H24   S    
C66   C82   S    
C78   C82   S    
O72   H84   S    
C34   H46   S    
C16   C20   S    
C102  O62   S    
C117  O13   A    
C105  H25   S    
C125  C129  A    
C133  H66   S    
C18   C130  S    
Cr9   O9    S    
C2    O26   A    
Cr11  O15   S    
C10   C122  A    
C98   C106  S    
C16   H40   S    
C55   H7    S    
Cr3   O23   S    
C59   C63   A    
C14   C126  S    
C60   C64   A    
C1    C124  S    
C136  H75   S    
C13   H35   S    
C31   H51   S    
C101  O61   S    
C49   C53   A    
C51   C55   A    
C127  C131  A    
C75   H11   S    
C5    C21   A    
Cr9   O33   S    
Cr5   O17   S    
C126  C130  A    
Cr7   O31   S    
Cr2   O46   S    
C14   H36   S    
C90   O2    A    
C67   C83   S    
C97   C98   A    
C54   H6    S    
C30   H50   S    
C53   C54   A    
C5    C9    A    
C25   C90   S    
C64   C68   A    
C1    O21   A    
Cr12  O20   S    
O57   H61   S    
C29   H49   S    
C74   H10   S    
O55   H59   S    
C57   C73   A    
Cr10  O18   S    
Cr5   O25   S    
C60   C109  S    
C27   C44   A    
C78   H14   S    
C61   C77   S    
Cr2   O22   S    
C29   C38   A    
C107  C108  S    
C9    H29   S    
C12   H32   S    
C19   H43   S    
C44   C52   A    
C109  O45   A    
C53   H5    S    
C106  H26   S    
C108  O68   S    
C16   H34   S    
C21   C45   S    
C17   O69   S    
C100  C108  S    
C23   C47   S    
C30   C34   A    
C24   C48   S    
Cr3   O47   S    
Cr6   O30   S    
C134  H70   S    
C135  H71   S    
C39   C40   A    
Cr12  O16   S    
C82   H18   S    
C83   H23   S    
C113  O5    A    
C121  C125  A    
O67   H79   S    
C61   C65   A    
C25   C38   A    
C20   H44   S    
C123  C127  A    
Cr4   O24   S    
C27   C40   A    
C8    C12   A    
O65   H77   S    
C23   C131  A    
C21   C129  A    
C116  O8    A    
Cr7   O7    S    
C42   C50   A    
C13   H37   S    
C15   H33   S    
C93   C97   A    
C69   C85   A    
C58   C74   A    
C92   O40   A    
C35   H47   S    
C36   H48   S    
C62   C78   S    
Cr6   O50   S    
C66   C86   A    
O60   H64   S    
C32   C36   A    
C71   O55   S    
C115  O11   A    
C85   C113  S    
C113  O9    A    
C108  H28   S    
C7    C23   A    
C96   C100  A    
C8    C24   A    
C28   C91   S    
C51   H56   S    
Cr11  O19   S    
Cr7   O19   S    
C72   O56   S    
C111  O47   A    
O54   H58   S    
Cr1   O45   S    
C58   C62   A    
C55   C56   A    
C101  C102  A    
C46   O30   A    
C41   C42   A    
C96   C119  S    
C134  H68   S    
Cr8   O52   S    
C135  H73   S    
C80   C84   S    
Cr6   O6    S    
O58   H62   S    
C110  O50   A    
C15   C19   S    
C50   C54   A    
C45   O33   A    
C79   H15   S    
C80   H16   S    
C94   C98   A    
C6    C22   A    
C2    O22   A    
C31   C40   A    
Cr4   O48   S    
Cr7   O27   S    
C78   O58   S    
C32   C39   A    
Cr2   O42   S    
Cr9   O17   S    
C17   H41   S    
C15   H39   S    
C3    O23   A    
O63   C135  S    
C69   C73   A    
C56   H8    S    
C92   O4    A    
C124  C128  A    
O61   C133  S    
C64   C80   S    
C133  H67   S    
C8    H4    S    
Cr8   O8    S    
C50   H53   S    
Cr12  O36   S    
C58   C111  S    
C68   C84   S    
C89   O37   A    
Cr10  O14   S    
Cr5   O29   S    
O68   H80   S    
Cr5   O5    S    
C28   C39   A    
Cr2   O18   S    
C76   H12   S    
C30   C37   A    
O70   H82   S    
C136  H74   S    
C24   C132  A    
C65   C81   S    
C77   C81   S    
C118  O14   A    
C71   C87   A    
C22   C46   S    
Cr8   O32   S    
C31   C35   A    
C3    O27   A    
Cr12  O12   S    
C82   H22   S    
C1    O25   A    
Cr10  O38   S    
C83   H19   S    
C81   H17   S    
C11   C123  A    
C25   C42   A    
C6    C10   A    
Cr5   O49   S    
C107  O67   S    
C26   C37   A    
Cr4   O20   S    
C13   C17   S    
C95   C120  S    
C99   C107  S    
C105  C106  S    
C28   C43   A    
C11   H31   S    
C116  O12   A    
C104  O64   S    
C79   C83   S    
C43   C51   A    
O53   H57   S    
C4    C121  S    
C4    O28   A    
C96   C103  A    
C103  C104  A    
C133  H65   S    
C13   C125  S    
C91   O3    A    
C89   O1    A    
C119  O15   A    
C115  O7    A    
O69   H81   S    
C14   C18   S    
C103  O63   S    
C72   C76   A    
C69   O53   S    
C63   C79   S    
C26   C89   S    
C7    C11   A    
Cr12  O40   S    
C70   O54   S    
C134  H69   S    
C135  H72   S    
C136  H76   S    
C57   C112  S    
C47   O31   A    
C111  O51   A    
C59   C110  S    
C120  O44   A    
Cr11  O35   S    
C57   C61   A    
Cr1   O41   S    
C94   C101  A    
Cr1   O21   S    
C19   O71   S    
O59   H63   S    
C84   H20   S    
C3    C122  S    
C110  O46   A    
C45   O29   A    
C128  C132  A    
C72   C88   A    
C112  O52   A    
C49   H54   S    
C19   C131  S    
C63   C67   A    
C20   O72   S    
Cr4   O44   S    
C17   C129  S    
Cr9   O13   S    
Cr11  O11   S    
C4    O24   A    
C18   H42   S    
Cr1   O17   S    
C114  O6    A    
C88   C116  S    
C99   C100  A    
C12   C124  A    
Cr3   O19   S    
C46   O34   A    
C33   C34   A    
C27   C92   S    
C52   H55   S    
C16   C128  S    
C48   O36   A    
C68   C88   A    
C93   C118  S    
Cr10  O10   S    
C73   H9    S    
O56   H60   S    
C70   C86   A    
C59   C75   A    
Cr4   O4    S    
C95   C104  A    
C105  O65   S    
C112  O48   A    
Cr9   O37   S    
Cr7   O51   S    
C65   C85   A    
C120  O16   A    
C67   C87   A    
C86   C114  S    
C114  O10   A    
C106  O66   S    
C71   C75   A    
C79   O59   S    
C48   O32   A    
C118  O42   A    
Cr10  O34   S    
Cr6   O18   S    
C91   O39   A    
C81   H21   S    
C119  O43   A    
C52   C56   A    
C26   C41   A    
C77   H13   S    
C117  O41   A    
