data_mof_unit_15603.cif
_audit_creation_date              2012-12-10T17:50:50-0500
_audit_creation_method            fapswitch 2.2
_symmetry_space_group_name_H-M    P1
_symmetry_Int_Tables_number       1
_space_group_crystal_system       triclinic
_cell_length_a                    14.723713
_cell_length_b                    14.739307
_cell_length_c                    15.883261
_cell_angle_alpha                 76.744803
_cell_angle_beta                  103.040515
_cell_angle_gamma                 114.935075
_cell_volume                      3009.71165231

loop_
_atom_site_label
_atom_site_type_symbol
_atom_type_description
_atom_site_fract_x
_atom_site_fract_y
_atom_site_fract_z
_atom_type_partial_charge
C1    C     C_R   0.880288 0.312346 0.513721 0.793979
C2    C     C_R   0.119718 0.687653 0.484703 0.794834
C3    C     C_R   0.783450 0.029880 0.520662 -0.198603
C4    C     C_R   0.215763 0.972616 0.436065 -0.198752
C5    C     C_R   0.850186 0.129955 0.525087 -0.197030
C6    C     C_R   0.149455 0.871431 0.447682 -0.197699
C7    C     C_R   0.707990 0.179093 0.502317 -0.246009
C8    C     C_R   0.291871 0.820937 0.482791 -0.247672
C9    C     C_R   0.639117 0.079731 0.493478 0.087401
C10   C     C_R   0.360128 0.922154 0.468556 0.087283
C11   C     C_R   0.678481 0.004230 0.504955 0.162456
C12   C     C_R   0.320574 0.998537 0.447232 0.163428
C13   C     C_R   0.532539 0.053271 0.475014 0.064602
C14   C     C_R   0.466506 0.949447 0.477613 0.064088
C15   C     C_R   0.508895 0.876682 0.487531 -0.219627
C16   C     C_R   0.489860 0.127209 0.452136 -0.219041
C17   C     C_R   0.612876 0.904009 0.500307 -0.226985
C18   C     C_R   0.385873 0.100011 0.437699 -0.227040
C19   C     C_R   0.708720 0.657029 0.346384 -0.291866
C20   C     C_R   0.292137 0.344087 0.654007 -0.288957
C21   C     C_R   0.794037 0.633971 0.374190 0.069402
C22   C     C_R   0.206313 0.366237 0.625895 0.069527
C23   C     C_R   0.999792 0.499921 0.659952 0.826653
C24   C     C_R   0.000198 0.500061 0.340051 0.826061
C25   C     C_R   0.716228 0.511477 0.489693 0.085808
C26   C     C_R   0.283926 0.489213 0.510539 0.085477
C27   C     C_R   0.629898 0.537063 0.469029 -0.007716
C28   C     C_R   0.370818 0.464537 0.531445 -0.008056
C29   C     C_R   0.625527 0.606827 0.392125 0.098736
C30   C     C_R   0.375465 0.394947 0.608457 0.100257
C31   C     C_R   0.546532 0.493047 0.518494 -0.038618
C32   C     C_R   0.454400 0.509157 0.482140 -0.039007
C33   C     C_R   0.448797 0.567268 0.397354 0.385150
C34   C     C_R   0.552461 0.435507 0.603464 0.388933
C35   C     C_R   0.536267 0.621263 0.357654 -0.290661
C36   C     C_R   0.465092 0.381351 0.643250 -0.285840
C37   C     C_3   0.031062 0.429928 0.049299 0.272006
C38   C     C_3   0.968852 0.569861 0.950746 0.271528
C39   C     C_3   0.936049 0.406348 0.978594 -0.317128
C40   C     C_3   0.063864 0.593440 0.021448 -0.317200
C41   C     C_1   0.999400 0.499600 0.749426 -0.164341
C42   C     C_1   0.000554 0.500312 0.250590 -0.163416
C43   C     C_3   0.092949 0.520258 0.987494 0.268551
C44   C     C_3   0.906967 0.479531 0.012550 0.268619
C45   C     C_3   0.999323 0.498719 0.916454 -0.013760
C46   C     C_3   0.000592 0.501073 0.083586 -0.013840
C47   C     C_1   0.999346 0.499178 0.824889 -0.028258
C48   C     C_1   0.000584 0.500669 0.175138 -0.028288
C49   C     C_R   0.812569 0.205132 0.515489 -0.051660
C50   C     C_R   0.187396 0.795112 0.471874 -0.050917
Cu1   Cu    Cu3+1 0.081740 0.475690 0.522610 0.947132
Cu2   Cu    Cu3+1 0.918260 0.524310 0.477390 0.947295
H1    H     H_    0.884385 0.330636 0.961143 0.155669
H2    H     H_    0.115525 0.669152 0.038900 0.155896
H3    H     H_    0.279326 0.551350 0.461415 0.189963
H4    H     H_    0.720448 0.449245 0.538914 0.189005
H5    H     H_    0.142177 0.327744 0.661239 0.128142
H6    H     H_    0.858127 0.672083 0.338769 0.127629
H7    H     H_    0.706883 0.712100 0.288283 0.138404
H8    H     H_    0.294251 0.289215 0.712205 0.138305
H9    H     H_    0.642109 0.845915 0.507340 0.150711
H10   H     H_    0.356430 0.159075 0.420176 0.149594
H11   H     H_    0.318541 0.760621 0.504897 0.152521
H12   H     H_    0.682082 0.237820 0.500432 0.150755
H13   H     H_    0.068832 0.853075 0.438596 0.154405
H14   H     H_    0.930906 0.148517 0.535277 0.156009
H15   H     H_    0.813905 0.972572 0.528713 0.136343
H16   H     H_    0.185132 0.030744 0.418773 0.135802
H17   H     H_    0.463728 0.797928 0.482960 0.147078
H18   H     H_    0.534624 0.207356 0.442107 0.145525
H19   H     H_    0.532465 0.669856 0.295449 0.135340
H20   H     H_    0.469156 0.333141 0.705638 0.134025
N1    N     N_R   0.795440 0.560790 0.443380 -0.199584
N2    N     N_R   0.204560 0.439210 0.556620 -0.199946
O1    O     O_R   0.977900 0.338120 0.529810 -0.589360
O2    O     O_R   0.022100 0.661880 0.470190 -0.589253
O3    O     O_R   0.839850 0.379180 0.491620 -0.594844
O4    O     O_R   0.160150 0.620820 0.508380 -0.595484
O5    O     O_R   0.069010 0.479460 0.640020 -0.582785
O6    O     O_R   0.930990 0.520540 0.359980 -0.583288
O7    O     O_R   0.930960 0.520530 0.601820 -0.562492
O8    O     O_R   0.069040 0.479470 0.398180 -0.563334
O9    O     O_3   0.356725 0.565045 0.350612 -0.766122
H21   H     H_    0.366454 0.607897 0.292637 0.322546
O10   O     O_3   0.644787 0.438550 0.650252 -0.764740
H22   H     H_    0.635293 0.395953 0.708360 0.322127
N3    N     N_2   0.065432 0.354812 0.105546 -0.418912
H23   H     H_    0.021243 0.313763 0.154019 0.251031
C51   C     C_3   0.084921 0.291545 0.060478 -0.675331
H24   H     H_    0.117661 0.241856 0.108891 0.223234
H25   H     H_    0.139925 0.338493 0.014456 0.261941
H26   H     H_    0.013354 0.243305 0.023948 0.212797
N4    N     N_2   0.934473 0.644977 0.894518 -0.418422
H27   H     H_    0.978641 0.686038 0.846033 0.251344
C52   C     C_3   0.915004 0.708225 0.939617 -0.673611
H28   H     H_    0.882203 0.757882 0.891224 0.224214
H29   H     H_    0.986594 0.756492 0.976103 0.212495
H30   H     H_    0.860057 0.661258 0.985687 0.261691
N5    N     N_2   0.806494 0.458355 0.028573 -0.426563
H31   H     H_    0.787318 0.407318 0.084510 0.250272
C53   C     C_3   0.727871 0.434301 0.954205 -0.670925
H32   H     H_    0.655696 0.426861 0.971199 0.221894
H33   H     H_    0.716965 0.361619 0.935946 0.212309
H34   H     H_    0.747289 0.495343 0.897436 0.268853
N6    N     N_2   0.193428 0.541446 0.971474 -0.426650
H35   H     H_    0.212619 0.592524 0.915559 0.250112
C54   C     C_3   0.272037 0.565460 0.045856 -0.670485
H36   H     H_    0.344277 0.573078 0.028831 0.221718
H37   H     H_    0.252651 0.504302 0.102558 0.268667
H38   H     H_    0.282837 0.638063 0.064222 0.212547

loop_
_geom_bond_atom_site_label_1
_geom_bond_atom_site_label_2
_ccdc_geom_bond_type
N3    H23   S    
N4    H27   S    
C27   C29   A    
C1    O3    A    
C52   H28   S    
Cu1   N2    S    
C26   H3    S    
C22   H5    S    
C52   H30   S    
C20   C30   A    
O10   H22   S    
C40   C46   S    
N6    C54   S    
C53   H32   S    
O9    H21   S    
C19   C21   A    
Cu1   O1    S    
C33   C35   A    
C44   N5    S    
C21   N1    A    
C24   C42   S    
C15   C17   A    
C43   N6    S    
C9    C13   A    
C38   C45   S    
C24   O8    A    
C2    C50   S    
C17   H9    S    
C24   O6    A    
C6    H13   S    
C31   C32   A    
C54   H36   S    
C25   H4    S    
C4    C12   A    
C25   N1    A    
C39   C45   S    
C35   H19   S    
N4    C52   S    
C13   C14   A    
C54   H37   S    
C5    C49   A    
C44   C46   S    
C45   C47   S    
C15   H17   S    
C46   C48   S    
C27   C31   A    
Cu1   Cu2   S    
C1    O1    A    
C3    C5    A    
C28   C32   A    
C16   H18   S    
C7    C49   A    
C4    C6    A    
Cu2   N1    S    
C10   C14   A    
C4    H16   S    
C18   H10   S    
C19   H7    S    
C34   O10   S    
C37   C43   S    
C38   C44   S    
C2    O4    A    
C33   O9    S    
N5    H31   S    
C40   C43   S    
C41   C47   T    
C31   C34   A    
C42   C48   T    
C6    C50   A    
C51   H26   S    
C43   C45   S    
Cu1   O8    S    
C10   C12   A    
C8    C10   A    
N5    C53   S    
C20   C22   A    
C53   H34   S    
C40   H2    S    
C9    C11   A    
C54   H38   S    
C20   H8    S    
C22   N2    A    
Cu2   O3    S    
C19   C29   A    
C8    C50   A    
C2    O2    A    
C53   H33   S    
C7    C9    A    
C11   C17   A    
C23   O7    A    
C37   N3    S    
C3    H15   S    
C5    H14   S    
Cu2   O2    S    
C52   H29   S    
C39   C44   S    
C25   C27   A    
N6    H35   S    
C29   C35   A    
C26   C28   A    
C23   C41   S    
C30   C36   A    
C32   C33   A    
N3    C51   S    
C37   C46   S    
Cu1   O4    S    
C21   H6    S    
C37   C39   S    
C38   C40   S    
C39   H1    S    
C38   N4    S    
C28   C30   A    
C26   N2    A    
C34   C36   A    
Cu2   O7    S    
Cu1   O5    S    
C7    H12   S    
C3    C11   A    
C8    H11   S    
C16   C18   A    
C51   H25   S    
C13   C16   A    
C12   C18   A    
C14   C15   A    
C23   O5    A    
C51   H24   S    
Cu2   O6    S    
C1    C49   S    
C36   H20   S    
