data_mof_unit_11857.cif
_audit_creation_date              2013-03-05T16:22:27-0500
_audit_creation_method            fapswitch 2.2
_symmetry_space_group_name_H-M    P1
_symmetry_Int_Tables_number       1
_space_group_crystal_system       triclinic
_cell_length_a                    15.68457
_cell_length_b                    10.635825
_cell_length_c                    9.985006
_cell_angle_alpha                 91.719837
_cell_angle_beta                  89.982291
_cell_angle_gamma                 89.11173
_cell_volume                      1664.73122259

loop_
_atom_site_label
_atom_site_type_symbol
_atom_site_description
_atom_site_fract_x
_atom_site_fract_y
_atom_site_fract_z
_atom_type_partial_charge
O1    O     O_R   0.500000 0.313960 0.616610 -0.647623
O2    O     O_R   0.500000 0.686040 0.383390 -0.647635
O3    O     O_R   0.500040 0.313950 0.383350 -0.522938
O4    O     O_R   0.499960 0.686050 0.616650 -0.522943
C1    C     C_R   0.504042 0.258347 0.498281 0.901934
C2    C     C_R   0.495957 0.741653 0.501719 0.901918
O5    O     O_R   0.376760 0.499990 0.616610 -0.648645
O6    O     O_R   0.623240 0.500010 0.383390 -0.648642
O7    O     O_R   0.376790 0.499980 0.383350 -0.534686
O8    O     O_R   0.623210 0.500020 0.616650 -0.534670
C3    C     C_R   0.338873 0.499835 0.500033 0.862143
C4    C     C_R   0.661127 0.500164 0.499967 0.862168
Zn1   Zn    Zn3+2 0.499980 0.500010 0.655740 1.045678
Zn2   Zn    Zn3+2 0.500020 0.499990 0.344260 1.045678
C5    C     C_3   0.973432 0.394456 0.551731 0.262791
C6    C     C_3   0.026568 0.605536 0.448271 0.262794
C7    C     C_3   0.028779 0.402860 0.426504 0.260319
C8    C     C_3   0.971221 0.597132 0.573498 0.260315
H1    H     H_    0.947119 0.515538 0.267139 0.215950
H2    H     H_    0.052881 0.484454 0.732863 0.215953
C9    C     C_1   0.250206 0.499767 0.500288 -0.082675
C10   C     C_1   0.749794 0.500230 0.499713 -0.082686
C11   C     C_3   0.029161 0.491429 0.628557 -0.366661
C12   C     C_3   0.970839 0.508564 0.371445 -0.366654
C13   C     C_3   0.084258 0.500032 0.500288 -0.105614
C14   C     C_3   0.915742 0.499960 0.499713 -0.105613
C15   C     C_1   0.174985 0.499867 0.500471 0.159325
C16   C     C_1   0.825015 0.500128 0.499530 0.159319
C17   C     C_3   0.549849 0.041573 0.602412 -0.005267
C18   C     C_3   0.450150 0.958427 0.397591 -0.005263
C19   C     C_3   0.579102 0.949513 0.487533 0.023141
C20   C     C_3   0.420896 0.050487 0.512471 0.023138
C21   C     C_3   0.495104 0.877358 0.503760 -0.252939
C22   C     C_3   0.504895 0.122642 0.496243 -0.252944
C23   C     C_3   0.466136 0.969686 0.616541 0.329355
C24   C     C_3   0.533863 0.030314 0.383463 0.329356
C25   C     C_3   0.487716 0.389985 0.043852 0.283648
C26   C     C_3   0.512283 0.610016 0.956149 0.283643
C27   C     C_3   0.559235 0.427915 0.951875 0.226044
C28   C     C_3   0.440764 0.572084 0.048127 0.226066
N1    N     N_3   0.499940 0.500030 0.863290 -0.193258
N2    N     N_3   0.500060 0.499970 0.136710 -0.193263
C29   C     C_3   0.428040 0.461050 0.949947 -0.056827
C30   C     C_3   0.571959 0.538948 0.050053 -0.056848
N3    N     N_R   0.058949 0.293768 0.347142 0.247376
O9    O     O_R   0.004190 0.218386 0.290890 -0.289358
O10   O     O_R   0.140128 0.270998 0.331905 -0.387537
N4    N     N_R   0.941052 0.706224 0.652860 0.247374
O11   O     O_R   0.995810 0.781607 0.709111 -0.289358
O12   O     O_R   0.859873 0.728994 0.668099 -0.387543
N5    N     N_R   0.945831 0.276325 0.606699 0.255775
O13   O     O_R   0.002363 0.194675 0.645951 -0.308462
O14   O     O_R   0.865185 0.251671 0.616942 -0.351131
N6    N     N_R   0.054169 0.723667 0.393303 0.255777
O15   O     O_R   0.997637 0.805317 0.354051 -0.308460
O16   O     O_R   0.134814 0.748322 0.383059 -0.351136
C31   C     C_3   0.664780 0.879413 0.465788 -0.428767
C32   C     C_3   0.740445 0.967257 0.456736 -0.608217
H3    H     H_    0.732849 0.030721 0.371500 0.287552
H4    H     H_    0.747996 0.024263 0.550430 0.267948
H5    H     H_    0.799692 0.910318 0.440491 0.280365
H6    H     H_    0.675652 0.813342 0.548211 0.230183
H7    H     H_    0.661165 0.822060 0.371279 0.222021
C33   C     C_3   0.335218 0.120584 0.534222 -0.428770
C34   C     C_3   0.259554 0.032739 0.543265 -0.608221
H8    H     H_    0.251999 0.975749 0.449562 0.267950
H9    H     H_    0.267154 0.969260 0.628486 0.287547
H10   H     H_    0.200307 0.089674 0.559526 0.280365
H11   H     H_    0.338833 0.177929 0.628738 0.222026
H12   H     H_    0.324346 0.186665 0.451807 0.230173
C35   C     C_3   0.604447 0.103633 0.712174 -0.329585
C36   C     C_3   0.651437 0.011708 0.800920 -0.542210
H13   H     H_    0.607213 0.976988 0.877003 0.329482
H14   H     H_    0.680137 0.932151 0.742294 0.254181
H15   H     H_    0.703831 0.060706 0.854525 0.281566
H16   H     H_    0.651499 0.164885 0.664131 0.233196
H17   H     H_    0.561908 0.163263 0.776597 0.276129
C37   C     C_3   0.395552 0.896372 0.287826 -0.329584
C38   C     C_3   0.348557 0.988303 0.199090 -0.542189
H18   H     H_    0.319870 0.067867 0.257722 0.254181
H19   H     H_    0.392774 0.023014 0.122991 0.329474
H20   H     H_    0.296152 0.939315 0.145505 0.281554
H21   H     H_    0.438092 0.836750 0.223396 0.276128
H22   H     H_    0.348503 0.835110 0.335863 0.233158
N7    N     N_R   0.424684 0.937349 0.741051 0.255080
O17   O     O_R   0.409767 0.025746 0.831022 -0.345508
O18   O     O_R   0.382083 0.833707 0.746116 -0.336873
N8    N     N_R   0.575315 0.062650 0.258955 0.255084
O19   O     O_R   0.590233 0.974254 0.168983 -0.345488
O20   O     O_R   0.617921 0.166290 0.253894 -0.336863
N9    N     N_R   0.629611 0.345753 0.907149 0.199567
O21   O     O_R   0.659116 0.264044 0.990307 -0.318157
O22   O     O_R   0.679858 0.380524 0.812466 -0.368619
N10   N     N_R   0.370383 0.654224 0.092875 0.199588
O23   O     O_R   0.340913 0.736005 0.009776 -0.318182
O24   O     O_R   0.320096 0.619369 0.187452 -0.368563
N11   N     N_R   0.470248 0.266104 0.092257 0.253354
O25   O     O_R   0.497182 0.167913 0.023364 -0.319356
O26   O     O_R   0.409165 0.254097 0.178488 -0.424461
N12   N     N_R   0.529759 0.733895 0.907745 0.253361
O27   O     O_R   0.502832 0.832086 0.976639 -0.319345
O28   O     O_R   0.590843 0.745895 0.821514 -0.424462
C39   C     C_3   0.343600 0.419202 0.886415 -0.328240
C40   C     C_3   0.282678 0.357761 0.983030 -0.658580
H23   H     H_    0.301347 0.257805 0.995657 0.288007
H24   H     H_    0.281126 0.408000 0.081813 0.308947
H25   H     H_    0.217288 0.359219 0.940425 0.241748
H26   H     H_    0.311152 0.503327 0.845710 0.253848
H27   H     H_    0.357662 0.350616 0.803114 0.225514
C41   C     C_3   0.656404 0.580783 0.113577 -0.328237
C42   C     C_3   0.717339 0.642165 0.016933 -0.658516
H28   H     H_    0.718868 0.591899 0.918155 0.308914
H29   H     H_    0.698699 0.742134 0.004284 0.288002
H30   H     H_    0.782733 0.640670 0.059531 0.241743
H31   H     H_    0.642354 0.649398 0.196858 0.225501
H32   H     H_    0.688837 0.496657 0.154308 0.253859

loop_
_geom_bond_atom_site_label_1
_geom_bond_atom_site_label_2
_geom_bond_distance
_ccdc_geom_bond_type
C18   C20   1.550261 S    
C42   H28   1.107749 S    
C8    C14   1.533183 S    
C25   N11   1.447070 S    
N11   O25   1.298203 A    
C31   H6    1.109643 S    
C27   N1    1.501574 S    
N7    O17   1.299264 A    
C24   N8    1.455573 S    
O5    C3    1.307067 A    
O1    C1    1.306404 A    
C12   C14   1.550578 S    
C35   H16   1.110229 S    
C32   H4    1.106843 S    
C4    C10   1.390705 S    
C25   N2    1.485792 S    
C27   N9    1.458716 S    
O4    Zn1   2.028273 S    
C41   C42   1.525598 S    
C37   H21   1.106035 S    
C28   C29   1.527547 S    
C34   H9    1.107324 S    
C19   C21   1.545840 S    
C39   H26   1.110226 S    
C5    N5    1.457857 S    
Zn2   N2    2.072380 S    
C32   H5    1.110474 S    
C5    C11   1.548266 S    
C9    C15   1.179802 T    
C6    C12   1.548267 S    
C10   C16   1.179803 T    
N1    C29   1.492565 S    
O2    C2    1.306409 A    
N2    C30   1.492550 S    
C36   H15   1.109137 S    
C40   H24   1.107676 S    
C40   H23   1.109170 S    
N11   O26   1.298239 A    
C31   H7    1.110131 S    
C6    N6    1.457857 S    
N3    O10   1.300424 A    
C7    N3    1.457964 S    
N6    O16   1.300382 A    
C7    C12   1.548471 S    
N7    O18   1.300118 A    
C8    C11   1.548471 S    
C20   C23   1.535248 S    
C20   C33   1.538799 S    
C26   N1    1.485800 S    
C36   H14   1.104348 S    
N9    O21   1.299965 A    
C38   H19   1.104128 S    
C37   C38   1.521324 S    
C5    C14   1.533448 S    
C32   H3    1.107331 S    
N3    O9    1.300212 A    
C17   C22   1.549478 S    
C3    C9    1.390706 S    
N5    O13   1.300278 A    
N5    O14   1.300381 A    
C20   C22   1.545840 S    
C25   C29   1.532221 S    
O7    Zn2   1.971710 S    
C26   C30   1.532233 S    
N9    O22   1.296628 A    
H2    C11   1.110247 S    
O6    C4    1.307067 A    
C34   H10   1.110466 S    
C1    C22   1.442726 S    
N12   O28   1.298236 A    
C42   H29   1.109231 S    
C6    C8    1.527582 S    
C33   H11   1.110132 S    
N10   O24   1.296502 A    
N4    O12   1.300424 A    
O7    C3    1.307979 A    
C27   C30   1.527529 S    
O3    Zn2   2.028275 S    
O8    C4    1.307979 A    
O4    C2    1.307765 A    
N4    O11   1.300213 A    
N8    O20   1.300121 A    
C33   H12   1.109644 S    
O1    Zn1   2.005459 S    
C41   H32   1.110233 S    
C35   H17   1.106035 S    
C6    C13   1.533447 S    
C5    C7    1.527582 S    
N6    O15   1.300278 A    
O6    Zn2   1.971872 S    
C18   C21   1.549476 S    
C28   N10   1.458707 S    
C36   H13   1.104114 S    
O3    C1    1.307770 A    
O8    Zn1   1.971711 S    
C8    N4    1.457963 S    
C38   H20   1.109138 S    
Zn1   N1    2.072382 S    
C13   C15   1.422988 S    
C17   C23   1.538158 S    
C14   C16   1.422989 S    
C2    C21   1.442726 S    
C18   C24   1.538159 S    
C39   H27   1.109536 S    
C7    C13   1.533185 S    
C33   C34   1.526065 S    
C19   C31   1.538799 S    
H1    C12   1.110247 S    
C35   C36   1.521317 S    
C25   C27   1.516615 S    
C26   C28   1.516631 S    
C23   N7    1.455578 S    
C26   N12   1.447068 S    
C31   C32   1.526067 S    
C28   N2    1.501563 S    
N12   O27   1.298179 A    
C21   C23   1.535690 S    
C42   H30   1.110554 S    
C22   C24   1.535686 S    
C11   C13   1.550579 S    
N10   O23   1.299919 A    
O2    Zn2   2.005457 S    
C29   C39   1.535065 S    
C38   H18   1.104346 S    
C18   C37   1.531286 S    
C37   H22   1.110232 S    
O5    Zn1   1.971870 S    
N8    O19   1.299263 A    
C17   C19   1.550259 S    
C34   H8    1.106838 S    
C39   C40   1.525578 S    
C19   C24   1.535246 S    
C41   H31   1.109553 S    
C40   H25   1.110521 S    
C17   C35   1.531284 S    
C30   C41   1.535059 S    
