data_mof_unit_28228.cif
_audit_creation_date              2013-03-05T16:12:19-0500
_audit_creation_method            fapswitch 2.2
_symmetry_space_group_name_H-M    P1
_symmetry_Int_Tables_number       1
_space_group_crystal_system       triclinic
_cell_length_a                    8.436841
_cell_length_b                    16.491623
_cell_length_c                    27.320885
_cell_angle_alpha                 71.739259
_cell_angle_beta                  96.682904
_cell_angle_gamma                 94.272365
_cell_volume                      3582.47295804

loop_
_atom_site_label
_atom_site_type_symbol
_atom_site_description
_atom_site_fract_x
_atom_site_fract_y
_atom_site_fract_z
_atom_type_partial_charge
P1    P     P_3+3 0.610630 0.953360 0.619150 0.598187
O1    O     O_2   0.431310 0.922990 0.623550 -0.310022
O2    O     O_3   0.663280 0.983100 0.563360 -0.334363
O3    O     O_3   0.126250 0.812630 0.574830 -0.427386
O4    O     O_2   0.250230 0.765414 0.672585 -0.233025
O5    O     O_3   0.648325 0.032481 0.651420 -0.556241
O6    O     O_3   0.157661 0.646346 0.630622 -0.470017
H1    H     H_    0.132716 0.685288 0.550264 0.131168
C1    C     C_3   0.090863 0.551585 0.580323 -0.616253
H2    H     H_    0.214800 0.539296 0.576243 0.276706
H3    H     H_    0.051199 0.504962 0.615913 0.319135
P2    P     P_3+3 0.057260 0.861390 0.437850 0.544145
P3    P     P_3+3 0.511760 0.702170 0.529695 0.453147
O7    O     O_2   0.229950 0.835370 0.450810 -0.354419
O8    O     O_3   0.517580 0.797570 0.545130 -0.386629
O9    O     O_2   0.362060 0.702663 0.491462 -0.364781
O10   O     O_3   0.027235 0.902293 0.369681 -0.475000
O11   O     O_3   0.466057 0.615861 0.583300 -0.578093
C2    C     C_3   0.587734 0.602594 0.624446 1.025446
H4    H     H_    0.698167 0.642467 0.614376 -0.145548
C3    C     C_3   0.523167 0.621742 0.669354 -0.761488
H5    H     H_    0.497603 0.690511 0.658156 0.224092
H6    H     H_    0.412574 0.582437 0.680052 0.291426
C4    C     C_3   0.482284 0.936235 0.328101 -0.203069
H7    H     H_    0.397678 0.987727 0.315071 0.052966
C5    C     C_3   0.565622 0.937496 0.280175 0.590160
H8    H     H_    0.656919 0.989641 0.275087 0.073146
Ba1   Ba    Ba6+2 0.337820 0.939830 0.518500 1.677096
C6    C     C_3   0.569324 0.109254 0.630093 0.900601
H9    H     H_    0.450436 0.098108 0.611952 0.026371
C7    C     C_3   0.673736 0.172962 0.593779 -0.833773
H10   H     H_    0.789903 0.178871 0.614677 0.289520
H11   H     H_    0.623649 0.237096 0.580572 0.206746
H12   H     H_    0.694509 0.151216 0.561237 0.275473
C8    C     C_3   0.095072 0.984605 0.353264 0.293705
H13   H     H_    0.220527 0.980226 0.370382 0.022784
H14   H     H_    0.030793 0.029019 0.366458 0.135000
C9    C     C_3   0.098154 0.017707 0.293837 -0.673484
H15   H     H_    0.136575 0.967275 0.279643 0.282332
H16   H     H_    0.186769 0.071901 0.284171 0.141882
P4    P     P_3+3 0.579040 0.046590 0.380840 0.530646
O12   O     O_2   0.758370 0.077020 0.376420 -0.310254
O13   O     O_3   0.526390 0.016840 0.436620 -0.370375
O14   O     O_3   0.063420 0.187310 0.425160 -0.320327
O15   O     O_3   0.597562 0.950022 0.366899 -0.548335
P5    P     P_3+3 0.681593 0.304023 0.461671 0.519142
O16   O     O_3   0.173250 0.067890 0.537260 -0.366829
O17   O     O_3   0.672100 0.202370 0.454860 -0.355205
O18   O     O_2   0.832405 0.306096 0.499097 -0.280450
O19   O     O_3   0.727400 0.375926 0.402391 -0.462197
Ba2   Ba    Ba6+2 0.851970 0.060110 0.481480 1.674240
P6    P     P_3+3 0.108725 0.743368 0.636725 0.593955
C10   C     C_3   0.077677 0.640054 0.583731 0.365243
H17   H     H_    0.948395 0.651617 0.581134 0.040726
H18   H     H_    0.013850 0.544408 0.546140 0.195547
O20   O     O_3   0.016420 0.932050 0.462720 -0.409329
C11   C     C_3   0.074518 0.049914 0.659248 0.145002
H19   H     H_    0.955269 0.076128 0.654532 0.127699
C12   C     C_3   0.136327 0.021109 0.717630 0.218338
H20   H     H_    0.081266 0.958097 0.738028 0.096492
H21   H     H_    0.265299 0.011347 0.721274 0.141901
P7    P     P_3+3 0.143673 0.150526 0.564112 0.584221
O21   O     O_2   0.959730 0.164640 0.549160 -0.323852
O22   O     O_3   0.184472 0.111775 0.632489 -0.522992
H22   H     H_    0.610447 0.606349 0.704032 0.220111
C13   C     C_3   0.589599 0.384512 0.367367 0.372565
H23   H     H_    0.530387 0.321434 0.368359 0.073861
H24   H     H_    0.505795 0.425308 0.376524 0.050856
C14   C     C_3   0.634968 0.427672 0.312661 -0.841332
H25   H     H_    0.715820 0.386979 0.302152 0.273786
H26   H     H_    0.526130 0.437094 0.284777 0.214777
H27   H     H_    0.695924 0.490781 0.309923 0.279759
P8    P     P_3+3 0.066441 0.240558 0.358249 0.524186
C15   C     C_3   0.145528 0.395881 0.358970 0.406472
H28   H     H_    0.253077 0.358675 0.377435 -0.054195
O23   O     O_2   0.922418 0.204416 0.330502 -0.349271
O24   O     O_3   0.010919 0.344921 0.349260 -0.495493
H29   H     H_    0.288764 0.503372 0.313978 0.245915
C16   C     C_3   0.186480 0.460217 0.307546 -0.902756
H30   H     H_    0.081874 0.499166 0.288117 0.295417
H31   H     H_    0.219886 0.425987 0.281464 0.258391
C17   C     C_R   0.547058 0.272749 0.174111 0.577735
O25   O     O_2   0.613814 0.206037 0.196000 -0.562540
N1    N     N_R   0.423925 0.296865 0.196194 -0.160528
C18   C     C_R   0.337071 0.367387 0.165419 0.539521
C19   C     C_2   0.256786 0.261734 0.271406 -0.260570
C20   C     C_3   0.258804 0.235451 0.329556 0.155454
C21   C     C_1   0.469036 0.138789 0.334914 0.172510
C22   C     C_2   0.512224 0.190971 0.289516 -0.166442
C23   C     C_2   0.392758 0.251470 0.251006 0.125588
C24   C     C_R   0.503226 0.392056 0.094621 -0.077185
C25   C     C_R   0.596197 0.324183 0.125576 -0.071450
C26   C     C_R   0.735464 0.308361 0.107004 -0.037110
C27   C     C_R   0.365699 0.408938 0.113333 -0.050028
C28   C     C_2   0.334664 0.151426 0.351029 -0.299186
H32   H     H_    0.637871 0.198779 0.284038 0.225760
H33   H     H_    0.809500 0.255932 0.129552 0.169410
C29   C     C_2   0.799222 0.816225 0.633711 -0.537794
C30   C     C_R   0.740648 0.485804 0.979775 0.106615
C31   C     C_R   0.493815 0.564130 0.965118 -0.202490
C32   C     C_R   0.634644 0.548143 0.947125 0.101302
C33   C     C_R   0.893680 0.484334 0.963816 -0.210590
C34   C     C_R   0.938276 0.540678 0.917162 -0.010203
C35   C     C_R   0.828040 0.596023 0.882789 -0.035380
C36   C     C_R   0.674350 0.598340 0.897108 -0.114895
C37   C     C_R   0.562599 0.653129 0.862057 -0.301434
C38   C     C_R   0.595963 0.683408 0.808828 0.751517
N2    N     N_R   0.751463 0.686480 0.795527 -0.159217
C39   C     C_R   0.869062 0.650868 0.834661 0.724190
C40   C     C_2   0.881910 0.694559 0.716157 0.422803
C41   C     C_3   0.901377 0.739108 0.659397 0.049951
C42   C     C_1   0.721998 0.853332 0.660387 0.162710
C43   C     C_2   0.729233 0.820082 0.712926 0.366389
C44   C     C_2   0.790914 0.730925 0.741827 -0.221335
O26   O     O_2   0.009178 0.665984 0.827493 -0.487686
C45   C     C_R   0.693392 0.430462 0.028074 0.040366
C46   C     C_R   0.547582 0.443530 0.045018 0.100930
C47   C     C_R   0.446108 0.508407 0.013182 0.122578
C48   C     C_R   0.784530 0.361037 0.059790 -0.197091
H34   H     H_    0.058229 0.538551 0.907189 0.150855
H35   H     H_    0.984134 0.442600 0.987605 0.119943
H36   H     H_    0.892744 0.344290 0.048488 0.137037
O27   O     O_2   0.237829 0.397075 0.183261 -0.604059
C49   C     C_R   0.259825 0.468072 0.079665 -0.064004
H37   H     H_    0.150483 0.290650 0.248777 0.217266
H38   H     H_    0.146769 0.478295 0.091559 0.176930
C50   C     C_R   0.419132 0.642392 0.937601 0.303293
C51   C     C_R   0.433891 0.679379 0.883227 0.465533
O28   O     O_2   0.487922 0.705021 0.774504 -0.477457
C52   C     C_R   0.295810 0.513204 0.029609 -0.129756
H39   H     H_    0.205440 0.552892 0.004071 0.168012
H40   H     H_    0.268570 0.100602 0.375329 0.079807
H41   H     H_    0.776516 0.833968 0.591962 0.193328
C53   C     C_2   0.391830 0.253428 0.505518 -0.508239
C54   C     C_R   0.801856 0.761147 0.489125 -0.516149
C55   C     C_2   0.250313 0.323582 0.553988 0.453924
C56   C     C_2   0.261865 0.253961 0.538064 0.053603
C57   C     C_2   0.497808 0.320489 0.489357 0.053274
C58   C     C_3   0.460874 0.407002 0.492845 -0.122548
C59   C     C_3   0.367384 0.399437 0.539069 0.091395
C60   C     C_2   0.601388 0.471197 0.490563 -0.069333
C61   C     C_2   0.576019 0.553921 0.483467 -0.084934
C62   C     C_R   0.839305 0.622224 0.454335 0.070371
C63   C     C_R   0.705304 0.621975 0.480437 0.009542
C64   C     C_R   0.951901 0.691094 0.445275 -0.237138
C65   C     C_R   0.932030 0.761981 0.461598 0.310839
C66   C     C_R   0.688073 0.692374 0.498319 0.182086
H42   H     H_    0.050764 0.690842 0.423430 0.196089
H43   H     H_    0.784117 0.816371 0.500902 0.178196
H44   H     H_    0.722931 0.450558 0.496525 0.205058
H45   H     H_    0.453287 0.571853 0.479915 0.180336
S1    S     S_3+6 0.665515 0.840742 0.287519 0.052059
O29   O     O_2   0.775311 0.855868 0.245706 -0.173112
O30   O     O_2   0.762902 0.813544 0.339090 -0.264980
O31   O     O_3   0.531583 0.761412 0.283912 -0.477936
H46   H     H_    0.510977 0.767304 0.246547 0.395695
S2    S     S_3+6 0.434775 0.965128 0.221057 -0.010799
O32   O     O_2   0.299622 0.899788 0.223301 -0.220034
O33   O     O_2   0.368719 0.051271 0.212224 -0.314916
O34   O     O_3   0.538964 0.969812 0.171330 -0.472626
H47   H     H_    0.463038 0.990214 0.139977 0.392683
S3    S     S_3+6 0.545669 0.157221 0.679586 0.036693
O35   O     O_2   0.407685 0.214945 0.661220 -0.270727
O36   O     O_2   0.516612 0.091450 0.730086 -0.206411
O37   O     O_3   0.707622 0.218013 0.689375 -0.507533
H48   H     H_    0.677184 0.247944 0.712964 0.406774
C67   C     C_2   0.945714 0.050501 0.262836 1.164265
O38   O     O_2   0.871664 0.101912 0.273925 -0.621563
O39   O     O_R   0.896879 0.028099 0.217972 -0.696161
H49   H     H_    0.799323 0.059323 0.197725 0.360804
C68   C     C_2   0.062324 0.974218 0.639826 0.850708
O40   O     O_2   0.139146 0.911449 0.662570 -0.591288
O41   O     O_R   0.967310 0.977895 0.594262 -0.735123
H50   H     H_    0.991202 0.932715 0.578740 0.352642
S4    S     S_3+6 0.104161 0.092375 0.753050 0.098551
O42   O     O_2   0.931007 0.112009 0.746762 -0.183102
O43   O     O_2   0.153396 0.048753 0.809363 -0.210010
O44   O     O_3   0.213016 0.184032 0.733855 -0.397433
H51   H     H_    0.185119 0.218567 0.755247 0.381513
C69   C     C_2   0.107509 0.440315 0.396397 1.030565
O45   O     O_2   0.080522 0.397529 0.440175 -0.615410
O46   O     O_R   0.105024 0.529455 0.381955 -0.770746
H52   H     H_    0.081343 0.550377 0.411365 0.325064
S5    S     S_3+6 0.956399 0.589308 0.742088 0.025918
O47   O     O_2   0.122645 0.593724 0.768019 -0.198055
O48   O     O_2   0.850703 0.531142 0.780128 -0.289012
O49   O     O_3   0.967591 0.547011 0.694398 -0.489749
H53   H     H_    0.029558 0.494942 0.710632 0.403902
S6    S     S_3+6 0.374621 0.708458 0.975273 0.053868
O50   O     O_2   0.197602 0.707753 0.978110 -0.239261
O51   O     O_2   0.455634 0.676314 0.029390 -0.248208
O52   O     O_3   0.442236 0.809701 0.949558 -0.412009
H54   H     H_    0.401572 0.842116 0.970159 0.396345
S7    S     S_3+6 0.637440 0.492600 0.643529 0.004319
O53   O     O_2   0.761457 0.481946 0.611199 -0.317825
O54   O     O_2   0.696184 0.460045 0.699968 -0.215796
O55   O     O_3   0.475852 0.433448 0.633693 -0.483082
H55   H     H_    0.514439 0.374778 0.643070 0.402795
S8    S     S_3+6 0.321871 0.771913 0.847847 0.098872
O56   O     O_2   0.427697 0.849572 0.846650 -0.206896
O57   O     O_2   0.264468 0.774442 0.793312 -0.166647
O58   O     O_3   0.159484 0.777227 0.876769 -0.442158
H56   H     H_    0.112221 0.832306 0.856209 0.399005
S9    S     S_3+6 0.693903 0.884871 0.751253 0.054075
O59   O     O_2   0.731953 0.841919 0.808241 -0.266844
O60   O     O_2   0.794851 0.965469 0.737281 -0.255841
O61   O     O_3   0.500492 0.907909 0.738673 -0.445422
H57   H     H_    0.484023 0.938923 0.763056 0.414662
S10   S     S_3+6 0.110436 0.332303 0.595980 0.041946
O62   O     O_2   0.190575 0.376410 0.632987 -0.260208
O63   O     O_2   0.975572 0.384830 0.564116 -0.281994
O64   O     O_3   0.034608 0.240264 0.632515 -0.463750
H58   H     H_    0.984584 0.255563 0.659256 0.415454
C70   C     C_2   0.406306 0.174238 0.493623 1.144464
O65   O     O_2   0.461033 0.111311 0.525869 -0.647433
O66   O     O_R   0.353812 0.169410 0.445502 -0.805427
H59   H     H_    0.329123 0.107253 0.448771 0.329312
C71   C     C_2   0.392051 0.851222 0.349628 1.175317
O67   O     O_2   0.265234 0.835742 0.327368 -0.534791
O68   O     O_R   0.454094 0.787308 0.393108 -0.701422
H60   H     H_    0.562725 0.802786 0.408122 0.324490

loop_
_geom_bond_atom_site_label_1
_geom_bond_atom_site_label_2
_geom_bond_distance
_ccdc_geom_bond_type
S7    O54   1.501499 D    
C68   O40   1.216909 D    
Ba1   O16   2.816306 S    
O37   H48   0.990814 S    
C14   H27   1.110711 S    
C31   C50   1.425089 A    
P4    O12   1.564273 D    
C13   H24   1.110255 S    
C2    H4    1.109578 S    
C38   O28   1.215441 D    
C53   C56   1.492088 S    
O44   H51   0.990907 S    
O8    Ba1   2.745402 S    
C67   O39   1.397210 S    
C10   H17   1.111569 S    
S5    O47   1.503442 D    
C68   O41   1.386936 S    
C29   H41   1.082451 S    
C5    H8    1.097014 S    
C50   S6    1.800299 S    
P3    O11   1.750083 S    
P2    Ba1   3.499644 S    
C4    O15   1.413986 S    
O2    Ba1   3.003985 S    
C2    C3    1.525037 S    
C4    C5    1.550573 S    
O6    P6    1.743569 S    
Ba2   O20   2.815729 S    
C12   S4    1.792427 S    
C30   C45   1.430624 A    
P1    C42   1.921778 S    
C9    H15   1.103973 S    
Ba1   Ba2   4.555113 S    
C70   O66   1.362260 S    
C11   C12   1.552503 S    
S7    O55   1.662311 S    
C37   C38   1.436208 A    
N2    C44   1.484542 S    
C62   C63   1.404214 A    
C37   C51   1.440221 A    
S10   O64   1.662532 S    
C17   C25   1.421405 A    
N2    C39   1.385227 Am   
C5    S2    1.798267 S    
S6    O51   1.503931 D    
P1    O1    1.563921 D    
O39   H49   1.013539 S    
C43   S9    1.774316 S    
P2    C65   1.860050 S    
C14   H26   1.109931 S    
O46   H52   1.012894 S    
P8    C20   1.900897 S    
P7    O22   1.775322 S    
C40   C41   1.516202 S    
C60   C61   1.346359 D    
S2    O32   1.502296 D    
C8    H13   1.104201 S    
C15   O24   1.412030 S    
C20   C28   1.486369 S    
P2    O10   1.765287 S    
P1    Ba1   3.426943 S    
C38   N2    1.394744 Am   
C7    H11   1.104267 S    
O4    P6    1.550375 D    
C18   O27   1.218206 D    
C1    H18   1.106779 S    
C33   H35   1.077490 S    
C1    H2    1.104407 S    
C40   C44   1.377836 D    
C55   C59   1.515483 S    
O12   Ba2   2.818477 S    
P5    C57   1.874728 S    
C21   C22   1.342125 D    
C54   C65   1.398381 A    
S7    O53   1.498527 D    
C21   C28   1.315824 D    
C40   S5    1.788287 S    
C12   H20   1.109794 S    
S2    O33   1.502953 D    
C3    H5    1.109054 S    
C19   H37   1.078847 S    
P4    O13   1.554669 S    
S9    O60   1.492269 D    
C14   H25   1.110248 S    
N1    C23   1.493943 S    
O16   P7    1.782551 S    
C63   C66   1.415923 A    
O68   H60   1.008294 S    
O3    Ba1   2.830800 S    
C69   O46   1.398718 S    
C60   H44   1.082723 S    
C64   C65   1.402496 A    
S4    O44   1.676851 S    
S3    O36   1.497168 D    
O17   Ba2   2.745962 S    
C32   C36   1.421658 A    
C9    C67   1.492307 S    
P5    O17   1.738809 S    
C12   H21   1.100309 S    
C29   C42   1.333987 D    
O58   H56   0.990809 S    
C33   C34   1.395343 A    
C8    C9    1.545015 S    
Ba2   O21   2.930898 S    
C4    H7    1.095034 S    
S4    O43   1.503089 D    
C15   H28   1.112092 S    
C67   O38   1.218564 D    
C16   H31   1.108355 S    
O2    Ba2   2.810468 S    
H29   C16   1.110695 S    
O11   C2    1.405760 S    
O16   Ba2   2.965717 S    
P6    C41   1.911939 S    
O41   H50   1.007933 S    
O61   H57   0.985047 S    
P1    O2    1.554922 S    
C61   H45   1.083206 S    
S6    O52   1.680180 S    
C6    H9    1.095186 S    
C47   C52   1.408987 A    
S8    O58   1.679981 S    
S3    O37   1.680032 S    
O19   C13   1.402858 S    
C18   C27   1.413228 A    
C71   O68   1.396052 S    
C7    H10   1.089243 S    
P5    O18   1.542163 D    
S1    O31   1.683069 S    
O66   H59   1.008604 S    
O5    C6    1.399923 S    
P7    O21   1.573570 D    
C24   C46   1.430721 A    
S10   O62   1.495641 D    
C7    H12   1.093261 S    
C49   C52   1.393373 A    
S6    O50   1.503470 D    
P4    O15   1.771110 S    
N1    C18   1.402593 Am   
C1    H3    1.103408 S    
P2    O20   1.596507 S    
O14   Ba2   2.830049 S    
C30   C32   1.424471 A    
P2    O7    1.519902 D    
S2    O34   1.681217 S    
C17   N1    1.399712 Am   
C15   C16   1.530745 S    
C3    H6    1.109423 S    
C19   C23   1.375568 D    
C28   H40   1.059249 S    
P8    O23   1.538595 D    
C61   C63   1.495533 S    
C16   H30   1.111308 S    
C1    C10   1.503822 S    
C15   C69   1.505435 S    
O6    C10   1.406779 S    
C50   C51   1.434672 A    
C26   H33   1.083688 S    
C24   C25   1.402355 A    
C64   H42   1.081597 S    
C69   O45   1.221008 D    
C8    H14   1.109344 S    
C11   O22   1.408995 S    
C49   H38   1.083636 S    
C43   C44   1.531991 S    
C48   H36   1.077872 S    
O14   P8    1.764953 S    
C62   C64   1.404087 A    
P4    C21   1.868497 S    
P8    O24   1.752268 S    
C29   C41   1.521821 S    
P1    O5    1.781838 S    
C3    H22   1.104121 S    
C19   C20   1.508455 S    
C6    S3    1.802966 S    
S1    O30   1.500286 D    
C55   C56   1.362575 D    
H1    C10   1.108113 S    
C53   C57   1.362372 D    
O1    Ba1   2.818289 S    
C58   C59   1.533301 S    
S5    O49   1.673647 S    
S3    O35   1.497680 D    
O10   C8    1.390644 S    
C36   C37   1.413135 A    
P5    O19   1.747104 S    
Ba1   O13   2.809835 S    
C54   C66   1.409383 A    
C53   C70   1.457761 S    
C45   C48   1.416799 A    
O52   H54   0.990509 S    
C22   H32   1.080375 S    
P3    O8    1.747840 S    
C52   H39   1.077436 S    
C22   C23   1.537362 S    
C51   S8    1.798378 S    
O49   H53   0.990787 S    
C6    C7    1.508801 S    
S4    O42   1.498571 D    
C54   H43   1.081913 S    
C46   C47   1.419214 A    
O34   H47   0.990482 S    
C24   C27   1.400184 A    
C9    H16   1.107228 S    
C58   C60   1.522799 S    
O13   Ba2   3.004844 S    
C71   O67   1.218572 D    
C35   C39   1.407408 A    
Ba1   O20   2.966578 S    
C70   O65   1.212470 D    
C5    S1    1.804705 S    
C25   C26   1.404808 A    
S10   O63   1.498870 D    
C34   H34   1.084025 S    
S5    O48   1.502996 D    
C45   C46   1.417267 A    
C13   H23   1.113776 S    
S9    O61   1.674868 S    
C42   C43   1.362418 D    
O3    P6    1.734558 S    
P7    C56   1.887204 S    
O55   H55   0.989946 S    
C57   C58   1.516617 S    
C39   O26   1.215452 D    
C55   S10   1.781416 S    
C13   C14   1.520824 S    
S8    O56   1.499561 D    
C30   C33   1.414197 A    
C31   C47   1.429180 A    
S9    O59   1.501783 D    
C2    S7    1.791076 S    
C4    C71   1.522994 S    
C17   O25   1.219377 D    
P3    O9    1.541258 D    
C34   C35   1.402147 A    
S8    O57   1.500755 D    
P3    C66   1.842025 S    
C31   C32   1.409510 A    
S1    O29   1.502866 D    
C26   C48   1.399429 A    
O7    Ba1   2.930414 S    
C11   H19   1.102463 S    
O31   H46   0.990383 S    
P4    Ba2   3.427278 S    
C35   C36   1.403796 A    
O64   H58   0.989276 S    
C11   C68   1.494590 S    
C27   C49   1.404073 A    
