data_mof_unit_19607.cif
_audit_creation_date              2012-12-10T16:57:05-0500
_audit_creation_method            fapswitch 2.2
_symmetry_space_group_name_H-M    P1
_symmetry_Int_Tables_number       1
_space_group_crystal_system       triclinic
_cell_length_a                    7.756573
_cell_length_b                    8.634817
_cell_length_c                    16.535589
_cell_angle_alpha                 91.75724
_cell_angle_beta                  80.904381
_cell_angle_gamma                 93.586209
_cell_volume                      1091.18755205

loop_
_atom_site_label
_atom_site_type_symbol
_atom_type_description
_atom_site_fract_x
_atom_site_fract_y
_atom_site_fract_z
_atom_type_partial_charge
C1    C     C_R   0.545736 0.794415 0.498040 0.871706
C2    C     C_R   0.454244 0.205593 0.502144 0.874301
C3    C     C_2   0.570223 0.956744 0.497267 0.293193
C4    C     C_2   0.429714 0.043308 0.503293 0.283990
C5    C     C_R   0.476109 0.492411 0.654472 0.879490
C6    C     C_R   0.521530 0.494179 0.345044 0.888216
C7    C     C_R   0.453669 0.436321 0.737938 -0.172671
C8    C     C_R   0.526784 0.458504 0.257882 -0.171708
C9    C     C_R   0.567233 0.328258 0.758721 0.619121
C10   C     C_R   0.380098 0.477775 0.219939 0.620569
C11   C     C_R   0.534402 0.260851 0.835035 -0.240323
C12   C     C_R   0.376593 0.420234 0.140970 -0.233269
C13   C     C_R   0.390696 0.302739 0.892091 0.095837
C14   C     C_R   0.518603 0.341694 0.099030 0.106502
C15   C     C_R   0.272653 0.403953 0.870205 -0.154286
C16   C     C_R   0.667551 0.328526 0.135479 -0.172075
C17   C     C_R   0.303919 0.470543 0.793386 -0.241913
C18   C     C_R   0.671778 0.386265 0.214447 -0.242900
C19   C     C_2   0.380304 0.268094 0.978624 -0.189720
C20   C     C_2   0.524817 0.292365 0.013264 -0.179545
H1    H     H_    0.786548 0.369796 0.242260 0.207779
H2    H     H_    0.212260 0.549870 0.777578 0.188076
H3    H     H_    0.652975 0.300503 0.975455 0.150894
H4    H     H_    0.251830 0.260392 0.015973 0.149314
H5    H     H_    0.161558 0.437776 0.914045 0.144895
H6    H     H_    0.780371 0.272847 0.102890 0.147955
H7    H     H_    0.264117 0.441321 0.112569 0.154515
H8    H     H_    0.624598 0.179928 0.850624 0.166111
H9    H     H_    0.022976 0.380545 0.439450 0.226155
H10   H     H_    0.977031 0.619487 0.560526 0.218047
N1    N     N_2   0.953500 0.457650 0.478520 -0.116795
N2    N     N_2   0.046500 0.542350 0.521480 -0.125346
O1    O     O_R   0.388470 0.738640 0.505270 -0.571498
O2    O     O_R   0.611530 0.261360 0.494730 -0.562187
O3    O     O_R   0.679650 0.711510 0.491500 -0.582175
O4    O     O_R   0.320350 0.288490 0.508500 -0.585083
O5    O     O_R   0.337210 0.515200 0.623500 -0.621347
O6    O     O_R   0.662790 0.484800 0.376500 -0.622730
O7    O     O_R   0.628380 0.488060 0.609730 -0.570094
O8    O     O_R   0.371620 0.511940 0.390270 -0.568476
Zn1   Zn    Zn3+2 0.305580 0.518120 0.509190 1.067375
Zn2   Zn    Zn3+2 0.694420 0.481880 0.490810 1.074694
F1    F     F_    0.707551 0.284409 0.704926 -0.634471
F2    F     F_    0.239800 0.551538 0.258910 -0.653258
F3    F     F_    0.738761 0.016841 0.490412 -0.605080
F4    F     F_    0.261148 0.983232 0.510327 -0.611786

loop_
_geom_bond_atom_site_label_1
_geom_bond_atom_site_label_2
_ccdc_geom_bond_type
C2    C4    S    
N2    Zn1   S    
C6    O6    A    
C15   C17   A    
N1    Zn2   S    
C5    O5    A    
C18   H1    S    
C11   C13   A    
C19   C20   D    
O2    Zn2   S    
C20   H3    S    
O1    Zn1   S    
C2    O2    A    
C5    O7    A    
C19   H4    S    
C1    O1    A    
H9    N1    S    
C4    F4    S    
H10   N2    S    
C9    C11   A    
O4    Zn1   S    
C10   C12   A    
C11   H8    S    
C16   C18   A    
O8    Zn1   S    
C12   C14   A    
O6    Zn2   S    
O7    Zn2   S    
C14   C16   A    
C13   C15   A    
O5    Zn1   S    
C6    O8    A    
C15   H5    S    
C9    F1    S    
C13   C19   S    
C12   H7    S    
C10   F2    S    
C3    C4    D    
C7    C9    A    
C17   H2    S    
C1    O3    A    
C14   C20   S    
C8    C10   A    
C2    O4    A    
C5    C7    S    
O3    Zn2   S    
C6    C8    S    
C1    C3    S    
C3    F3    S    
C8    C18   A    
N1    N2    D    
C7    C17   A    
C16   H6    S    
