data_mof_unit_66463.cif
_audit_creation_date              2012-12-10T17:09:41-0500
_audit_creation_method            fapswitch 2.2
_symmetry_space_group_name_H-M    P1
_symmetry_Int_Tables_number       1
_space_group_crystal_system       triclinic
_cell_length_a                    21.639784
_cell_length_b                    21.783271
_cell_length_c                    22.439941
_cell_angle_alpha                 121.516903
_cell_angle_beta                  119.168315
_cell_angle_gamma                 88.482055
_cell_volume                      7494.56346517

loop_
_atom_site_label
_atom_site_type_symbol
_atom_type_description
_atom_site_fract_x
_atom_site_fract_y
_atom_site_fract_z
_atom_type_partial_charge
C1    C     C_R   0.502423 0.123298 0.506720 0.890395
C2    C     C_R   0.497655 0.876743 0.493366 0.889596
C3    C     C_1   0.874200 0.371637 0.248953 -0.189078
C4    C     C_1   0.126402 0.628471 0.750865 -0.195259
C5    C     C_3   0.703356 0.205745 0.917294 0.257424
C6    C     C_3   0.294429 0.793840 0.082680 0.271868
C7    C     C_3   0.718310 0.316933 0.052835 -0.048012
C8    C     C_3   0.295857 0.709830 0.949759 -0.016475
C9    C     C_3   0.788027 0.289673 0.082329 0.256815
C10   C     C_3   0.213356 0.711303 0.917300 0.260265
C11   C     C_3   0.760936 0.205299 0.046101 -0.439002
C12   C     C_3   0.214164 0.794667 0.954114 -0.456515
C13   C     C_3   0.715605 0.155316 0.948999 -0.449057
C14   C     C_3   0.264911 0.843860 0.051140 -0.435803
C15   C     C_1   0.835612 0.333954 0.173869 -0.104956
C16   C     C_1   0.165727 0.666532 0.825879 -0.062990
C17   C     C_1   0.659620 0.158235 0.825615 -0.072345
C18   C     C_1   0.338718 0.841071 0.174372 -0.082823
C19   C     C_1   0.624112 0.120804 0.750589 -0.193469
C20   C     C_1   0.375465 0.878679 0.249382 -0.188861
C21   C     C_R   0.427238 0.100031 0.349285 -0.151254
C22   C     C_R   0.571295 0.900211 0.650796 -0.151759
C23   C     C_R   0.580667 0.077882 0.661791 0.884112
C24   C     C_R   0.419293 0.922006 0.338195 0.883769
C25   C     C_R   0.402905 0.084888 0.271927 -0.170641
C26   C     C_R   0.594998 0.915312 0.727974 -0.170145
C27   C     C_R   0.422672 0.141917 0.268000 -0.185731
C28   C     C_R   0.575444 0.858055 0.731684 -0.186726
C29   C     C_R   0.463103 0.215856 0.340855 0.031753
C30   C     C_R   0.535813 0.783992 0.658844 0.031544
C31   C     C_R   0.479906 0.234775 0.419827 0.047625
C32   C     C_R   0.519620 0.765206 0.580107 0.047307
C33   C     C_R   0.468421 0.174072 0.424434 0.040062
C34   C     C_R   0.530978 0.826053 0.575659 0.040465
C35   C     C_R   0.499287 0.187779 0.503929 -0.085834
C36   C     C_R   0.501105 0.812368 0.496338 -0.085083
C37   C     C_R   0.533047 0.262388 0.578683 0.141639
C38   C     C_R   0.469130 0.737781 0.421827 0.139383
C39   C     C_R   0.534659 0.321106 0.571376 -0.262837
C40   C     C_R   0.467167 0.679034 0.429014 -0.262712
C41   C     C_R   0.508097 0.309675 0.494733 -0.159653
C42   C     C_R   0.492282 0.690356 0.505330 -0.159234
C43   C     C_R   0.759674 0.439612 0.452261 -0.205546
C44   C     C_R   0.240544 0.560299 0.548238 -0.205968
C45   C     C_R   0.734116 0.646964 0.603341 -0.173736
C46   C     C_R   0.265519 0.353044 0.396054 -0.173556
C47   C     C_R   0.817593 0.506909 0.507441 -0.104816
C48   C     C_R   0.182437 0.493108 0.492663 -0.104197
C49   C     C_R   0.882040 0.502815 0.503761 0.862631
C50   C     C_R   0.117979 0.497208 0.496291 0.861635
C51   C     C_R   0.919358 0.418035 0.337976 0.900088
C52   C     C_R   0.080662 0.581962 0.661970 0.896094
C53   C     C_R   0.620187 0.502717 0.499814 0.879975
C54   C     C_R   0.379807 0.497256 0.500187 0.880070
C55   C     C_R   0.504538 0.378312 0.497950 0.890032
C56   C     C_R   0.495486 0.621694 0.502060 0.889806
C57   C     C_R   0.743333 0.577024 0.555076 0.098223
C58   C     C_R   0.256493 0.422984 0.444651 0.098273
C59   C     C_R   0.871039 0.644588 0.621747 -0.178489
C60   C     C_R   0.128662 0.355591 0.377796 -0.178098
C61   C     C_R   0.861509 0.712574 0.670597 -0.143384
C62   C     C_R   0.138006 0.287621 0.328616 -0.143044
C63   C     C_R   0.792857 0.713950 0.660418 -0.135795
C64   C     C_R   0.206622 0.286154 0.338717 -0.135982
C65   C     C_R   0.694688 0.439894 0.448995 -0.208048
C66   C     C_R   0.305503 0.559983 0.551455 -0.206827
C67   C     C_R   0.686368 0.507463 0.500149 -0.110351
C68   C     C_R   0.313624 0.492480 0.499876 -0.110863
C69   C     C_R   0.811317 0.576369 0.561208 0.101261
C70   C     C_R   0.188535 0.423698 0.438575 0.101090
C71   C     C_3   0.665156 0.264099 0.953946 0.011573
C72   C     C_3   0.340212 0.749280 0.046832 -0.024725
C73   C     C_3   0.781897 0.249434 0.950567 -0.173653
C74   C     C_3   0.223959 0.734719 0.046664 -0.181080
C75   C     C_3   0.832658 0.295783 0.047807 -0.434279
C76   C     C_3   0.180654 0.681768 0.949165 -0.448330
H1    H     H_    0.785241 0.767009 0.697387 0.138972
H2    H     H_    0.214095 0.233098 0.301499 0.139033
H3    H     H_    0.746410 0.117010 0.927285 0.174063
H4    H     H_    0.232513 0.874464 0.076999 0.170203
H5    H     H_    0.725821 0.198671 0.066924 0.170495
H6    H     H_    0.234347 0.817133 0.930042 0.171956
H7    H     H_    0.689716 0.311766 0.080777 0.153493
H8    H     H_    0.320304 0.744451 0.939141 0.182128
H9    H     H_    0.809245 0.185498 0.070166 0.185584
H10   H     H_    0.156749 0.798405 0.933960 0.187210
H11   H     H_    0.412929 0.053108 0.349494 0.133858
H12   H     H_    0.585529 0.947249 0.650732 0.133157
H13   H     H_    0.371742 0.027842 0.215258 0.135132
H14   H     H_    0.625558 0.972451 0.784642 0.138241
H15   H     H_    0.408510 0.127576 0.207807 0.137008
H16   H     H_    0.589187 0.872280 0.791703 0.136985
H17   H     H_    0.681577 0.650851 0.596943 0.154371
H18   H     H_    0.318029 0.349070 0.402402 0.154541
H19   H     H_    0.557082 0.377994 0.628425 0.177480
H20   H     H_    0.445791 0.622210 0.372162 0.177674
H21   H     H_    0.651468 0.386750 0.407660 0.175861
H22   H     H_    0.348841 0.613075 0.593086 0.176155
H23   H     H_    0.764621 0.386531 0.411031 0.161117
H24   H     H_    0.235747 0.613318 0.589778 0.160529
H25   H     H_    0.925733 0.646210 0.632977 0.150565
H26   H     H_    0.074005 0.354052 0.366663 0.150606
H27   H     H_    0.907476 0.764447 0.716203 0.134201
H28   H     H_    0.091926 0.235829 0.282828 0.134318
H29   H     H_    0.657275 0.298837 0.929507 0.163397
H30   H     H_    0.343680 0.703587 0.056177 0.121870
H31   H     H_    0.808191 0.207590 0.924238 0.143557
H32   H     H_    0.187145 0.765452 0.064245 0.148455
H33   H     H_    0.857997 0.356164 0.077555 0.175285
H34   H     H_    0.181714 0.622710 0.926105 0.175227
H35   H     H_    0.880004 0.272908 0.065712 0.171018
H36   H     H_    0.121125 0.679510 0.922241 0.173541
H37   H     H_    0.661884 0.118069 0.922464 0.178698
H38   H     H_    0.310386 0.888363 0.073515 0.186927
O1    O     O_R   0.448260 0.091600 0.499990 -0.628925
O2    O     O_R   0.551740 0.908400 0.500010 -0.629906
O3    O     O_R   0.556960 0.465330 0.430620 -0.604801
O4    O     O_R   0.443040 0.534670 0.569380 -0.604475
O5    O     O_R   0.534700 0.443070 0.569370 -0.626510
O6    O     O_R   0.465300 0.556930 0.430630 -0.626371
O7    O     O_R   0.465330 0.373710 0.430660 -0.628141
O8    O     O_R   0.534670 0.626290 0.569340 -0.628019
O9    O     O_R   0.551730 0.091620 0.499980 -0.614727
O10   O     O_R   0.448270 0.908380 0.500020 -0.615029
O11   O     O_R   0.509690 0.061420 0.622860 -0.621620
O12   O     O_R   0.490310 0.938580 0.377140 -0.619737
O13   O     O_R   0.613170 0.061430 0.622850 -0.617501
O14   O     O_R   0.386830 0.938570 0.377150 -0.618306
O15   O     O_R   0.908550 0.551730 0.500000 -0.624547
O16   O     O_R   0.091450 0.448270 0.500000 -0.624615
O17   O     O_R   0.908530 0.448300 0.500020 -0.617836
O18   O     O_R   0.091470 0.551700 0.499980 -0.617822
O19   O     O_R   0.938770 0.490290 0.377130 -0.611797
O20   O     O_R   0.061230 0.509710 0.622870 -0.607616
O21   O     O_R   0.938740 0.386860 0.377150 -0.626285
O22   O     O_R   0.061260 0.613140 0.622850 -0.627490
O23   O     O_R   0.626330 0.534680 0.569330 -0.628393
O24   O     O_R   0.373670 0.465320 0.430670 -0.628335
Zn1   Zn    Zn3+2 0.430910 0.999990 0.500010 0.952423
Zn2   Zn    Zn3+2 0.569090 0.000010 0.499990 0.952914
Zn3   Zn    Zn3+2 0.000200 0.569060 0.499990 0.952364
Zn4   Zn    Zn3+2 0.999800 0.430940 0.500010 0.954301
Zn5   Zn    Zn3+2 0.546330 0.546310 0.592620 0.966391
Zn6   Zn    Zn3+2 0.453670 0.453690 0.407380 0.966449
C77   C     C_3   0.586646 0.229203 0.927682 -0.441018
C78   C     C_3   0.525141 0.189436 0.834708 -0.841929
H39   H     H_    0.525213 0.130560 0.796822 0.270928
H40   H     H_    0.470183 0.186097 0.826644 0.244816
H41   H     H_    0.531266 0.220906 0.810809 0.258087
H42   H     H_    0.588203 0.190137 0.945615 0.210512
H43   H     H_    0.569556 0.275961 0.963613 0.217006
C79   C     C_3   0.423521 0.791596 0.093992 -0.414191
C80   C     C_3   0.440070 0.866613 0.106336 -0.851055
H44   H     H_    0.404698 0.861337 0.046865 0.244724
H45   H     H_    0.433057 0.911529 0.155715 0.257363
H46   H     H_    0.499008 0.884586 0.128431 0.248276
H47   H     H_    0.455129 0.802423 0.156928 0.215830
H48   H     H_    0.446733 0.753401 0.059165 0.208878
C81   C     C_3   0.566066 0.289136 0.669105 -0.448012
C82   C     C_3   0.576287 0.231742 0.688763 -0.843180
H49   H     H_    0.521373 0.193979 0.658081 0.273905
H50   H     H_    0.612100 0.200858 0.669875 0.268288
H51   H     H_    0.604947 0.261562 0.757681 0.245486
H52   H     H_    0.622156 0.330708 0.709872 0.224322
H53   H     H_    0.531094 0.320094 0.690095 0.214400
C83   C     C_3   0.438321 0.711145 0.331871 -0.447092
C84   C     C_3   0.430323 0.768707 0.312553 -0.835660
H54   H     H_    0.393064 0.798931 0.328934 0.263840
H55   H     H_    0.485762 0.806932 0.345446 0.275016
H56   H     H_    0.404253 0.739145 0.244101 0.248690
H57   H     H_    0.473903 0.679967 0.312264 0.214445
H58   H     H_    0.381888 0.669800 0.289892 0.226269
C85   C     C_1   0.495498 0.264621 0.331639 0.164327
N1    N     N_1   0.520477 0.302221 0.321912 -0.212333
C86   C     C_1   0.503868 0.734820 0.667935 0.163851
N2    N     N_1   0.479316 0.696961 0.677695 -0.211673
C87   C     C_3   0.738762 0.401774 0.087436 -0.418745
C88   C     C_3   0.672785 0.432697 0.077680 -0.898716
H59   H     H_    0.627975 0.404050 0.010340 0.260556
H60   H     H_    0.650394 0.424905 0.109324 0.258885
H61   H     H_    0.691279 0.494121 0.107158 0.260680
H62   H     H_    0.783594 0.436793 0.155493 0.230044
H63   H     H_    0.759659 0.410124 0.054963 0.224181
C89   C     C_3   0.303696 0.629302 0.902812 -0.436062
C90   C     C_3   0.314510 0.612780 0.833885 -0.867548
H64   H     H_    0.267583 0.617529 0.786575 0.265378
H65   H     H_    0.367002 0.653002 0.861897 0.253389
H66   H     H_    0.318046 0.554432 0.801444 0.258562
H67   H     H_    0.352934 0.623318 0.947080 0.207595
H68   H     H_    0.254655 0.584643 0.874680 0.223166
C91   C     C_1   0.777647 0.298704 0.922776 0.134416
N3    N     N_1   0.774223 0.337194 0.900943 -0.212361
C92   C     C_1   0.241198 0.689926 0.081337 0.141282
N4    N     N_1   0.254503 0.654768 0.108318 -0.214525

loop_
_geom_bond_atom_site_label_1
_geom_bond_atom_site_label_2
_ccdc_geom_bond_type
C66   C68   A    
C21   H11   S    
C83   H58   S    
C5    C71   S    
C82   H50   S    
C27   C29   A    
C52   O20   A    
O10   Zn1   S    
C44   C66   A    
O6    Zn6   S    
C45   H17   S    
C13   H3    S    
C77   C78   S    
C47   C49   S    
C55   O5    A    
C85   N1    T    
C11   H5    S    
C6    C72   S    
C49   O17   A    
O12   Zn2   S    
C53   C67   S    
C74   C76   S    
C4    C52   S    
C53   O23   A    
C61   H27   S    
O14   Zn1   S    
C43   H23   S    
C7    C71   S    
C53   O3    A    
C90   H65   S    
O15   Zn3   S    
C87   H62   S    
C11   C13   S    
O5    Zn5   S    
C89   C90   S    
C7    C87   S    
C18   C20   T    
C60   C62   A    
C61   C63   A    
C41   C55   S    
C62   C64   A    
C55   O7    A    
C50   O16   A    
C42   C56   S    
C51   O21   A    
O20   Zn4   S    
C60   H26   S    
C47   C69   A    
C20   C24   S    
C72   C79   S    
C31   C33   A    
C27   H15   S    
C37   C81   S    
C21   C33   A    
C14   H4    S    
C80   H45   S    
C5    C13   S    
C77   H42   S    
C43   C65   A    
C23   O11   A    
C8    C89   S    
C48   C50   S    
O23   Zn5   S    
C74   C92   S    
C83   H57   S    
C46   C58   A    
C24   O12   A    
C75   H35   S    
C56   O6    A    
O7    Zn6   S    
C10   C76   S    
O8    Zn5   S    
C57   C67   A    
C6    C18   S    
C6    C74   S    
C84   H56   S    
C78   H40   S    
O21   Zn4   S    
C22   C34   A    
C79   H48   S    
C59   C61   A    
C75   H33   S    
C91   N3    T    
C59   H25   S    
C82   H51   S    
C88   H59   S    
O3    Zn6   S    
C84   H55   S    
O4    Zn5   S    
C29   C85   S    
C84   H54   S    
C10   C16   S    
C3    C51   S    
C58   C70   A    
C90   H66   S    
C25   H13   S    
C65   C67   A    
C14   H38   S    
C44   H24   S    
C49   O15   A    
O9    Zn2   S    
C45   C63   A    
C62   H28   S    
O11   Zn1   S    
C81   H53   S    
C46   C64   A    
C32   C34   A    
C4    C16   T    
C19   C23   S    
C1    O9    A    
O22   Zn3   S    
C30   C32   A    
C6    C14   S    
C78   H41   S    
C81   C82   S    
C46   H18   S    
C60   C70   A    
C76   H36   S    
C45   C57   A    
C7    C9    S    
C12   H6    S    
C28   H16   S    
C77   H43   S    
C50   O18   A    
C80   H46   S    
C9    C11   S    
C39   H19   S    
C73   C91   S    
O17   Zn4   S    
C10   C12   S    
C59   C69   A    
C8    C10   S    
C71   C77   S    
C72   H30   S    
C92   N4    T    
C5    C17   S    
C22   H12   S    
C71   H29   S    
C83   C84   S    
C52   O22   A    
C89   H68   S    
C25   C27   A    
O13   Zn2   S    
C73   C75   S    
C17   C19   T    
C36   C38   A    
C30   C86   S    
C3    C15   T    
C1    C35   S    
C23   O13   A    
C78   H39   S    
C63   H1    S    
C2    C36   S    
O18   Zn3   S    
C38   C83   S    
C21   C25   A    
C79   H47   S    
C31   C41   A    
C35   C37   A    
C8    H8    S    
C8    C72   S    
C64   H2    S    
C5    C73   S    
C48   C70   A    
C2    O2    A    
C88   H60   S    
C2    O10   A    
C26   H14   S    
C9    C75   S    
C26   C28   A    
C76   H34   S    
C12   H10   S    
C82   H49   S    
C66   H22   S    
C54   O4    A    
C40   H20   S    
C65   H21   S    
C28   C30   A    
C37   C39   A    
C86   N2    T    
C87   H63   S    
C38   C40   A    
C51   O19   A    
C58   C68   A    
C90   H64   S    
C54   O24   A    
C11   H9    S    
C40   C42   A    
C33   C35   A    
C34   C36   A    
C9    C15   S    
O16   Zn4   S    
C88   H61   S    
C73   H31   S    
C74   H32   S    
C7    H7    S    
C12   C14   S    
C54   C68   S    
C79   C80   S    
C39   C41   A    
C29   C31   A    
C87   C88   S    
C22   C26   A    
C24   O14   A    
C32   C42   A    
C81   H52   S    
O24   Zn6   S    
O19   Zn3   S    
C1    O1    A    
C57   C69   A    
C80   H44   S    
O1    Zn1   S    
C43   C47   A    
C89   H67   S    
C13   H37   S    
C44   C48   A    
C56   O8    A    
O2    Zn2   S    
