data_mof_unit_36027.cif
_audit_creation_date              2012-10-26T19:35:14-0400
_audit_creation_method            fapswitch 2.2
_symmetry_space_group_name_H-M    P1
_symmetry_Int_Tables_number       1
_space_group_crystal_system       triclinic
_cell_length_a                    10.77258
_cell_length_b                    10.820125
_cell_length_c                    9.554517
_cell_angle_alpha                 89.964332
_cell_angle_beta                  89.99663
_cell_angle_gamma                 89.806578
_cell_volume                      1113.67426472

loop_
_atom_site_label
_atom_site_type_symbol
_atom_type_description
_atom_site_fract_x
_atom_site_fract_y
_atom_site_fract_z
_atom_type_partial_charge
C1    C     C_R   0.502520 0.262353 0.499976 0.548264
C2    C     C_R   0.529276 0.935608 0.373245 -0.159848
C3    C     C_R   0.515049 0.870774 0.499806 0.003932
C4    C     C_R   0.262570 0.503234 0.500035 0.538502
C5    C     C_R   0.519102 0.936388 0.625555 0.009731
C6    C     C_3   0.435353 0.930771 0.750131 -0.268255
C7    C     C_3   0.435359 0.071027 0.749619 -0.266082
C8    C     C_R   0.605239 0.528156 0.073617 0.163485
C9    C     C_R   0.400047 0.459545 0.074319 -0.015885
C10   C     C_R   0.399996 0.459646 0.925670 -0.018249
C11   C     C_R   0.605524 0.527482 0.926468 0.165040
C12   C     C_R   0.064902 0.609612 0.565183 0.025786
C13   C     C_3   0.678321 0.644262 0.920404 -0.283794
C14   C     C_3   0.676603 0.645738 0.079359 -0.275511
C15   C     C_R   0.502297 0.737684 0.499968 0.531856
C16   C     C_R   0.737356 0.502904 0.499827 0.536659
C17   C     C_R   0.128182 0.709647 0.627671 -0.108583
C18   C     C_R   0.062506 0.807703 0.687316 -0.124886
C19   C     C_R   0.933383 0.808899 0.684075 -0.127076
C20   C     C_R   0.869137 0.711767 0.621871 -0.119307
C21   C     C_R   0.933683 0.610192 0.563490 0.022657
C22   C     C_R   0.128761 0.510774 0.499884 0.002460
C23   C     C_R   0.064380 0.417374 0.430605 -0.158861
C24   C     C_R   0.936245 0.417202 0.430552 -0.155417
C25   C     C_R   0.870965 0.510849 0.499037 0.002202
C26   C     C_R   0.519037 0.063631 0.625317 0.023384
C27   C     C_R   0.515426 0.129252 0.499638 0.007017
C28   C     C_R   0.529613 0.064403 0.373153 -0.163700
Cu1   Cu    Cu3+1 0.499990 0.499980 0.640670 0.925096
Cu2   Cu    Cu3+1 0.500010 0.500020 0.359330 0.929983
H1    H     H_    0.113757 0.342795 0.378921 0.116878
H2    H     H_    0.621566 0.723486 0.123465 0.140024
H3    H     H_    0.228358 0.714094 0.629032 0.130504
H4    H     H_    0.882740 0.885869 0.728905 0.113824
H5    H     H_    0.768975 0.717895 0.618757 0.129105
H6    H     H_    0.887585 0.342382 0.379073 0.122616
H7    H     H_    0.534526 0.112458 0.273838 0.135371
H8    H     H_    0.533712 0.887687 0.273976 0.127711
H9    H     H_    0.343311 0.890463 0.725473 0.129588
H10   H     H_    0.111898 0.883876 0.734731 0.104742
H11   H     H_    0.482147 0.890890 0.843451 0.130313
H12   H     H_    0.343232 0.112088 0.724393 0.134226
H13   H     H_    0.482694 0.111578 0.842136 0.139465
H14   H     H_    0.318414 0.428057 0.129353 0.121413
H15   H     H_    0.318318 0.428289 0.870689 0.122920
H16   H     H_    0.772787 0.628719 0.877255 0.139221
H17   H     H_    0.625961 0.721843 0.872095 0.141969
H18   H     H_    0.770027 0.632671 0.126615 0.136054
N1    N     N_R   0.500790 0.500930 0.147930 -0.231919
N2    N     N_R   0.500790 0.500890 0.852020 -0.231857
O1    O     O_R   0.500000 0.319640 0.618810 -0.494397
O2    O     O_R   0.500010 0.319680 0.381230 -0.507430
O3    O     O_R   0.319640 0.499980 0.618820 -0.515156
O4    O     O_R   0.319650 0.500020 0.381230 -0.505538
O5    O     O_R   0.499990 0.680320 0.618770 -0.511972
O6    O     O_R   0.500000 0.680360 0.381190 -0.504278
O7    O     O_R   0.680350 0.499980 0.618770 -0.502667
O8    O     O_R   0.680360 0.500020 0.381180 -0.501334

loop_
_geom_bond_atom_site_label_1
_geom_bond_atom_site_label_2
_ccdc_geom_bond_type
C12   C17   A    
C8    C14   S    
C23   C24   A    
C6    C7    S    
C16   C25   S    
C7    H13   S    
C4    O3    A    
Cu1   Cu2   S    
C4    C22   S    
C9    C10   A    
C2    H8    S    
C19   C20   A    
C1    O1    A    
C16   O7    A    
C15   O6    A    
C3    C5    A    
C10   H15   S    
C17   C18   A    
C3    C15   S    
C11   N2    A    
C16   O8    A    
C13   C14   S    
C24   C25   A    
Cu2   O4    S    
C26   C27   A    
C24   H6    S    
C7    C26   S    
C17   H3    S    
C28   H7    S    
C8    C11   A    
C21   C25   A    
Cu2   O8    S    
Cu2   N1    S    
Cu1   O7    S    
C2    C3    A    
Cu1   N2    S    
C22   C23   A    
C15   O5    A    
C5    C6    S    
C1    O2    A    
C8    N1    A    
C2    C28   A    
C5    C26   A    
C10   N2    A    
C12   C22   A    
C11   C13   S    
C9    N1    A    
C20   C21   A    
C13   H17   S    
C18   C19   A    
Cu1   O1    S    
C7    H12   S    
C27   C28   A    
C1    C27   S    
C18   H10   S    
C13   H16   S    
C9    H14   S    
C14   H18   S    
Cu1   O5    S    
C4    O4    A    
C6    H9    S    
C20   H5    S    
Cu2   O6    S    
C12   C21   A    
C19   H4    S    
C14   H2    S    
Cu2   O2    S    
Cu1   O3    S    
C6    H11   S    
C23   H1    S    
