data_mof_unit_55681.cif
_audit_creation_date              2012-12-10T18:47:06-0500
_audit_creation_method            fapswitch 2.2
_symmetry_space_group_name_H-M    P1
_symmetry_Int_Tables_number       1
_space_group_crystal_system       triclinic
_cell_length_a                    10.817294
_cell_length_b                    9.816604
_cell_length_c                    14.922966
_cell_angle_alpha                 89.669124
_cell_angle_beta                  90.070497
_cell_angle_gamma                 91.320375
_cell_volume                      1584.20807132

loop_
_atom_site_label
_atom_site_type_symbol
_atom_type_description
_atom_site_fract_x
_atom_site_fract_y
_atom_site_fract_z
_atom_type_partial_charge
C1    C     C_R   0.259462 0.497916 0.496369 0.966045
C2    C     C_R   0.125655 0.493608 0.494339 -0.187167
C3    C     C_R   0.546523 0.072550 0.571213 -0.045346
C4    C     C_R   0.453785 0.927487 0.428706 -0.030925
C5    C     C_R   0.453804 0.071433 0.428670 -0.027548
C6    C     C_R   0.546835 0.928576 0.571124 -0.020541
C7    C     C_R   0.497315 0.499638 0.326622 0.951013
C8    C     C_R   0.502372 0.499869 0.673325 0.985011
C9    C     C_R   0.615300 0.529746 0.815109 -0.055205
C10   C     C_R   0.398006 0.438026 0.184565 -0.063508
C11   C     C_R   0.504882 0.496904 0.769743 -0.225853
C12   C     C_R   0.739936 0.502104 0.506882 0.986052
C13   C     C_R   0.500805 0.493872 0.230152 -0.212840
C14   C     C_R   0.398972 0.449858 0.815315 -0.054032
C15   C     C_R   0.613422 0.521730 0.186425 -0.079876
C16   C     C_R   0.408096 0.415211 0.906428 0.011282
C17   C     C_R   0.624459 0.493149 0.094297 0.003311
C18   C     C_R   0.517549 0.451724 0.953259 0.056162
C19   C     C_R   0.517424 0.449236 0.046969 0.071734
C20   C     C_R   0.624763 0.497877 0.907008 0.014325
C21   C     C_R   0.408615 0.407424 0.092914 0.008833
C22   C     C_R   0.313625 0.339244 0.951427 -0.086792
C23   C     C_R   0.315425 0.332803 0.045834 -0.096488
C24   C     C_R   0.739223 0.501537 0.047988 -0.126499
C25   C     C_2   0.710858 0.618045 0.770460 0.910225
C26   C     C_2   0.275300 0.431306 0.229536 0.914901
C27   C     C_2   0.275707 0.466831 0.772803 0.896651
C28   C     C_2   0.715089 0.590518 0.236483 0.930449
C29   C     C_2   0.227348 0.249606 0.899380 0.952227
C30   C     C_2   0.857473 0.483103 0.096961 0.983113
C31   C     C_2   0.236326 0.230478 0.094390 0.940051
C32   C     C_2   0.856888 0.487018 0.903709 0.965403
C33   C     C_2   0.119227 0.246563 0.549561 1.065555
C34   C     C_R   0.739214 0.503593 0.953521 -0.094134
C35   C     C_2   0.882823 0.760880 0.480489 1.028539
C36   C     C_2   0.864875 0.274626 0.591824 0.968896
C37   C     C_2   0.129023 0.724624 0.417215 0.995809
C38   C     C_R   0.059519 0.378568 0.529663 -0.110407
C39   C     C_R   0.940423 0.625314 0.489580 -0.143103
C40   C     C_R   0.933180 0.388179 0.544963 -0.098992
C41   C     C_R   0.064724 0.613697 0.469205 -0.119218
C42   C     C_R   0.872978 0.507550 0.517910 -0.122494
H1    H     H_    0.815794 0.790368 0.775353 0.376136
H2    H     H_    0.828986 0.913104 0.399103 0.374795
H3    H     H_    0.822012 0.074177 0.598326 0.364150
H4    H     H_    0.227728 0.776587 0.307159 0.348525
H5    H     H_    0.583749 0.127507 0.628122 0.175053
H6    H     H_    0.417045 0.872608 0.371691 0.150209
H7    H     H_    0.416331 0.125415 0.371791 0.198154
H8    H     H_    0.584736 0.874560 0.627846 0.167845
H9    H     H_    0.168052 0.349584 0.326974 0.360178
H10   H     H_    0.108448 0.551648 0.779843 0.363882
H11   H     H_    0.855998 0.569805 0.322662 0.355985
H12   H     H_    0.207743 0.107009 0.803304 0.385958
H13   H     H_    0.954661 0.366486 0.182136 0.391404
H14   H     H_    0.229023 0.075233 0.183597 0.368630
H15   H     H_    0.947983 0.382208 0.809429 0.380886
H16   H     H_    0.204518 0.082519 0.501359 0.369629
N1    N     N_R   0.500000 0.857200 0.500000 -0.098709
N2    N     N_R   0.500000 0.142800 0.500000 -0.101246
O1    O     O_R   0.316770 0.614620 0.499990 -0.621482
O2    O     O_R   0.750440 0.739008 0.811613 -0.755875
O3    O     O_2   0.189181 0.493897 0.197529 -0.543091
O4    O     O_R   0.256924 0.349729 0.305525 -0.774181
O5    O     O_2   0.254071 0.420603 0.698601 -0.622565
O6    O     O_R   0.185376 0.539529 0.817634 -0.731014
O7    O     O_2   0.744794 0.708395 0.218355 -0.533119
O8    O     O_R   0.779633 0.518047 0.301422 -0.795682
O9    O     O_2   0.115696 0.255582 0.910329 -0.526556
O10   O     O_R   0.274901 0.161490 0.835422 -0.766263
O11   O     O_2   0.938917 0.571463 0.094162 -0.479238
O12   O     O_R   0.683230 0.385380 0.500010 -0.611292
O13   O     O_R   0.873025 0.365608 0.148728 -0.725897
O14   O     O_2   0.124013 0.229153 0.085482 -0.526921
O15   O     O_R   0.291596 0.138247 0.152963 -0.778088
O16   O     O_2   0.943862 0.566742 0.914956 -0.513329
O17   O     O_R   0.865792 0.381285 0.841884 -0.719739
O18   O     O_2   0.123672 0.203515 0.626538 -0.576044
O19   O     O_R   0.165322 0.169250 0.479299 -0.746008
O20   O     O_2   0.846662 0.818808 0.547498 -0.596066
O21   O     O_R   0.870149 0.821496 0.396077 -0.751505
O22   O     O_2   0.801207 0.298869 0.657196 -0.574344
O23   O     O_R   0.683230 0.614620 0.500010 -0.605432
O24   O     O_R   0.871749 0.141255 0.560218 -0.764228
O25   O     O_2   0.130616 0.841756 0.444627 -0.606425
O26   O     O_R   0.189548 0.693257 0.337614 -0.769679
O27   O     O_R   0.316770 0.385380 0.499990 -0.579398
O28   O     O_R   0.499980 0.614680 0.367850 -0.630198
O29   O     O_R   0.500020 0.385320 0.632150 -0.581279
O30   O     O_R   0.500020 0.614680 0.632150 -0.633369
O31   O     O_R   0.499980 0.385320 0.367850 -0.577240
O32   O     O_2   0.755381 0.585055 0.698933 -0.611845
Zn1   Zn    Zn3+2 0.500000 0.653120 0.500000 1.027248
Zn2   Zn    Zn3+2 0.500000 0.346880 0.500000 1.064056

loop_
_geom_bond_atom_site_label_1
_geom_bond_atom_site_label_2
_ccdc_geom_bond_type
C1    O27   A    
C22   C29   S    
C3    C6    A    
C30   O11   D    
C35   O21   S    
C9    C25   S    
C39   C41   A    
C37   O25   D    
C28   O8    S    
C18   C19   A    
C11   C14   A    
O1    Zn1   S    
C33   O18   D    
C2    C41   A    
O23   Zn1   S    
O27   Zn2   S    
C35   O20   D    
C1    C2    S    
O29   Zn2   S    
H11   O8    S    
C26   O4    S    
C12   C42   S    
C32   O17   S    
C36   O22   D    
C14   C27   S    
O12   Zn2   S    
C3    N2    A    
C10   C26   S    
C40   C42   A    
C12   O12   A    
H14   O15   S    
C5    H7    S    
C39   C42   A    
C29   O9    D    
C10   C21   A    
C17   C24   A    
H15   O17   S    
C37   O26   S    
C36   C40   S    
C28   O7    D    
H2    O21   S    
C30   O13   S    
C33   O19   S    
C31   O14   D    
C24   C34   A    
C12   O23   A    
C32   C34   S    
C35   C39   S    
C26   O3    D    
C27   O5    D    
C2    C38   A    
C9    C20   A    
C31   O15   S    
C7    O28   A    
H12   O10   S    
C7    O31   A    
C6    H8    S    
C9    C11   A    
H16   O19   S    
C13   C15   A    
C14   C16   A    
H3    O24   S    
C8    O30   A    
H10   O6    S    
O30   Zn1   S    
C29   O10   S    
C4    H6    S    
C15   C17   A    
O28   Zn1   S    
C25   O32   D    
C16   C22   A    
C5    N2    A    
C19   C21   A    
C6    N1    A    
H9    O4    S    
C4    C5    A    
C10   C13   A    
C1    O1    A    
C32   O16   D    
C33   C38   S    
C21   C23   A    
C20   C34   A    
C27   O6    S    
O31   Zn2   S    
C38   C40   A    
C15   C28   S    
C36   O24   S    
C8    C11   S    
C4    N1    A    
C3    H5    S    
C17   C19   A    
C18   C20   A    
C25   O2    S    
C37   C41   S    
C24   C30   S    
H13   O13   S    
C7    C13   S    
C16   C18   A    
C22   C23   A    
C8    O29   A    
N1    Zn1   S    
H1    O2    S    
C23   C31   S    
H4    O26   S    
N2    Zn2   S    
