data_mof_unit_54657.cif
_audit_creation_date              2012-12-10T18:19:08-0500
_audit_creation_method            fapswitch 2.2
_symmetry_space_group_name_H-M    P1
_symmetry_Int_Tables_number       1
_space_group_crystal_system       triclinic
_cell_length_a                    14.915986
_cell_length_b                    14.165272
_cell_length_c                    11.517799
_cell_angle_alpha                 90.136651
_cell_angle_beta                  90.669314
_cell_angle_gamma                 90.265167
_cell_volume                      2433.38487479

loop_
_atom_site_label
_atom_site_type_symbol
_atom_type_description
_atom_site_fract_x
_atom_site_fract_y
_atom_site_fract_z
_atom_type_partial_charge
C1    C     C_R   0.327215 0.499642 0.498211 0.913678
C2    C     C_R   0.672680 0.500222 0.504035 0.907958
C3    C     C_R   0.903256 0.492522 0.399248 0.103433
C4    C     C_R   0.096733 0.530509 0.598166 0.103474
C5    C     C_R   0.961547 0.560828 0.705840 -0.028850
C6    C     C_R   0.038445 0.479518 0.286729 -0.035955
C7    C     C_R   0.054585 0.557103 0.700313 -0.254503
C8    C     C_R   0.945462 0.478966 0.293341 -0.245996
C9    C     C_R   0.577392 0.800090 0.475218 0.449772
C10   C     C_R   0.430348 0.201507 0.549848 0.455914
C11   C     C_R   0.422626 0.799929 0.522601 0.450489
C12   C     C_R   0.568900 0.201917 0.448834 0.456561
C13   C     C_R   0.424254 0.900034 0.534888 -0.090197
C14   C     C_R   0.573635 0.101803 0.456528 -0.097571
C15   C     C_R   0.576273 0.900607 0.465574 -0.092389
C16   C     C_R   0.426359 0.101181 0.543875 -0.095267
C17   C     C_R   0.500636 0.950591 0.501660 0.021437
C18   C     C_R   0.500447 0.051285 0.501367 0.028350
C19   C     C_R   0.349114 0.950729 0.573378 -0.154564
C20   C     C_R   0.648532 0.050998 0.418136 -0.172237
C21   C     C_R   0.649718 0.952180 0.422286 -0.161238
C22   C     C_R   0.350415 0.049620 0.578781 -0.169908
C23   C     C_R   0.501438 0.499951 0.282116 0.931776
C24   C     C_R   0.498466 0.500018 0.717874 0.912231
C25   C     C_1   0.501157 0.499815 0.161579 -0.166697
C26   C     C_1   0.497470 0.499879 0.838366 -0.178454
C27   C     C_1   0.499850 0.499642 0.059316 0.009497
C28   C     C_1   0.498060 0.499656 0.940631 0.001035
C29   C     C_R   0.811041 0.491173 0.402692 -0.231585
C30   C     C_R   0.189096 0.528433 0.595293 -0.251790
C31   C     C_R   0.768135 0.501543 0.507664 -0.123118
C32   C     C_R   0.231681 0.499274 0.495314 -0.123842
C33   C     C_R   0.815466 0.516594 0.612333 -0.088218
C34   C     C_R   0.183744 0.472014 0.394909 -0.082002
C35   C     C_R   0.909315 0.530129 0.608306 -0.030283
C36   C     C_R   0.090309 0.486995 0.390986 -0.032161
C37   C     C_R   0.953103 0.511265 0.501459 0.057063
C38   C     C_R   0.046697 0.509982 0.496651 0.059687
H1    H     H_    0.772100 0.481162 0.323508 0.139797
H2    H     H_    0.228449 0.547856 0.671710 0.152666
H3    H     H_    0.094763 0.578536 0.775121 0.182779
H4    H     H_    0.905430 0.471155 0.214533 0.185792
H5    H     H_    0.289071 0.914057 0.600323 0.181565
H6    H     H_    0.706980 0.087384 0.385416 0.179072
H7    H     H_    0.708335 0.916435 0.390163 0.179569
H8    H     H_    0.290863 0.085429 0.608224 0.178950
N1    N     N_R   0.500000 0.750030 0.500000 -0.183308
N2    N     N_R   0.500000 0.249970 0.500000 -0.181071
O1    O     O_R   0.367850 0.580280 0.500030 -0.575607
O2    O     O_R   0.632150 0.419720 0.499970 -0.566560
O3    O     O_R   0.632150 0.580280 0.499970 -0.565576
O4    O     O_R   0.367850 0.419720 0.500030 -0.561732
O5    O     O_R   0.500010 0.580270 0.334450 -0.602129
O6    O     O_R   0.499990 0.419730 0.665550 -0.626076
O7    O     O_R   0.499990 0.580270 0.665550 -0.587431
O8    O     O_R   0.500010 0.419730 0.334450 -0.614456
Zn1   Zn    Zn3+2 0.500000 0.607200 0.500000 1.028405
Zn2   Zn    Zn3+2 0.500000 0.392800 0.500000 1.023065
C39   C     C_2   0.767986 0.505870 0.724012 0.905983
O9    O     O_2   0.792273 0.445491 0.793122 -0.602968
O10   O     O_R   0.697453 0.566044 0.751327 -0.810382
H9    H     H_    0.675689 0.556350 0.833443 0.344558
C40   C     C_2   0.229782 0.418094 0.302639 0.945732
O11   O     O_2   0.201744 0.339955 0.274491 -0.608670
O12   O     O_R   0.303956 0.456827 0.247191 -0.804728
H10   H     H_    0.327696 0.413709 0.184374 0.337547
C41   C     C_2   0.923996 0.607441 0.809815 0.940967
O13   O     O_2   0.866637 0.668276 0.798821 -0.640743
O14   O     O_R   0.957753 0.585175 0.920092 -0.775399
H11   H     H_    0.927750 0.622268 0.984099 0.348924
C42   C     C_2   0.076739 0.483479 0.168554 0.952761
O15   O     O_2   0.135783 0.540674 0.146538 -0.617350
O16   O     O_R   0.042183 0.424755 0.080967 -0.752268
H12   H     H_    0.073068 0.434546 0.003936 0.366158
O17   O     O_3   0.655835 0.752567 0.451831 -0.585518
C43   C     C_3   0.717640 0.765252 0.545453 0.134194
H13   H     H_    0.705103 0.711476 0.613173 0.226400
H14   H     H_    0.713857 0.835659 0.588535 0.122452
C44   C     C_3   0.812802 0.753773 0.501233 -0.800678
H15   H     H_    0.830538 0.813598 0.443752 0.234058
H16   H     H_    0.860890 0.752324 0.575494 0.241165
H17   H     H_    0.818787 0.687338 0.451138 0.269686
O18   O     O_3   0.361448 0.251657 0.599652 -0.570732
C45   C     C_3   0.372092 0.249953 0.721797 0.106114
H18   H     H_    0.441631 0.268982 0.749653 0.151952
H19   H     H_    0.356171 0.178878 0.756834 0.125941
C46   C     C_3   0.307809 0.320380 0.775475 -0.759112
H20   H     H_    0.237550 0.301227 0.752304 0.259160
H21   H     H_    0.315680 0.319959 0.871469 0.206566
H22   H     H_    0.322108 0.392593 0.743192 0.241491
O19   O     O_3   0.341027 0.753895 0.527790 -0.583525
C47   C     C_3   0.295781 0.764672 0.419314 0.125770
H23   H     H_    0.315780 0.707210 0.359203 0.189150
H24   H     H_    0.309855 0.833271 0.375375 0.118154
C48   C     C_3   0.194930 0.759599 0.436849 -0.800577
H25   H     H_    0.172994 0.818507 0.493372 0.241417
H26   H     H_    0.159670 0.764950 0.351688 0.225021
H27   H     H_    0.176157 0.691971 0.477662 0.270830
O20   O     O_3   0.634062 0.252164 0.390747 -0.571838
C49   C     C_3   0.616996 0.244808 0.269881 0.104390
H28   H     H_    0.546358 0.263110 0.247231 0.151672
H29   H     H_    0.630193 0.172156 0.237940 0.128469
C50   C     C_3   0.678771 0.311916 0.205605 -0.767567
H30   H     H_    0.749877 0.296254 0.227481 0.262092
H31   H     H_    0.668293 0.303835 0.110479 0.214836
H32   H     H_    0.663849 0.385844 0.230090 0.235205

loop_
_geom_bond_atom_site_label_1
_geom_bond_atom_site_label_2
_ccdc_geom_bond_type
C46   H20   S    
C40   O12   S    
O16   H12   S    
C14   C18   A    
C11   N1    A    
C48   H25   S    
C45   C46   S    
C5    C41   S    
C48   H27   S    
C23   O8    A    
C24   O7    A    
C43   H14   S    
C35   C37   A    
C24   C26   S    
C24   O6    A    
C10   O18   S    
O1    Zn1   S    
C3    C29   A    
C34   C40   S    
C12   O20   S    
C2    O2    A    
O18   C45   S    
C6    C36   A    
C31   C33   A    
O3    Zn1   S    
C12   N2    A    
C23   C25   S    
C39   O9    D    
C33   C39   S    
O10   H9    S    
C4    C7    A    
C49   H29   S    
C20   H6    S    
C19   H5    S    
C23   O5    A    
C21   H7    S    
C6    C42   S    
C39   O10   S    
C13   C19   A    
C41   O13   D    
O2    Zn2   S    
C14   C20   A    
C19   C22   A    
C45   H18   S    
C3    C8    A    
O19   C47   S    
C44   H16   S    
O5    Zn1   S    
C6    C8    A    
C47   C48   S    
C44   H15   S    
C2    C31   S    
C41   O14   S    
C32   C34   A    
C49   C50   S    
O17   C43   S    
C37   C38   A    
N1    Zn1   S    
O20   C49   S    
C29   H1    S    
C47   H24   S    
C17   C18   A    
C30   H2    S    
C50   H31   S    
C43   H13   S    
O4    Zn2   S    
C22   H8    S    
C12   C14   A    
C9    N1    A    
O7    Zn1   S    
C10   N2    A    
C1    C32   S    
C50   H30   S    
C5    C7    A    
O6    Zn2   S    
C15   C17   A    
C16   C22   A    
C8    H4    S    
C44   H17   S    
C48   H26   S    
N2    Zn2   S    
C25   C27   T    
C26   C28   T    
C13   C17   A    
C36   C38   A    
C9    C15   A    
C42   O15   D    
C29   C31   A    
C10   C16   A    
C30   C32   A    
C11   C13   A    
C5    C35   A    
C47   H23   S    
C33   C35   A    
O8    Zn2   S    
C50   H32   S    
C34   C36   A    
C7    H3    S    
O14   H11   S    
C1    O4    A    
C2    O3    A    
C40   O11   D    
C11   O19   S    
C15   C21   A    
C43   C44   S    
C20   C21   A    
C3    C37   A    
C16   C18   A    
O12   H10   S    
C46   H22   S    
C42   O16   S    
C27   C28   S    
C46   H21   S    
C45   H19   S    
C49   H28   S    
C9    O17   S    
C4    C38   A    
C1    O1    A    
C4    C30   A    
