data_mof_unit_29686.cif
_audit_creation_date              2012-12-11T14:21:08-0500
_audit_creation_method            fapswitch 2.2
_symmetry_space_group_name_H-M    P1
_symmetry_Int_Tables_number       1
_space_group_crystal_system       triclinic
_cell_length_a                    11.574479
_cell_length_b                    11.44046
_cell_length_c                    19.515322
_cell_angle_alpha                 89.479821
_cell_angle_beta                  89.224742
_cell_angle_gamma                 60.02761
_cell_volume                      2238.36413437

loop_
_atom_site_label
_atom_site_type_symbol
_atom_type_description
_atom_site_fract_x
_atom_site_fract_y
_atom_site_fract_z
_atom_type_partial_charge
C1    C     C_R   0.639993 0.117430 0.599290 0.572770
C2    C     C_1   0.602184 0.771212 0.676136 0.003558
C3    C     C_1   0.062772 0.236461 0.850891 0.004033
C4    C     C_1   0.133335 0.189820 0.721722 -0.021369
C5    C     C_1   0.093714 0.214374 0.791217 -0.024335
C6    C     C_1   0.174796 0.169630 0.663562 0.014028
C7    C     C_1   0.679249 0.191401 0.860712 0.008576
C8    C     C_1   0.658304 0.167357 0.728946 -0.025591
C9    C     C_1   0.666078 0.181033 0.800299 -0.025731
C10   C     C_1   0.652325 0.149859 0.668586 0.014285
C11   C     C_R   0.644662 0.668127 0.194515 0.044717
C12   C     C_R   0.578830 0.805120 0.605095 0.552810
C13   C     C_R   0.571330 0.626915 0.239081 0.006511
C14   C     C_R   0.601240 0.611486 0.308741 0.000719
C15   C     C_R   0.708002 0.747198 0.291767 -0.149528
C16   C     C_R   0.703645 0.737604 0.221291 0.096552
C17   C     C_R   0.463911 0.608491 0.218387 -0.064003
C18   C     C_R   0.403237 0.560895 0.263937 -0.151941
C19   C     C_R   0.450558 0.525252 0.330208 -0.114640
C20   C     C_R   0.552588 0.545598 0.351966 -0.063069
C21   C     C_R   0.659544 0.682239 0.335491 -0.023421
C22   C     C_R   0.145132 0.201579 0.193397 0.011257
C23   C     C_R   0.237698 0.146341 0.597448 0.570556
C24   C     C_R   0.120317 0.307549 0.239296 -0.003163
C25   C     C_R   0.204706 0.278766 0.294913 0.040942
C26   C     C_R   0.297427 0.038265 0.275318 -0.138167
C27   C     C_R   0.243522 0.068333 0.209361 0.124548
C28   C     C_R   0.018528 0.443348 0.229805 -0.073320
C29   C     C_R   0.025717 0.548482 0.260930 -0.102178
C30   C     C_R   0.125759 0.520776 0.306503 -0.138099
C31   C     C_R   0.214366 0.388033 0.323530 -0.079853
C32   C     C_R   0.271280 0.143115 0.320532 -0.031436
C33   C     C_R   0.723363 0.209725 0.206088 0.021228
C34   C     C_R   0.646216 0.115733 0.404083 0.573763
C35   C     C_R   0.832420 0.131512 0.251453 -0.005229
C36   C     C_R   0.804935 0.130866 0.322252 0.034843
C37   C     C_R   0.571365 0.224154 0.294123 -0.152654
C38   C     C_R   0.593709 0.253783 0.228669 -0.105232
C39   C     C_R   0.965449 0.044038 0.229424 -0.098044
C40   C     C_R   0.064907 0.966695 0.276497 -0.160506
C41   C     C_R   0.040738 0.991358 0.346054 -0.084170
C42   C     C_R   0.911821 0.078237 0.369428 0.178307
C43   C     C_R   0.673954 0.167506 0.341825 0.016271
C44   C     C_R   0.024145 0.264610 0.921611 0.553401
C45   C     C_R   0.619359 0.737183 0.403401 0.542912
C46   C     C_R   0.682951 0.607574 0.930249 0.555918
C47   C     C_R   0.708820 0.206720 0.930023 0.559330
C48   C     C_R   0.080976 0.237080 0.126326 0.570607
C49   C     C_R   0.678930 0.613284 0.125349 0.588616
C50   C     C_R   0.742322 0.235092 0.134348 0.536991
C51   C     C_R   0.307026 0.115507 0.393746 0.555561
C52   C     C_1   0.661072 0.668643 0.864023 0.011418
C53   C     C_1   0.621058 0.743926 0.736055 -0.026716
C54   C     C_1   0.642688 0.707897 0.805708 -0.023020
Cr1   Cr    Cr6+3 0.404720 0.198220 0.499960 1.019865
Cr2   Cr    Cr6+3 0.698290 0.897110 0.500380 1.057683
Cr3   Cr    Cr6+3 0.396970 0.904720 0.499610 1.040227
Cr4   Cr    Cr6+3 0.926180 0.151990 0.028120 1.075990
Cr5   Cr    Cr6+3 0.921330 0.451820 0.027470 1.063849
Cr6   Cr    Cr6+3 0.626260 0.446870 0.028710 1.045943
H1    H     H_    0.743188 0.811543 0.312121 0.167690
H2    H     H_    0.957331 0.651847 0.248543 0.167020
H3    H     H_    0.133539 0.602282 0.329593 0.117093
H4    H     H_    0.290346 0.374662 0.358964 0.135588
H5    H     H_    0.474219 0.239713 0.306372 0.114870
H6    H     H_    0.995009 0.025079 0.176627 0.202626
H7    H     H_    0.509943 0.301663 0.194158 0.152886
H8    H     H_    0.163324 0.891980 0.258931 0.158185
H9    H     H_    0.122125 0.942131 0.381761 0.163332
H10   H     H_    0.417222 0.639102 0.169052 0.194783
H11   H     H_    0.321527 0.548860 0.246781 0.123497
H12   H     H_    0.406475 0.485194 0.365539 0.109263
H13   H     H_    0.584898 0.521103 0.404607 0.146887
H14   H     H_    0.360882 0.934169 0.290747 0.147601
H15   H     H_    0.934784 0.469253 0.197550 0.151078
O1    O     O_R   0.267740 0.231960 0.575440 -0.497476
O2    O     O_R   0.685970 0.784660 0.430010 -0.500227
O3    O     O_R   0.502530 0.767000 0.423990 -0.524510
O4    O     O_R   0.288330 0.026350 0.429250 -0.477999
O5    O     O_3   0.499990 0.000020 0.499980 -0.307650
O6    O     O_R   0.821500 0.119340 0.952830 -0.495467
O7    O     O_R   0.037130 0.162530 0.957360 -0.469428
O8    O     O_R   0.056440 0.344740 0.951340 -0.484226
O9    O     O_R   0.797900 0.560360 0.957470 -0.501006
O10   O     O_R   0.596130 0.579390 0.952730 -0.489046
O11   O     O_R   0.639060 0.321160 0.958670 -0.487542
O12   O     O_R   0.527280 0.186640 0.570530 -0.496503
O13   O     O_R   0.821240 0.124200 0.104370 -0.483247
O14   O     O_R   0.036890 0.167040 0.097840 -0.494978
O15   O     O_R   0.056180 0.349610 0.102880 -0.510586
O16   O     O_R   0.797660 0.564870 0.097950 -0.487069
O17   O     O_R   0.595880 0.584250 0.104270 -0.526131
O18   O     O_R   0.638830 0.325670 0.099150 -0.495496
O19   O     O_3   0.824590 0.350230 0.028100 -0.320203
O20   O     O_R   0.728090 0.003450 0.576380 -0.480964
O21   O     O_R   0.682970 0.789190 0.570490 -0.483265
O22   O     O_R   0.499290 0.771880 0.575530 -0.495036
O23   O     O_R   0.285330 0.030870 0.569730 -0.491883
O24   O     O_R   0.270980 0.227080 0.423890 -0.513171
O25   O     O_R   0.530280 0.182120 0.430050 -0.535070
O26   O     O_R   0.731330 0.998570 0.424830 -0.481879
Br1   Br    Br    0.890773 0.131458 0.464129 -0.488489
Br2   Br    Br    0.759681 0.837178 0.163119 -0.487748
Br3   Br    Br    0.306945 0.926946 0.142626 -0.529270

loop_
_geom_bond_atom_site_label_1
_geom_bond_atom_site_label_2
_ccdc_geom_bond_type
C25   C31   A    
Cr2   O20   S    
C22   C48   S    
C26   C32   A    
C41   C42   A    
Cr3   O4    S    
C36   C42   A    
C35   C36   A    
C23   O1    A    
C44   O8    A    
C2    C12   S    
C53   C54   S    
Cr3   O3    S    
C26   C27   A    
C29   C30   A    
C14   C21   A    
C28   C29   A    
Cr5   O8    S    
Cr2   O26   S    
C44   O7    A    
Cr4   O7    S    
C30   C31   A    
Cr3   O23   S    
C15   C16   A    
C46   C52   S    
C27   Br3   S    
Cr2   O21   S    
C18   C19   A    
C1    O12   A    
C33   C35   A    
C19   C20   A    
C8    C9    S    
C37   H5    S    
Cr1   O25   S    
C34   O25   A    
C45   O3    A    
Cr5   O19   S    
C50   O13   A    
C46   O10   A    
Cr6   O18   S    
C25   C32   A    
C17   H10   S    
C48   O15   A    
C30   H3    S    
Cr3   O5    S    
C19   H12   S    
C49   O16   A    
C42   Br1   S    
C52   C54   T    
C21   C45   S    
Cr6   O17   S    
C51   O24   A    
C3    C44   S    
C34   O26   A    
C34   C43   S    
C47   O11   A    
C14   C20   A    
C24   C25   A    
C4    C6    T    
Cr4   O6    S    
C39   C40   A    
Cr6   O11   S    
C33   C50   S    
Cr2   O2    S    
Cr5   O15   S    
C7    C47   S    
C37   C43   A    
C35   C39   A    
C32   C51   S    
C37   C38   A    
C11   C49   S    
C11   C16   A    
C16   Br2   S    
C1    O20   A    
Cr3   O22   S    
C17   C18   A    
C15   H1    S    
Cr5   O16   S    
Cr5   O9    S    
C12   O22   A    
C46   O9    A    
Cr1   O1    S    
C40   C41   A    
C22   C27   A    
C39   H6    S    
C22   C24   A    
C49   O17   A    
C41   H9    S    
C18   H11   S    
C7    C9    T    
C29   H2    S    
C31   H4    S    
C1    C10   S    
C24   C28   A    
C4    C5    S    
C3    C5    T    
C2    C53   T    
Cr4   O13   S    
Cr6   O10   S    
C50   O18   A    
C33   C38   A    
Cr2   O5    S    
C13   C17   A    
C48   O14   A    
Cr4   O19   S    
Cr1   O5    S    
C11   C13   A    
C6    C23   S    
C26   H14   S    
C20   H13   S    
C47   O6    A    
Cr1   O12   S    
Cr4   O14   S    
C51   O4    A    
C15   C21   A    
C23   O23   A    
C38   H7    S    
C8    C10   T    
C40   H8    S    
Cr1   O24   S    
C12   O21   A    
C36   C43   A    
C45   O2    A    
C13   C14   A    
C28   H15   S    
Cr6   O19   S    
