data_mof_unit_62665.cif
_audit_creation_date              2013-03-05T16:46:38-0500
_audit_creation_method            fapswitch 2.2
_symmetry_space_group_name_H-M    P1
_symmetry_Int_Tables_number       1
_space_group_crystal_system       triclinic
_cell_length_a                    26.409647
_cell_length_b                    33.006415
_cell_length_c                    21.129676
_cell_angle_alpha                 89.999364
_cell_angle_beta                  128.618168
_cell_angle_gamma                 89.999761
_cell_volume                      14390.7748961

loop_
_atom_site_label
_atom_site_type_symbol
_atom_site_description
_atom_site_fract_x
_atom_site_fract_y
_atom_site_fract_z
_atom_type_partial_charge
Zn1   Zn    Zn3+2 0.574840 0.281480 0.562930 1.032948
Zn2   Zn    Zn3+2 0.425160 0.718520 0.437070 0.987072
Zn3   Zn    Zn3+2 0.425160 0.281480 0.437070 1.032572
Zn4   Zn    Zn3+2 0.574840 0.718520 0.562930 0.987092
Zn5   Zn    Zn3+2 0.074840 0.781480 0.562930 1.032695
Zn6   Zn    Zn3+2 0.925160 0.218520 0.437070 0.987132
Zn7   Zn    Zn3+2 0.925160 0.781480 0.437070 1.032943
Zn8   Zn    Zn3+2 0.074840 0.218520 0.562930 0.987114
Zn9   Zn    Zn3+2 0.511910 0.218550 0.437070 1.013700
Zn10  Zn    Zn3+2 0.488090 0.781450 0.562930 1.016485
Zn11  Zn    Zn3+2 0.488090 0.218550 0.562930 1.012449
Zn12  Zn    Zn3+2 0.511910 0.781450 0.437070 1.016794
Zn13  Zn    Zn3+2 0.011910 0.718550 0.437070 1.012926
Zn14  Zn    Zn3+2 0.988090 0.281450 0.562930 1.016808
Zn15  Zn    Zn3+2 0.988090 0.718550 0.562930 1.013663
Zn16  Zn    Zn3+2 0.011910 0.281450 0.437070 1.016190
O1    O     O_3   0.500000 0.250010 0.500000 -0.453962
O2    O     O_3   0.500000 0.749990 0.500000 -0.452571
O3    O     O_3   0.000000 0.750010 0.500000 -0.454009
O4    O     O_3   0.000000 0.249990 0.500000 -0.452536
O5    O     O_R   0.491650 0.166000 0.544070 -0.639124
O6    O     O_R   0.508350 0.834000 0.455930 -0.626280
O7    O     O_R   0.508350 0.166000 0.455930 -0.639511
O8    O     O_R   0.491650 0.834000 0.544070 -0.626718
O9    O     O_R   0.991650 0.666000 0.544070 -0.639437
O10   O     O_R   0.008350 0.334000 0.455930 -0.626987
O11   O     O_R   0.008350 0.666000 0.455930 -0.639212
O12   O     O_R   0.991650 0.334000 0.544070 -0.626217
O13   O     O_R   0.552380 0.334020 0.544040 -0.618888
O14   O     O_R   0.447620 0.665980 0.455960 -0.620950
O15   O     O_R   0.447620 0.334020 0.455960 -0.619095
O16   O     O_R   0.552380 0.665980 0.544040 -0.620943
O17   O     O_R   0.052380 0.834020 0.544040 -0.619047
O18   O     O_R   0.947620 0.165980 0.455960 -0.620923
O19   O     O_R   0.947620 0.834020 0.455960 -0.618898
O20   O     O_R   0.052380 0.165980 0.544040 -0.620919
O21   O     O_R   0.593780 0.227990 0.455960 -0.618853
O22   O     O_R   0.406220 0.772010 0.544040 -0.585084
O23   O     O_R   0.406220 0.227990 0.544040 -0.618365
O24   O     O_R   0.593780 0.772010 0.455960 -0.585093
O25   O     O_R   0.093780 0.727990 0.455960 -0.618551
O26   O     O_R   0.906220 0.272010 0.544040 -0.585094
O27   O     O_R   0.906220 0.727990 0.544040 -0.618837
O28   O     O_R   0.093780 0.272010 0.455960 -0.585119
O29   O     O_R   0.362170 0.272040 0.455960 -0.650190
O30   O     O_R   0.637830 0.727960 0.544040 -0.658591
O31   O     O_R   0.637830 0.272040 0.544040 -0.649927
O32   O     O_R   0.362170 0.727960 0.455960 -0.658477
O33   O     O_R   0.862170 0.772040 0.455960 -0.649944
O34   O     O_R   0.137830 0.227960 0.544040 -0.658400
O35   O     O_R   0.137830 0.772040 0.544040 -0.650097
O36   O     O_R   0.862170 0.227960 0.455960 -0.658601
O37   O     O_R   0.446360 0.228000 0.332000 -0.626702
O38   O     O_R   0.553640 0.772000 0.668000 -0.615358
O39   O     O_R   0.553640 0.228000 0.668000 -0.628033
O40   O     O_R   0.446360 0.772000 0.332000 -0.615335
O41   O     O_R   0.946360 0.728000 0.332000 -0.627559
O42   O     O_R   0.053640 0.272000 0.668000 -0.615327
O43   O     O_R   0.053640 0.728000 0.668000 -0.626780
O44   O     O_R   0.946360 0.272000 0.332000 -0.615403
O45   O     O_R   0.385640 0.272040 0.331990 -0.621917
O46   O     O_R   0.614360 0.727960 0.668010 -0.631382
O47   O     O_R   0.614360 0.272040 0.668010 -0.621402
O48   O     O_R   0.385640 0.727960 0.331990 -0.631494
O49   O     O_R   0.885640 0.772040 0.331990 -0.621536
O50   O     O_R   0.114360 0.227960 0.668010 -0.631532
O51   O     O_R   0.114360 0.772040 0.668010 -0.621844
O52   O     O_R   0.885640 0.227960 0.331990 -0.631326
C1    C     C_R   0.500002 0.145573 0.500002 0.814128
C2    C     C_R   0.499999 0.854425 0.499999 0.784001
C3    C     C_R   0.999999 0.645573 0.499999 0.813947
C4    C     C_R   0.000001 0.354425 0.500001 0.784107
C5    C     C_R   0.499999 0.354439 0.499998 0.847163
C6    C     C_R   0.499999 0.645558 0.500000 0.826871
C7    C     C_R   0.000000 0.854439 0.500001 0.846844
C8    C     C_R   0.000002 0.145558 0.499999 0.826862
C9    C     C_R   0.640965 0.249984 0.499565 0.942571
C10   C     C_R   0.359178 0.749630 0.500556 0.891233
C11   C     C_R   0.359081 0.250031 0.500529 0.941746
C12   C     C_R   0.640820 0.749632 0.499441 0.891461
C13   C     C_R   0.140935 0.750014 0.499505 0.942035
C14   C     C_R   0.859180 0.249632 0.500558 0.891476
C15   C     C_R   0.859036 0.749986 0.500438 0.942535
C16   C     C_R   0.140825 0.249628 0.499445 0.891072
C17   C     C_R   0.395603 0.250026 0.291132 0.837743
C18   C     C_R   0.604419 0.749988 0.708870 0.810875
C19   C     C_R   0.604397 0.250025 0.708868 0.836659
C20   C     C_R   0.395581 0.749988 0.291130 0.810786
C21   C     C_R   0.895602 0.750025 0.291132 0.837100
C22   C     C_R   0.104419 0.249987 0.708870 0.810756
C23   C     C_R   0.104397 0.750026 0.708868 0.837733
C24   C     C_R   0.895581 0.249988 0.291130 0.810850
C25   C     C_1   0.649428 0.250013 0.799001 -0.142717
C26   C     C_1   0.350522 0.750008 0.200993 -0.148671
C27   C     C_1   0.350571 0.250015 0.200999 -0.142153
C28   C     C_1   0.649479 0.750007 0.799007 -0.148760
C29   C     C_1   0.149427 0.750015 0.799001 -0.142072
C30   C     C_1   0.850521 0.250008 0.200993 -0.148935
C31   C     C_1   0.850571 0.750014 0.200999 -0.142398
C32   C     C_1   0.149479 0.250007 0.799006 -0.148739
C33   C     C_1   0.686890 0.250011 0.873929 0.012120
C34   C     C_1   0.313039 0.750012 0.126063 0.009045
C35   C     C_1   0.313109 0.250014 0.126070 0.012318
C36   C     C_1   0.686962 0.750012 0.873937 0.009011
C37   C     C_1   0.186890 0.750013 0.873930 0.012394
C38   C     C_1   0.813038 0.250013 0.126063 0.008881
C39   C     C_1   0.813109 0.750012 0.126070 0.012292
C40   C     C_1   0.186962 0.250011 0.873936 0.008975
C41   C     C_1   0.731212 0.250012 0.962532 0.022518
C42   C     C_1   0.268704 0.750013 0.037461 0.021611
C43   C     C_1   0.268787 0.250013 0.037468 0.022595
C44   C     C_1   0.731297 0.750013 0.962539 0.021588
C45   C     C_1   0.231212 0.750013 0.962532 0.022668
C46   C     C_1   0.768703 0.250013 0.037460 0.021472
C47   C     C_1   0.768788 0.750013 0.037468 0.022639
C48   C     C_1   0.231296 0.250013 0.962539 0.021542
C49   C     C_1   0.499995 0.399498 0.499992 -0.174138
C50   C     C_1   0.499995 0.600498 0.500000 -0.165606
C51   C     C_1   0.000003 0.899497 0.500002 -0.174213
C52   C     C_1   0.000012 0.100498 0.499998 -0.165543
C53   C     C_1   0.499990 0.436961 0.499988 -0.025028
C54   C     C_1   0.499989 0.563032 0.499995 -0.031227
C55   C     C_1   0.000010 0.936961 0.500005 -0.025145
C56   C     C_1   0.000021 0.063032 0.500002 -0.030981
C57   C     C_1   0.499988 0.481262 0.499987 0.003591
C58   C     C_1   0.499987 0.518732 0.499990 -0.001003
C59   C     C_1   0.000017 0.981261 0.500007 0.003513
C60   C     C_1   0.000021 0.018731 0.500005 -0.000904
H1    H     H_    0.339236 0.424780 0.424222 0.154165
H2    H     H_    0.636429 0.574624 0.536411 0.155502
H3    H     H_    0.657191 0.425304 0.569193 0.154305
H4    H     H_    0.361165 0.574928 0.458701 0.155279
H5    H     H_    0.842696 0.925290 0.430599 0.154302
H6    H     H_    0.140594 0.075140 0.544800 0.155049
H7    H     H_    0.159401 0.924988 0.573267 0.154235
H8    H     H_    0.863717 0.074607 0.463882 0.155509
C61   C     C_R   0.367695 0.380332 0.515487 -0.181616
C62   C     C_R   0.635382 0.615600 0.456422 -0.214468
C63   C     C_R   0.629584 0.379942 0.479723 -0.182926
C64   C     C_R   0.362801 0.615358 0.539823 -0.213970
C65   C     C_R   0.870328 0.879955 0.520125 -0.182861
C66   C     C_R   0.138548 0.115154 0.462856 -0.213806
C67   C     C_R   0.131264 0.880190 0.482683 -0.181949
C68   C     C_R   0.864728 0.115613 0.543804 -0.214512
H9    H     H_    0.413608 0.395119 0.560309 0.171852
H10   H     H_    0.599871 0.597714 0.403395 0.184488
H11   H     H_    0.583283 0.394203 0.434416 0.171680
H12   H     H_    0.398142 0.597142 0.592369 0.184374
H13   H     H_    0.916616 0.894232 0.565418 0.171699
H14   H     H_    0.103375 0.096678 0.410685 0.184257
H15   H     H_    0.085201 0.894777 0.437673 0.171868
H16   H     H_    0.900248 0.097745 0.596858 0.184500
C69   C     C_R   0.350688 0.344834 0.535132 0.300936
C70   C     C_R   0.660307 0.651456 0.449167 0.337872
C71   C     C_R   0.647354 0.344309 0.461428 0.300137
C72   C     C_R   0.338338 0.651147 0.548057 0.337760
C73   C     C_R   0.852581 0.844325 0.538462 0.300163
C74   C     C_R   0.162648 0.150898 0.453887 0.337816
C75   C     C_R   0.148562 0.844638 0.463553 0.300592
C76   C     C_R   0.839775 0.151473 0.551001 0.337894
C77   C     C_R   0.290141 0.326092 0.474633 0.051310
C78   C     C_R   0.707017 0.674045 0.520255 0.078636
C79   C     C_R   0.708384 0.326261 0.522538 0.050374
C80   C     C_R   0.291858 0.674188 0.477586 0.079909
C81   C     C_R   0.791567 0.826256 0.477370 0.050408
C82   C     C_R   0.208910 0.174290 0.523890 0.080594
C83   C     C_R   0.209296 0.826160 0.524289 0.050932
C84   C     C_R   0.793052 0.174037 0.479877 0.078561
C85   C     C_R   0.248154 0.343886 0.397502 -0.092672
C86   C     C_R   0.726329 0.660465 0.595525 -0.161386
C87   C     C_R   0.750080 0.344868 0.598885 -0.092341
C88   C     C_R   0.272280 0.661097 0.401927 -0.161101
C89   C     C_R   0.749862 0.844839 0.400997 -0.092332
C90   C     C_R   0.228657 0.161567 0.599822 -0.161158
C91   C     C_R   0.251175 0.844266 0.601124 -0.092510
C92   C     C_R   0.773757 0.160430 0.404630 -0.161422
H17   H     H_    0.201988 0.329870 0.350679 0.168812
H18   H     H_    0.759862 0.678193 0.649769 0.130969
H19   H     H_    0.796610 0.331389 0.646169 0.169012
H20   H     H_    0.238943 0.679177 0.348162 0.130555
H21   H     H_    0.703344 0.831344 0.353726 0.169023
H22   H     H_    0.261829 0.179912 0.653222 0.130355
H23   H     H_    0.297482 0.830453 0.648126 0.168916
H24   H     H_    0.740213 0.178138 0.350358 0.130986
C93   C     C_R   0.265771 0.379325 0.379624 -0.147385
C94   C     C_R   0.701288 0.624712 0.601260 -0.098346
C95   C     C_R   0.731712 0.380435 0.615409 -0.147086
C96   C     C_R   0.296854 0.625398 0.395211 -0.098546
C97   C     C_R   0.768208 0.880403 0.384431 -0.147102
C98   C     C_R   0.204439 0.125909 0.607267 -0.098531
C99   C     C_R   0.233272 0.879755 0.618486 -0.147281
C100  C     C_R   0.798826 0.124674 0.398953 -0.098324
H25   H     H_    0.233184 0.392636 0.319871 0.148821
H26   H     H_    0.716499 0.614623 0.659544 0.139505
H27   H     H_    0.764085 0.394379 0.674572 0.148702
H28   H     H_    0.281453 0.615692 0.336640 0.139288
H29   H     H_    0.735829 0.894327 0.325249 0.148721
H30   H     H_    0.219955 0.116495 0.666038 0.139185
H31   H     H_    0.265779 0.893308 0.678016 0.148796
H32   H     H_    0.783628 0.114564 0.340686 0.139518
C101  C     C_R   0.325533 0.397405 0.438373 -0.160011
C102  C     C_R   0.656015 0.602274 0.531868 -0.170794
C103  C     C_R   0.671475 0.397830 0.556082 -0.159873
C104  C     C_R   0.341923 0.602528 0.464000 -0.169672
C105  C     C_R   0.828430 0.897818 0.443742 -0.159899
C106  C     C_R   0.159570 0.102705 0.538940 -0.169018
C107  C     C_R   0.173326 0.897574 0.559512 -0.159894
C108  C     C_R   0.844111 0.102260 0.468380 -0.170870
C109  C     C_R   0.217382 0.286561 0.488888 0.440302
C110  C     C_R   0.787961 0.714598 0.522567 0.466438
C111  C     C_R   0.781946 0.286632 0.509777 0.440463
C112  C     C_R   0.211490 0.714784 0.476330 0.466609
C113  C     C_R   0.718030 0.786630 0.490175 0.440466
C114  C     C_R   0.288858 0.214903 0.524363 0.466720
C115  C     C_R   0.282362 0.786591 0.510603 0.440400
C116  C     C_R   0.712074 0.214587 0.477504 0.466421
C117  C     C_R   0.197494 0.249913 0.501577 -0.231958
C118  C     C_R   0.805305 0.750735 0.504381 -0.198534
C119  C     C_R   0.802576 0.249873 0.498558 -0.231324
C120  C     C_R   0.194634 0.750795 0.495498 -0.199027
C121  C     C_R   0.697427 0.749875 0.501447 -0.231350
C122  C     C_R   0.305401 0.250833 0.504571 -0.199348
C123  C     C_R   0.302534 0.749899 0.498475 -0.231735
C124  C     C_R   0.694700 0.250731 0.495628 -0.198505
C125  C     C_R   0.232898 0.213909 0.518534 -0.114703
C126  C     C_R   0.771209 0.787082 0.490118 -0.099474
C127  C     C_R   0.768027 0.213682 0.483276 -0.114637
C128  C     C_R   0.229181 0.787050 0.510648 -0.099504
C129  C     C_R   0.732007 0.713690 0.516791 -0.114647
C130  C     C_R   0.270565 0.287025 0.488854 -0.099535
C131  C     C_R   0.267455 0.713822 0.482153 -0.114775
C132  C     C_R   0.728767 0.287083 0.509837 -0.099479
C133  C     C_1   0.500006 0.100504 0.500004 -0.160913
C134  C     C_1   0.500001 0.899489 0.500001 -0.174452
C135  C     C_1   0.999997 0.600505 0.499998 -0.161152
C136  C     C_1   0.000001 0.399489 0.499998 -0.174560
C137  C     C_1   0.500008 0.063034 0.500004 0.003268
C138  C     C_1   0.500004 0.936955 0.500003 0.000968
C139  C     C_1   0.999996 0.563034 0.499997 0.003212
C140  C     C_1   0.999999 0.436955 0.499996 0.000870
C141  C     C_1   0.500008 0.018729 0.500004 0.014023
C142  C     C_1   0.500006 0.981258 0.500004 0.013281
C143  C     C_1   0.999996 0.518729 0.499996 0.013968
C144  C     C_1   0.999998 0.481258 0.499996 0.013223
N1    N     N_R   0.395235 0.328387 0.615701 0.178533
O53   O     O_R   0.457036 0.335602 0.658937 -0.416317
O54   O     O_R   0.374301 0.309037 0.648973 -0.447697
N2    N     N_R   0.636439 0.664624 0.369756 0.199791
O55   O     O_R   0.580341 0.652111 0.305717 -0.388056
O56   O     O_R   0.671975 0.686549 0.359903 -0.372805
N3    N     N_R   0.603099 0.327033 0.381569 0.178712
O57   O     O_R   0.541131 0.333645 0.338271 -0.416761
O58   O     O_R   0.624389 0.307515 0.348882 -0.446884
N4    N     N_R   0.362433 0.663794 0.627826 0.199582
O59   O     O_R   0.418432 0.650917 0.691491 -0.388049
O60   O     O_R   0.327158 0.685581 0.638313 -0.373028
N5    N     N_R   0.896845 0.827075 0.618344 0.178707
O61   O     O_R   0.958808 0.833704 0.661642 -0.416724
O62   O     O_R   0.875564 0.807563 0.651050 -0.446897
N6    N     N_R   0.138414 0.163141 0.373858 0.199516
O63   O     O_R   0.082609 0.149872 0.310456 -0.388094
O64   O     O_R   0.173397 0.184957 0.362926 -0.373235
N7    N     N_R   0.104124 0.827875 0.383252 0.178615
O65   O     O_R   0.042257 0.834859 0.339991 -0.416409
O66   O     O_R   0.125194 0.808462 0.350201 -0.447360
N8    N     N_R   0.863628 0.164669 0.630390 0.199802
O67   O     O_R   0.919729 0.152173 0.694452 -0.388091
O68   O     O_R   0.828079 0.186605 0.640205 -0.372813
O69   O     O_3   0.182803 0.321895 0.472483 -0.595580
C145  C     C_3   0.208788 0.341682 0.546304 0.121600
H33   H     H_    0.260479 0.349939 0.578903 0.175843
H34   H     H_    0.204901 0.322300 0.586265 0.119658
C146  C     C_3   0.170990 0.380498 0.528606 -0.786855
H35   H     H_    0.119073 0.373393 0.496247 0.267132
H36   H     H_    0.190540 0.396209 0.586224 0.205816
H37   H     H_    0.175277 0.400924 0.490381 0.258580
O70   O     O_3   0.820275 0.678771 0.534562 -0.586954
C147  C     C_3   0.868496 0.672332 0.618703 0.117806
H38   H     H_    0.846612 0.665939 0.648402 0.125501
H39   H     H_    0.901217 0.698978 0.649307 0.168808
C148  C     C_3   0.909153 0.635814 0.631805 -0.754542
H40   H     H_    0.932638 0.641221 0.603669 0.277709
H41   H     H_    0.947295 0.630471 0.697683 0.196902
H42   H     H_    0.877989 0.608460 0.604150 0.251281
O71   O     O_3   0.815789 0.322122 0.524676 -0.595955
C149  C     C_3   0.789338 0.341141 0.450031 0.120907
H43   H     H_    0.737578 0.349231 0.417372 0.176211
H44   H     H_    0.793284 0.321278 0.410657 0.119563
C150  C     C_3   0.826603 0.379988 0.466028 -0.787502
H45   H     H_    0.878558 0.373027 0.498333 0.266107
H46   H     H_    0.806632 0.395119 0.407754 0.205954
H47   H     H_    0.822302 0.400868 0.503685 0.258990
O72   O     O_3   0.178575 0.679058 0.463104 -0.586598
C151  C     C_3   0.130174 0.673396 0.378747 0.118051
H48   H     H_    0.151902 0.667068 0.348836 0.125474
H49   H     H_    0.098127 0.700395 0.349073 0.168380
C152  C     C_3   0.088572 0.637183 0.364367 -0.753655
H50   H     H_    0.065171 0.642561 0.392617 0.278235
H51   H     H_    0.050337 0.632430 0.298309 0.196624
H52   H     H_    0.119027 0.609501 0.391112 0.251067
O73   O     O_3   0.684160 0.822116 0.475221 -0.595938
C153  C     C_3   0.710583 0.841157 0.549837 0.120938
H53   H     H_    0.762348 0.849243 0.582519 0.176193
H54   H     H_    0.706614 0.821311 0.589211 0.119563
C154  C     C_3   0.673311 0.880010 0.533774 -0.787493
H55   H     H_    0.621347 0.873055 0.501416 0.266174
H56   H     H_    0.693242 0.895150 0.592026 0.205944
H57   H     H_    0.677658 0.900880 0.496144 0.258948
O74   O     O_3   0.322137 0.179245 0.538332 -0.586373
C155  C     C_3   0.370645 0.174049 0.622802 0.118081
H58   H     H_    0.349017 0.167750 0.652844 0.125535
H59   H     H_    0.402273 0.201260 0.651909 0.168068
C156  C     C_3   0.412820 0.138033 0.637935 -0.753057
H60   H     H_    0.436196 0.143414 0.609654 0.278527
H61   H     H_    0.451085 0.133617 0.704091 0.196439
H62   H     H_    0.382796 0.110161 0.611696 0.250986
O75   O     O_3   0.316660 0.821986 0.526433 -0.595715
C157  C     C_3   0.290496 0.841481 0.452293 0.121272
H63   H     H_    0.238775 0.849669 0.419664 0.176021
H64   H     H_    0.294414 0.821916 0.412560 0.119617
C158  C     C_3   0.328082 0.880314 0.469341 -0.786886
H65   H     H_    0.380017 0.873269 0.501687 0.266712
H66   H     H_    0.308372 0.895804 0.411469 0.205903
H67   H     H_    0.323781 0.900913 0.507344 0.258784
O76   O     O_3   0.679801 0.178753 0.465591 -0.586973
C159  C     C_3   0.631591 0.172265 0.381465 0.117785
H68   H     H_    0.653484 0.165868 0.351779 0.125497
H69   H     H_    0.598825 0.198887 0.350802 0.168824
C160  C     C_3   0.590998 0.135728 0.368451 -0.754619
H70   H     H_    0.567516 0.141133 0.396591 0.277675
H71   H     H_    0.552857 0.130349 0.302587 0.196912
H72   H     H_    0.622208 0.108393 0.396158 0.251287

loop_
_geom_bond_atom_site_label_1
_geom_bond_atom_site_label_2
_geom_bond_distance
_ccdc_geom_bond_type
C160  H71   1.110454 S    
C111  O71   1.385274 S    
Zn5   O51   1.795414 S    
C84   C127  1.487773 S    
O73   C153  1.412203 S    
C148  H42   1.110735 S    
O49   C21   1.275168 A    
C74   C82   1.421583 A    
C86   H18   1.083208 S    
C91   H23   1.083363 S    
C140  C144  1.462287 S    
C146  H37   1.110779 S    
C94   C102  1.392690 A    
C92   H24   1.083206 S    
C115  C128  1.405163 A    
C133  C137  1.236754 T    
N4    O60   1.300672 A    
C113  C126  1.405278 A    
C114  C122  1.414272 A    
C12   C121  1.468909 S    
C98   C106  1.392700 A    
Zn2   O48   1.795415 S    
C159  H68   1.106821 S    
C68   C76   1.408330 A    
Zn16  O28   1.963176 S    
H2    C102  1.082435 S    
Zn4   O2    1.863575 S    
C62   C70   1.408329 A    
C67   H15   1.082591 S    
N1    O53   1.301527 A    
C135  C139  1.236754 T    
C66   C74   1.408367 A    
N2    O56   1.300656 A    
C153  H54   1.114027 S    
C155  H59   1.114169 S    
C82   C90   1.406419 A    
C111  C132  1.405288 A    
N7    O65   1.301527 A    
C25   C33   1.237007 T    
C15   C118  1.472674 S    
C71   N3    1.441071 S    
O22   C10   1.228205 A    
C13   C120  1.472715 S    
C4    C136  1.487394 S    
C69   C77   1.422035 A    
C116  O76   1.385957 S    
Zn12  O24   1.963175 S    
C116  C124  1.414136 A    
Zn16  O4    1.862068 S    
C159  C160  1.520297 S    
Zn1   O13   1.795240 S    
C61   C69   1.406952 A    
O43   C23   1.275213 A    
Zn3   O15   1.795254 S    
Zn4   O16   1.795253 S    
O45   C17   1.275164 A    
C64   C72   1.408322 A    
C65   C73   1.406934 A    
N3    O58   1.301147 A    
C21   C31   1.488011 S    
Zn7   O3    1.863579 S    
C28   C36   1.237024 T    
C145  H34   1.113987 S    
Zn8   O34   1.962806 S    
O11   C3    1.275396 A    
C11   C122  1.472720 S    
C36   C44   1.462757 S    
C97   H29   1.082312 S    
N7    O66   1.301146 A    
C149  C150  1.520427 S    
C51   C55   1.236539 T    
C30   C38   1.237026 T    
Zn10  O22   1.963181 S    
C109  C117  1.409502 A    
C149  H44   1.114032 S    
C62   C102  1.395486 A    
O33   C15   1.231692 A    
C83   C128  1.488023 S    
Zn6   O4    1.863604 S    
Zn10  O2    1.862081 S    
O52   C24   1.275102 A    
C110  C129  1.405115 A    
C75   C83   1.422021 A    
Zn3   O1    1.863579 S    
C66   C106  1.395507 A    
C78   C129  1.487779 S    
C152  H50   1.109165 S    
C26   C34   1.237026 T    
C158  H65   1.110068 S    
Zn5   O35   1.962805 S    
O37   C17   1.275212 A    
Zn6   O36   1.962799 S    
C118  C126  1.414965 A    
C76   N8    1.442715 S    
C95   C103  1.393747 A    
O27   C15   1.222939 A    
C40   C48   1.462757 S    
C90   H22   1.083209 S    
O40   C20   1.275328 A    
O8    C2    1.275351 A    
O46   C18   1.275100 A    
C8    C52   1.487279 S    
C37   C45   1.462747 S    
C64   C104  1.395503 A    
O16   C6    1.275579 A    
O14   C6    1.275540 A    
C156  H61   1.110476 S    
Zn13  O41   1.795977 S    
Zn12  O6    1.795240 S    
C141  C142  1.236770 T    
C50   C54   1.236605 T    
C1    C133  1.487550 S    
C157  H64   1.114003 S    
O17   C7    1.275501 A    
C73   N5    1.441072 S    
C14   C119  1.468913 S    
C154  H56   1.110424 S    
Zn5   O17   1.795240 S    
O9    C3    1.275391 A    
C3    C135  1.487546 S    
O35   C13   1.231717 A    
H1    C101  1.082512 S    
C76   C84   1.421621 A    
O70   C147  1.414786 S    
C152  H51   1.110471 S    
C87   H19   1.083354 S    
C85   H17   1.083363 S    
C27   C35   1.237009 T    
O44   C24   1.275327 A    
C6    C50   1.487279 S    
C20   C26   1.488069 S    
C32   C40   1.237026 T    
C110  O70   1.385960 S    
C79   C132  1.488048 S    
C73   C81   1.421993 A    
O38   C18   1.275321 A    
Zn9   O7    1.795229 S    
C100  H32   1.082304 S    
Zn10  O8    1.795232 S    
C96   C104  1.392706 A    
O5    C1    1.275402 A    
O36   C14   1.224267 A    
C53   C57   1.462197 S    
O72   C151  1.414881 S    
C55   C59   1.462197 S    
C63   C71   1.406935 A    
C158  H67   1.110776 S    
C150  H45   1.110086 S    
C99   C107  1.393742 A    
N8    O68   1.300651 A    
C41   C46   1.237003 T    
C80   C88   1.406404 A    
C79   C87   1.405273 A    
H7    C107  1.082515 S    
C84   C92   1.406401 A    
C94   H26   1.082303 S    
N6    O63   1.301562 A    
C113  O73   1.385275 S    
C148  H41   1.110456 S    
C111  C119  1.409364 A    
Zn1   O1    1.863601 S    
C137  C141  1.462369 S    
Zn2   O14   1.795241 S    
C29   C37   1.237009 T    
C68   H16   1.082495 S    
O30   C12   1.224252 A    
C17   C27   1.488011 S    
C61   C101  1.395564 A    
C62   H10   1.082496 S    
C82   C125  1.487847 S    
C74   N6    1.442700 S    
C19   C25   1.488013 S    
C146  H36   1.110420 S    
C83   C91   1.405274 A    
C109  C130  1.405078 A    
O39   C19   1.275210 A    
C65   C105  1.395565 A    
C122  C130  1.415033 A    
C75   N7    1.441114 S    
C147  H38   1.106816 S    
C159  H69   1.113953 S    
O6    C2    1.275356 A    
C117  C125  1.413029 A    
O10   C4    1.275346 A    
Zn13  O25   1.963180 S    
O34   C16   1.224176 A    
N3    O57   1.301525 A    
O50   C22   1.275099 A    
Zn15  O3    1.862066 S    
O41   C21   1.275207 A    
C61   H9    1.082585 S    
C151  H48   1.106817 S    
H6    C106  1.082456 S    
C33   C41   1.462747 S    
C143  C144  1.236767 T    
Zn4   O46   1.795424 S    
C150  H47   1.110770 S    
C120  C128  1.415011 A    
C35   C43   1.462747 S    
C134  C138  1.236638 T    
C93   C101  1.393741 A    
C114  C125  1.404716 A    
C96   H28   1.082289 S    
C113  C121  1.409373 A    
C67   C107  1.395563 A    
C97   C105  1.393743 A    
C147  C148  1.520294 S    
C69   N1    1.441141 S    
C43   C48   1.237005 T    
H3    C103  1.082517 S    
C56   C60   1.462217 S    
C95   H27   1.082313 S    
C88   H20   1.083210 S    
C89   H21   1.083352 S    
O69   C145  1.412227 S    
C145  C146  1.520428 S    
O12   C4    1.275364 A    
C71   C79   1.421994 A    
C123  C131  1.412916 A    
Zn16  O10   1.795237 S    
Zn14  O42   1.795979 S    
H4    C104  1.082442 S    
Zn13  O3    1.862081 S    
C24   C30   1.488071 S    
Zn14  O4    1.862083 S    
C151  C152  1.520319 S    
H8    C108  1.082436 S    
C112  C131  1.404867 A    
Zn1   O31   1.962805 S    
Zn2   O32   1.962799 S    
O21   C9    1.222956 A    
Zn3   O29   1.962799 S    
Zn6   O18   1.795241 S    
O23   C11   1.222964 A    
O71   C149  1.412202 S    
Zn7   O49   1.795425 S    
C9    C124  1.472673 S    
C112  C120  1.414233 A    
C78   C86   1.406400 A    
O25   C13   1.222963 A    
Zn6   O52   1.795415 S    
C86   C94   1.394512 A    
O51   C23   1.275168 A    
O29   C11   1.231705 A    
C23   C29   1.488013 S    
O42   C22   1.275321 A    
C18   C28   1.488071 S    
C90   C98   1.394499 A    
N1    O54   1.301140 A    
C57   C58   1.236750 T    
C34   C42   1.462757 S    
Zn9   O37   1.795977 S    
C59   C60   1.236750 T    
Zn11  O39   1.795990 S    
N2    O55   1.301569 A    
C98   H30   1.082295 S    
C155  H58   1.106819 S    
Zn11  O1    1.862066 S    
Zn15  O43   1.795990 S    
Zn12  O2    1.862066 S    
O28   C16   1.228267 A    
C70   C78   1.421612 A    
C67   C75   1.406942 A    
Zn5   O3    1.863601 S    
C87   C95   1.395280 A    
C31   C39   1.237009 T    
C66   H14   1.082493 S    
N4    O59   1.301562 A    
C63   C103  1.395564 A    
C91   C99   1.395263 A    
C156  H60   1.109169 S    
O76   C159  1.414777 S    
C92   C100  1.394510 A    
C16   C117  1.468961 S    
Zn15  O27   1.963177 S    
C77   C130  1.488016 S    
C154  H55   1.110089 S    
C121  C129  1.412776 A    
C145  H33   1.112917 S    
C119  C127  1.412768 A    
C81   C89   1.405271 A    
O48   C20   1.275099 A    
C68   C108  1.395485 A    
C155  C156  1.520330 S    
Zn8   O50   1.795424 S    
Zn2   O2    1.863604 S    
C160  H70   1.109165 S    
O7    C1    1.275386 A    
O26   C14   1.228118 A    
C64   H12   1.082505 S    
C65   H13   1.082595 S    
Zn4   O30   1.962806 S    
O74   C155  1.414928 S    
C153  C154  1.520428 S    
C63   H11   1.082596 S    
Zn8   O4    1.863575 S    
C38   C46   1.462757 S    
C80   C131  1.487817 S    
C99   H31   1.082308 S    
N5    O61   1.301525 A    
C124  C132  1.414966 A    
Zn16  O44   1.795988 S    
C149  H43   1.112930 S    
O15   C5    1.275502 A    
O13   C5    1.275526 A    
H5    C105  1.082519 S    
C2    C134  1.487398 S    
O32   C10   1.224227 A    
C49   C53   1.236539 T    
C112  O72   1.385986 S    
O20   C8    1.275530 A    
C158  H66   1.110422 S    
O24   C12   1.228111 A    
C10   C123  1.468937 S    
C115  O75   1.385298 S    
C109  O69   1.385316 S    
C100  C108  1.392689 A    
Zn1   O47   1.795414 S    
C22   C32   1.488068 S    
C72   N4    1.442649 S    
C77   C85   1.405273 A    
Zn3   O45   1.795425 S    
C116  C127  1.405131 A    
C5    C49   1.487220 S    
C7    C51   1.487216 S    
Zn7   O33   1.962799 S    
N6    O64   1.300665 A    
C156  H62   1.110721 S    
C152  H52   1.110722 S    
C148  H40   1.109165 S    
C136  C140  1.236638 T    
N5    O62   1.301145 A    
C54   C58   1.462214 S    
C157  H63   1.112925 S    
C154  H57   1.110767 S    
Zn9   O21   1.963180 S    
C146  H35   1.110055 S    
Zn11  O23   1.963177 S    
C42   C45   1.237005 T    
C39   C47   1.462745 S    
Zn12  O40   1.795987 S    
C157  C158  1.520423 S    
Zn9   O1    1.862081 S    
C70   N2    1.442707 S    
C160  H72   1.110734 S    
C147  H39   1.113964 S    
O31   C9    1.231696 A    
Zn11  O5    1.795237 S    
C153  H53   1.112933 S    
O47   C19   1.275171 A    
Zn7   O19   1.795254 S    
O19   C7    1.275526 A    
C93   H25   1.082313 S    
C115  C123  1.409447 A    
C114  O74   1.386002 S    
Zn8   O20   1.795253 S    
C138  C142  1.462283 S    
C110  C118  1.414143 A    
Zn14  O26   1.963182 S    
C85   C93   1.395252 A    
C151  H49   1.114087 S    
C88   C96   1.394519 A    
C89   C97   1.395284 A    
C81   C126  1.488048 S    
C150  H46   1.110427 S    
O75   C157  1.412217 S    
Zn10  O38   1.795978 S    
N8    O67   1.301571 A    
C72   C80   1.421550 A    
Zn15  O9    1.795237 S    
C139  C143  1.462372 S    
O18   C8    1.275588 A    
Zn13  O11   1.795229 S    
Zn14  O12   1.795229 S    
C44   C47   1.237005 T    
C52   C56   1.236605 T    
