data_mof_unit_8279.cif
_audit_creation_date              2013-03-05T16:04:41-0500
_audit_creation_method            fapswitch 2.2
_symmetry_space_group_name_H-M    P1
_symmetry_Int_Tables_number       1
_space_group_crystal_system       triclinic
_cell_length_a                    6.936827
_cell_length_b                    23.136567
_cell_length_c                    23.567745
_cell_angle_alpha                 112.385335
_cell_angle_beta                  90.401258
_cell_angle_gamma                 90.536451
_cell_volume                      3497.07335338

loop_
_atom_site_label
_atom_site_type_symbol
_atom_site_description
_atom_site_fract_x
_atom_site_fract_y
_atom_site_fract_z
_atom_type_partial_charge
O1    O     O_R   0.505740 0.453370 0.547760 -0.605523
O2    O     O_R   0.169520 0.427650 0.423350 -0.589182
O3    O     O_R   0.005620 0.546630 0.452240 -0.572132
C1    C     C_R   0.336568 0.409711 0.398764 0.946152
O4    O     O_R   0.175610 0.445960 0.545510 -0.603449
O5    O     O_R   0.011740 0.565080 0.575280 -0.564955
C2    C     C_R   0.344740 0.433870 0.562412 0.927065
O6    O     O_R   0.499610 0.434920 0.424720 -0.604264
O7    O     O_3   0.341310 0.539060 0.509620 -0.225491
V1    V     V_3+5 0.063960 0.492750 0.498220 1.204627
O8    O     O_R   0.682400 0.572350 0.576650 -0.578700
C3    C     C_R   0.851550 0.591144 0.600465 1.005289
O9    O     O_R   0.676320 0.554040 0.454490 -0.589570
C4    C     C_R   0.845076 0.565818 0.437651 0.957356
V2    V     V_3+5 0.564740 0.507250 0.501780 1.211921
O10   O     O_3   0.837250 0.460940 0.490380 -0.293125
C5    C     C_R   0.948572 0.923967 0.163135 -0.124984
H1    H     H_    0.952875 0.974427 0.184802 0.198732
C6    C     C_R   0.939791 0.889030 0.200185 -0.067529
H2    H     H_    0.934238 0.913110 0.249560 0.152176
C7    C     C_R   0.941684 0.823586 0.173932 0.137891
C8    C     C_R   0.950442 0.793592 0.109807 -0.116967
H3    H     H_    0.949633 0.742975 0.089467 0.165570
C9    C     C_R   0.955623 0.828126 0.071693 0.337432
C10   C     C_R   0.954325 0.894427 0.098939 -0.310829
C11   C     C_R   0.076205 0.744049 0.213830 0.390585
C12   C     C_R   0.050286 0.707393 0.249169 -0.221961
H4    H     H_    0.163205 0.675823 0.250067 0.211551
C13   C     C_R   0.885166 0.712242 0.285004 -0.136991
C14   C     C_R   0.738391 0.754045 0.283575 0.379894
C15   C     C_R   0.765519 0.791338 0.248915 -0.208263
H5    H     H_    0.652640 0.822806 0.247475 0.212827
C16   C     C_R   0.930863 0.786461 0.213450 -0.121880
C17   C     C_R   0.816298 0.702208 0.386387 -0.011701
H6    H     H_    0.780157 0.751255 0.406294 0.138333
C18   C     C_R   0.803277 0.666555 0.422891 -0.107136
H7    H     H_    0.755642 0.688468 0.469885 0.145376
C19   C     C_R   0.855545 0.603454 0.399286 -0.122347
C20   C     C_R   0.920049 0.576414 0.338658 -0.170162
H8    H     H_    0.961681 0.527810 0.319714 0.108435
C21   C     C_R   0.927361 0.611446 0.301546 -0.091905
H9    H     H_    0.973180 0.588814 0.254453 0.121100
C22   C     C_R   0.874282 0.674772 0.324709 0.190835
C23   C     C_R   0.856045 0.646692 0.659446 -0.305979
C24   C     C_R   0.955757 0.856203 0.838771 -0.137566
C25   C     C_R   0.122118 0.797748 0.743457 -0.108486
C26   C     C_R   0.108393 0.850144 0.798059 -0.165311
C27   C     C_R   0.814669 0.808643 0.823401 -0.147452
C28   C     C_R   0.830044 0.754725 0.769035 0.144098
C29   C     C_R   0.985593 0.748695 0.728395 0.028148
C30   C     C_R   0.998171 0.694601 0.673223 0.272110
C31   C     C_R   0.705502 0.653475 0.701107 -0.103538
C32   C     C_R   0.692241 0.706648 0.754930 -0.141287
H10   H     H_    0.595374 0.617389 0.691609 0.153689
H11   H     H_    0.241475 0.795994 0.713591 0.176582
H12   H     H_    0.572845 0.710278 0.785469 0.144863
H13   H     H_    0.218800 0.886282 0.808673 0.137093
H14   H     H_    0.697049 0.812569 0.854659 0.156097
C33   C     C_R   0.338114 0.355676 0.338310 -0.153148
C34   C     C_R   0.467129 0.147304 0.160201 -0.349685
C35   C     C_R   0.621831 0.211700 0.258097 -0.299800
C36   C     C_R   0.613914 0.156345 0.205283 0.369904
C37   C     C_R   0.323474 0.194012 0.171504 -0.049868
C38   C     C_R   0.328733 0.248175 0.226620 0.201776
C39   C     C_R   0.480419 0.257350 0.269537 0.118003
C40   C     C_R   0.485897 0.311223 0.324399 -0.250461
C41   C     C_R   0.186740 0.346423 0.295079 0.038145
C42   C     C_R   0.183947 0.293519 0.239946 -0.218996
H15   H     H_    0.601929 0.317469 0.357361 0.146821
H16   H     H_    0.735322 0.217916 0.291852 0.184336
H17   H     H_    0.065467 0.288016 0.208044 0.132990
C43   C     C_R   0.281869 0.102674 0.865388 -0.277290
H18   H     H_    0.160989 0.073984 0.868259 0.177210
C44   C     C_R   0.264868 0.137655 0.828028 0.367832
C45   C     C_R   0.423399 0.175570 0.824755 -0.066748
C46   C     C_R   0.593460 0.176295 0.857762 -0.100223
H19   H     H_    0.715828 0.204643 0.855293 0.163460
C47   C     C_R   0.608451 0.140494 0.893882 -0.115814
H20   H     H_    0.741893 0.142147 0.918620 0.132578
C48   C     C_R   0.452272 0.103624 0.898511 -0.174151
C49   C     C_R   0.339901 0.272823 0.807926 -0.073734
H21   H     H_    0.286218 0.292905 0.854346 0.118730
C50   C     C_R   0.325740 0.306633 0.769965 -0.194688
H22   H     H_    0.263749 0.352838 0.788162 0.138461
C51   C     C_R   0.392485 0.281666 0.709307 -0.079399
C52   C     C_R   0.475028 0.221230 0.686774 0.333197
C53   C     C_R   0.488436 0.187830 0.725688 -0.148511
H23   H     H_    0.548087 0.141273 0.708590 0.191270
C54   C     C_R   0.418859 0.212914 0.785764 0.102787
C55   C     C_R   0.547035 0.336891 0.647671 -0.075773
H24   H     H_    0.686810 0.321385 0.656550 0.110023
C56   C     C_R   0.535322 0.373550 0.612296 -0.147093
H25   H     H_    0.667247 0.385199 0.594516 0.131191
C57   C     C_R   0.355926 0.394625 0.599886 -0.132210
C58   C     C_R   0.188725 0.378288 0.624215 -0.154342
H26   H     H_    0.048443 0.393893 0.615966 0.124992
C59   C     C_R   0.200867 0.341923 0.659976 -0.092718
H27   H     H_    0.070169 0.329980 0.678178 0.118424
C60   C     C_R   0.379912 0.320469 0.671574 0.174720
O11   O     O_R   0.309730 0.065160 0.075230 -0.599142
O12   O     O_R   0.633800 0.053970 0.954410 -0.606313
O13   O     O_R   0.797580 0.934860 0.924760 -0.591521
C61   C     C_R   0.464632 0.065728 0.937217 0.929113
O14   O     O_R   0.639820 0.072410 0.076610 -0.583556
O15   O     O_R   0.803650 0.953440 0.047830 -0.550269
C62   C     C_R   0.471911 0.091437 0.100591 1.022267
O16   O     O_R   0.303670 0.046590 0.952160 -0.610478
O17   O     O_3   0.468000 0.960960 0.990410 -0.253598
V3    V     V_3+5 0.745380 0.007240 0.001780 1.213007
O18   O     O_R   0.132940 0.946010 0.045600 -0.585059
C63   C     C_R   0.964285 0.933897 0.062137 1.093279
O19   O     O_R   0.126920 0.927560 0.923400 -0.597555
C64   C     C_R   0.958188 0.909738 0.898965 1.006406
V4    V     V_3+5 0.244590 0.992720 0.998240 1.209008
O20   O     O_3   0.972110 0.039040 0.009600 -0.303683
N1    N     N_R   0.147484 0.689977 0.629949 0.233033
O21   O     O_R   0.326569 0.685181 0.644049 -0.414962
O22   O     O_R   0.103760 0.687842 0.575403 -0.398720
N2    N     N_3   0.035946 0.391250 0.306474 -0.204192
H28   H     H_    0.904503 0.368346 0.305457 0.118024
H29   H     H_    0.034094 0.407386 0.270633 0.091366
N3    N     N_R   0.749480 0.108043 0.199972 0.233052
O23   O     O_R   0.689257 0.050522 0.183863 -0.421408
O24   O     O_R   0.924692 0.122498 0.221088 -0.419446
N4    N     N_3   0.174193 0.188184 0.127036 -0.215016
H30   H     H_    0.236976 0.180737 0.084661 0.088561
H31   H     H_    0.084457 0.150325 0.123144 0.186494
N5    N     N_R   0.088650 0.132400 0.793192 0.230197
O25   O     O_R   0.037083 0.175812 0.774011 -0.410911
O26   O     O_R   0.972585 0.084836 0.782795 -0.396037
N6    N     N_R   0.539236 0.192228 0.624426 0.237760
O27   O     O_R   0.445389 0.200130 0.579974 -0.349256
O28   O     O_R   0.677342 0.151654 0.610900 -0.334058
N7    N     N_R   0.961773 0.795122 0.006128 0.232398
O29   O     O_R   0.881722 0.818070 0.969344 -0.448098
O30   O     O_R   0.031140 0.738943 0.982975 -0.363994
N8    N     N_R   0.252812 0.738825 0.180457 0.240956
O31   O     O_R   0.351158 0.687468 0.163364 -0.385041
O32   O     O_R   0.327569 0.787170 0.172924 -0.396766
N9    N     N_R   0.557377 0.756973 0.313990 0.233578
O33   O     O_R   0.478036 0.706480 0.315672 -0.416256
O34   O     O_R   0.458740 0.808309 0.332729 -0.372525

loop_
_geom_bond_atom_site_label_1
_geom_bond_atom_site_label_2
_geom_bond_distance
_ccdc_geom_bond_type
C35   H16   1.084112 S    
C53   H23   1.083502 S    
C12   C13   1.407688 A    
C21   H9    1.082801 S    
C58   H26   1.082815 S    
C1    O6    1.303736 A    
C11   N8    1.441508 S    
N5    O25   1.300542 A    
O14   C62   1.303533 A    
V4    O20   2.149261 S    
C20   C21   1.401545 A    
C51   C52   1.420810 A    
N1    O21   1.300341 A    
N8    O32   1.301235 A    
C11   C12   1.408001 A    
C34   C37   1.427044 A    
C38   C42   1.407545 A    
C18   H7    1.083254 S    
C6    C7    1.400910 A    
N9    O34   1.301487 A    
C33   C40   1.408480 A    
O5    C3    1.303803 A    
C19   C20   1.402344 A    
C47   C48   1.403052 A    
C52   N6    1.439289 S    
C24   C27   1.403980 A    
C40   H15   1.084335 S    
C7    C16   1.489952 S    
O12   V3    1.984264 S    
V2    O10   2.149283 S    
C33   C41   1.414622 A    
O17   V3    2.157844 S    
C34   C36   1.421605 A    
C17   H6    1.082668 S    
O17   V4    1.702293 S    
O18   C63   1.297155 A    
C49   C50   1.398285 A    
O8    V2    1.995199 S    
C44   N5    1.445751 S    
C50   H22   1.083343 S    
C25   H11   1.081495 S    
C15   C16   1.403888 A    
O1    V2    1.980241 S    
O7    V1    2.157916 S    
O18   V4    1.982122 S    
C49   C54   1.400313 A    
C23   C31   1.406879 A    
C24   C26   1.405668 A    
O15   C63   1.296180 A    
O12   C61   1.303281 A    
C7    C8    1.404459 A    
C13   C22   1.500206 S    
C21   C22   1.408531 A    
C57   C58   1.408210 A    
O19   V4    1.995382 S    
O19   C64   1.293170 A    
C59   C60   1.404924 A    
C31   H10   1.083560 S    
C59   H27   1.083236 S    
N2    H29   1.045544 S    
N9    O33   1.301076 A    
C14   N9    1.439553 S    
C44   C45   1.421074 A    
C48   C61   1.489209 S    
C41   C42   1.405255 A    
O11   V4    1.990872 S    
C9    C10   1.419718 A    
C43   C44   1.409727 A    
C20   H8    1.082952 S    
O4    C2    1.303021 A    
C10   C63   1.481205 S    
C52   C53   1.409571 A    
N7    O30   1.301515 A    
C49   H21   1.083147 S    
O2    C1    1.298471 A    
C45   C46   1.404952 A    
O16   V4    1.982026 S    
C13   C14   1.419838 A    
C51   C60   1.487588 S    
C24   C64   1.485901 S    
C4    C19   1.476636 S    
C11   C16   1.415826 A    
C55   C56   1.399986 A    
C15   H5    1.083269 S    
C14   C15   1.408219 A    
N2    H28   1.045817 S    
C56   C57   1.409543 A    
C29   C30   1.424378 A    
C46   H19   1.083249 S    
C37   N4    1.436442 S    
O3    C4    1.294496 A    
C23   C30   1.416690 A    
C27   C28   1.412884 A    
C50   C51   1.406055 A    
C28   C29   1.420072 A    
O6    V2    1.990579 S    
C53   C54   1.401193 A    
N4    H30   1.045547 S    
C8    C9    1.411786 A    
N3    O24   1.301498 A    
N6    O27   1.301265 A    
O2    V1    1.983124 S    
C55   C60   1.403438 A    
C36   N3    1.436545 S    
C34   C62   1.504612 S    
C31   C32   1.395037 A    
N4    H31   1.044483 S    
C32   H12   1.083809 S    
C9    N7    1.440633 S    
C2    C57   1.490507 S    
O15   V3    1.980626 S    
C25   C26   1.396528 A    
O1    C2    1.297973 A    
C17   C22   1.409905 A    
C46   C47   1.399641 A    
C43   H18   1.082997 S    
N6    O28   1.301481 A    
N5    O26   1.301751 A    
O5    V1    1.983868 S    
O8    C3    1.294689 A    
C58   C59   1.402044 A    
C27   H14   1.084206 S    
N7    O29   1.300418 A    
N8    O31   1.301532 A    
C25   C29   1.406862 A    
O11   C62   1.301363 A    
C30   N1    1.434619 S    
C5    H1    1.081516 S    
C5    C10   1.404091 A    
C38   C39   1.411609 A    
C6    H2    1.083148 S    
O9    V2    1.982061 S    
O7    V2    1.702870 S    
O4    V1    1.984067 S    
C43   C48   1.407358 A    
O13   C64   1.304274 A    
V1    O10   1.708713 S    
C47   H20   1.083068 S    
C55   H24   1.083264 S    
O14   V3    1.983248 S    
C42   H17   1.083253 S    
C28   C32   1.398418 A    
C1    C33   1.495600 S    
C18   C19   1.402318 A    
C56   H25   1.082816 S    
C5    C6    1.398936 A    
N1    O22   1.301113 A    
C17   C18   1.403209 A    
C35   C36   1.405749 A    
V3    O20   1.708782 S    
C37   C38   1.420438 A    
C35   C39   1.398820 A    
C3    C23   1.490921 S    
C39   C40   1.413417 A    
C45   C54   1.482165 S    
C26   H13   1.083631 S    
O3    V1    1.980982 S    
C8    H3    1.083302 S    
O13   V3    1.983852 S    
C61   O16   1.296850 A    
N3    O23   1.300892 A    
O9    C4    1.298086 A    
C41   N2    1.433215 S    
C12   H4    1.081566 S    
