data_mof_unit_9127.cif
_audit_creation_date              2012-12-10T18:19:58-0500
_audit_creation_method            fapswitch 2.2
_symmetry_space_group_name_H-M    P1
_symmetry_Int_Tables_number       1
_space_group_crystal_system       triclinic
_cell_length_a                    10.679731
_cell_length_b                    10.664231
_cell_length_c                    9.525416
_cell_angle_alpha                 89.750701
_cell_angle_beta                  90.005968
_cell_angle_gamma                 85.952656
_cell_volume                      1082.14437953

loop_
_atom_site_label
_atom_site_type_symbol
_atom_type_description
_atom_site_fract_x
_atom_site_fract_y
_atom_site_fract_z
_atom_type_partial_charge
C1    C     C_R   0.513619 0.259620 0.501365 0.758794
C2    C     C_R   0.486531 0.740632 0.499099 0.759323
C3    C     C_3   0.459544 0.962046 0.626855 -0.207301
C4    C     C_3   0.540076 0.039140 0.376910 -0.209331
C5    C     C_3   0.560308 0.591204 0.050769 -0.140073
C6    C     C_3   0.439057 0.408788 0.948759 -0.055953
C7    C     C_3   0.447130 0.602608 0.951731 0.295500
C8    C     C_3   0.552549 0.397072 0.047871 0.313123
C9    C     C_3   0.612821 0.488677 0.948827 -0.125897
C10   C     C_3   0.386411 0.512293 0.051282 -0.105417
C11   C     C_R   0.259915 0.498106 0.500360 0.771833
C12   C     C_R   0.740044 0.501715 0.499697 0.778529
C13   C     C_3   0.040942 0.461104 0.625637 0.244247
C14   C     C_3   0.958737 0.538714 0.374777 0.240751
C15   C     C_3   0.963520 0.383618 0.525501 -0.233828
C16   C     C_3   0.036242 0.616260 0.474835 -0.230895
C17   C     C_3   0.876910 0.502547 0.498484 -0.064483
C18   C     C_3   0.122956 0.497229 0.501870 -0.063130
C19   C     C_3   0.952768 0.579806 0.599642 -0.184522
C20   C     C_3   0.046985 0.420099 0.400573 -0.190611
C21   C     C_3   0.585971 0.019293 0.600224 0.063857
C22   C     C_3   0.413802 0.981906 0.403098 0.070477
C23   C     C_3   0.607239 0.936107 0.469483 -0.203118
C24   C     C_3   0.392524 0.064948 0.533827 -0.204346
C25   C     C_3   0.481201 0.879033 0.496167 -0.033068
C26   C     C_3   0.518493 0.121729 0.506768 -0.037713
Cu1   Cu    Cu3+1 0.500030 0.499990 0.643150 0.918229
Cu2   Cu    Cu3+1 0.499970 0.500010 0.356850 0.913185
H1    H     H_    0.931904 0.288428 0.547040 0.132216
H2    H     H_    0.067971 0.711511 0.453849 0.134166
H3    H     H_    0.912573 0.645364 0.680803 0.144169
H4    H     H_    0.087018 0.355081 0.318830 0.140133
H5    H     H_    0.696618 0.882642 0.440754 0.129281
H6    H     H_    0.303198 0.118634 0.562321 0.126810
H7    H     H_    0.417975 0.942677 0.729847 0.150642
H8    H     H_    0.580806 0.067064 0.277050 0.158520
H9    H     H_    0.611007 0.668836 0.096419 0.126737
H10   H     H_    0.385151 0.333904 0.902266 0.120293
H11   H     H_    0.708123 0.479693 0.902762 0.130818
H12   H     H_    0.291177 0.523652 0.097210 0.128128
N1    N     N_3   0.500090 0.499970 0.858290 -0.166589
N2    N     N_3   0.499910 0.500030 0.141710 -0.180046
O1    O     O_R   0.500060 0.316850 0.620870 -0.580189
O2    O     O_R   0.499940 0.683150 0.379130 -0.581141
O3    O     O_R   0.500000 0.316860 0.379090 -0.593295
O4    O     O_R   0.500000 0.683140 0.620910 -0.587350
O5    O     O_R   0.316880 0.499960 0.620870 -0.592943
O6    O     O_R   0.683120 0.500040 0.379130 -0.594513
O7    O     O_R   0.316830 0.499970 0.379090 -0.581607
O8    O     O_R   0.683170 0.500030 0.620910 -0.582670
C27   C     C_3   0.083561 0.412594 0.770093 -0.388688
C28   C     C_3   0.970658 0.404766 0.866538 -0.917393
H13   H     H_    0.931365 0.500589 0.893212 0.258859
H14   H     H_    0.895880 0.355915 0.813279 0.256173
H15   H     H_    0.998796 0.353591 0.964487 0.237975
H16   H     H_    0.132908 0.317927 0.758808 0.193397
H17   H     H_    0.149234 0.476575 0.817095 0.215765
C29   C     C_3   0.913329 0.586202 0.230977 -0.382717
C30   C     C_3   0.024914 0.609457 0.137538 -0.911190
H18   H     H_    0.092618 0.664543 0.194620 0.257928
H19   H     H_    0.073644 0.518525 0.106956 0.257026
H20   H     H_    0.992830 0.661863 0.041815 0.236518
H21   H     H_    0.856341 0.515581 0.180747 0.211323
H22   H     H_    0.854068 0.675254 0.244237 0.196722
C31   C     C_R   0.685968 0.005694 0.711650 0.102618
C32   C     C_R   0.708633 0.887261 0.776593 -0.169712
C33   C     C_R   0.792352 0.870546 0.887972 -0.165314
C34   C     C_R   0.857628 0.970967 0.933294 -0.130727
C35   C     C_R   0.843083 0.086655 0.863351 -0.137479
C36   C     C_R   0.757081 0.104869 0.752362 -0.154502
H23   H     H_    0.660061 0.807537 0.742471 0.153149
H24   H     H_    0.805138 0.780186 0.940140 0.123436
H25   H     H_    0.918015 0.958920 0.023868 0.133320
H26   H     H_    0.896023 0.162394 0.899271 0.129004
H27   H     H_    0.743502 0.195987 0.701944 0.123206
C37   C     C_R   0.315847 0.995136 0.289795 0.110884
C38   C     C_R   0.282764 0.116440 0.236279 -0.175401
C39   C     C_R   0.205982 0.133157 0.118702 -0.161856
C40   C     C_R   0.157823 0.029376 0.056250 -0.117037
C41   C     C_R   0.180455 0.910122 0.116249 -0.155623
C42   C     C_R   0.260596 0.891984 0.232280 -0.173949
H28   H     H_    0.321023 0.198199 0.281549 0.161840
H29   H     H_    0.186428 0.226103 0.074323 0.121922
H30   H     H_    0.103756 0.041625 0.960795 0.123483
H31   H     H_    0.139878 0.831462 0.068146 0.142609
H32   H     H_    0.282107 0.798217 0.273519 0.134143
C43   C     C_3   0.395564 0.733348 0.908367 -0.395888
C44   C     C_3   0.270008 0.736242 0.831538 -0.821645
H33   H     H_    0.281863 0.702872 0.722841 0.280181
H34   H     H_    0.203350 0.678906 0.888098 0.232539
H35   H     H_    0.228871 0.834600 0.825155 0.225132
H36   H     H_    0.383759 0.790319 0.004699 0.197172
H37   H     H_    0.467853 0.776497 0.846613 0.206209
C45   C     C_3   0.629306 0.275541 0.088476 -0.415420
C46   C     C_3   0.570581 0.161460 0.026636 -0.863918
H38   H     H_    0.476984 0.151617 0.072905 0.256452
H39   H     H_    0.558765 0.172181 0.911550 0.267260
H40   H     H_    0.630987 0.074641 0.047535 0.259496
H41   H     H_    0.725495 0.278448 0.044941 0.183571
H42   H     H_    0.641858 0.265992 0.202625 0.229415

loop_
_geom_bond_atom_site_label_1
_geom_bond_atom_site_label_2
_ccdc_geom_bond_type
C7    C10   S    
C21   C26   S    
C4    H8    S    
C11   C18   S    
C5    H9    S    
C10   N2    S    
C11   O5    A    
C46   H38   S    
C22   C37   S    
C12   O6    A    
C19   H3    S    
C46   H40   S    
C38   C39   A    
C2    O4    A    
C13   C18   S    
C45   H41   S    
C24   C26   S    
C27   H16   S    
C40   H30   S    
C16   H2    S    
C31   C36   A    
C9    H11   S    
C22   C25   S    
C10   H12   S    
C33   H24   S    
C13   C27   S    
C39   H29   S    
C1    O1    A    
C7    C43   S    
C2    O2    A    
C8    C9    S    
C23   H5    S    
C6    N1    S    
C12   C17   S    
C6    H10   S    
C27   H17   S    
C45   H42   S    
C18   C20   S    
C42   H32   S    
C28   H15   S    
C23   C25   S    
C32   C33   A    
C30   H18   S    
C43   H36   S    
C14   C17   S    
C3    C24   S    
C45   C46   S    
C28   H14   S    
C15   H1    S    
C29   H22   S    
C15   C20   S    
C14   C29   S    
Cu2   O3    S    
C30   H19   S    
C13   C19   S    
C33   C34   A    
C14   C20   S    
C3    C25   S    
C8    C45   S    
C37   C38   A    
C5    C7    S    
C4    C23   S    
C39   C40   A    
C34   C35   A    
C6    C8    S    
C34   H25   S    
Cu2   O2    S    
C24   H6    S    
C27   C28   S    
C5    C9    S    
C41   H31   S    
C11   O7    A    
C4    C22   S    
Cu2   O7    S    
Cu1   N1    S    
C4    C26   S    
C32   H23   S    
C44   H35   S    
C3    H7    S    
C46   H39   S    
C35   H26   S    
Cu1   O4    S    
C44   H34   S    
C13   C15   S    
C1    C26   S    
C14   C16   S    
C3    C21   S    
C36   H27   S    
C28   H13   S    
C5    N2    S    
C20   H4    S    
Cu1   O5    S    
C29   H21   S    
C15   C17   S    
Cu2   O6    S    
C30   H20   S    
C21   C31   S    
C8    N2    S    
C41   C42   A    
C37   C42   A    
C6    C10   S    
C12   O8    A    
Cu1   O8    S    
C9    N1    S    
C21   C23   S    
C29   C30   S    
C1    O3    A    
C38   H28   S    
C16   C19   S    
C43   H37   S    
Cu2   N2    S    
C17   C19   S    
C2    C25   S    
C22   C24   S    
C7    N1    S    
C35   C36   A    
C40   C41   A    
Cu1   O1    S    
C44   H33   S    
C43   C44   S    
C16   C18   S    
C31   C32   A    
Cu1   Cu2   S    
