data_mof_unit_45579.cif
_audit_creation_date              2012-12-10T18:23:09-0500
_audit_creation_method            fapswitch 2.2
_symmetry_space_group_name_H-M    P1
_symmetry_Int_Tables_number       1
_space_group_crystal_system       triclinic
_cell_length_a                    15.015159
_cell_length_b                    14.013714
_cell_length_c                    10.542805
_cell_angle_alpha                 90.473008
_cell_angle_beta                  89.912793
_cell_angle_gamma                 89.981177
_cell_volume                      2218.31916497

loop_
_atom_site_label
_atom_site_type_symbol
_atom_type_description
_atom_site_fract_x
_atom_site_fract_y
_atom_site_fract_z
_atom_type_partial_charge
C1    C     C_R   0.326510 0.499997 0.500245 0.896811
C2    C     C_R   0.954723 0.672923 0.463335 0.385027
C3    C     C_R   0.557592 0.797639 0.422558 -0.026522
C4    C     C_R   0.442408 0.202361 0.577442 -0.026522
C5    C     C_R   0.442484 0.798641 0.577551 -0.006756
C6    C     C_R   0.557516 0.201359 0.422449 -0.006756
C7    C     C_R   0.441066 0.899316 0.579381 0.004615
C8    C     C_R   0.558934 0.100684 0.420618 0.004615
C9    C     C_R   0.558995 0.898286 0.420709 0.010072
C10   C     C_R   0.441005 0.101714 0.579291 0.010071
C11   C     C_R   0.500013 0.949389 0.500019 0.086630
C12   C     C_R   0.673489 0.500003 0.499755 0.896811
C13   C     C_R   0.499987 0.050611 0.499981 0.086630
C14   C     C_R   0.382401 0.950877 0.658237 -0.170140
C15   C     C_R   0.617598 0.049122 0.341763 -0.170140
C16   C     C_R   0.617649 0.948820 0.341837 -0.157577
C17   C     C_R   0.382350 0.051180 0.658163 -0.157577
C18   C     C_R   0.500340 0.499534 0.257475 0.981972
C19   C     C_R   0.499660 0.500466 0.742525 0.981972
C20   C     C_3   0.426853 0.541756 0.043201 0.382386
C21   C     C_3   0.573147 0.458244 0.956799 0.382386
C22   C     C_3   0.497760 0.589938 0.962370 0.417232
C23   C     C_R   0.953617 0.500377 0.499710 0.015396
C24   C     C_3   0.502240 0.410062 0.037630 0.417231
C25   C     C_3   0.426209 0.452067 0.957165 -0.443419
C26   C     C_3   0.573791 0.547933 0.042835 -0.443418
C27   C     C_3   0.498842 0.501286 0.876650 -0.170765
C28   C     C_3   0.501158 0.498714 0.123350 -0.170765
C29   C     C_R   0.814896 0.585839 0.481313 -0.189467
C30   C     C_R   0.185104 0.414161 0.518687 -0.189468
C31   C     C_R   0.769317 0.500110 0.499379 -0.085604
C32   C     C_R   0.230683 0.499890 0.500621 -0.085604
C33   C     C_R   0.815028 0.414614 0.517234 -0.187889
C34   C     C_R   0.046383 0.499623 0.500290 0.015395
C35   C     C_R   0.184972 0.585386 0.482766 -0.187889
C36   C     C_R   0.907050 0.414099 0.517630 0.059332
C37   C     C_R   0.092950 0.585901 0.482370 0.059332
C38   C     C_R   0.907357 0.587251 0.481249 0.028375
C39   C     C_R   0.092643 0.412749 0.518751 0.028375
C40   C     C_R   0.952778 0.328462 0.535920 -0.234582
C41   C     C_R   0.047222 0.671537 0.464080 -0.234582
C42   C     C_R   0.045277 0.327077 0.536665 0.385028
Cl1   Cl    Cl    0.098397 0.216310 0.560313 -0.601991
Cl2   Cl    Cl    0.901602 0.783690 0.439687 -0.601991
H1    H     H_    0.366913 0.413852 0.919813 0.188926
H2    H     H_    0.397624 0.242995 0.637703 0.137069
H3    H     H_    0.397767 0.758780 0.637897 0.147447
H4    H     H_    0.602233 0.241220 0.362103 0.147447
H5    H     H_    0.336555 0.913655 0.719937 0.159457
H6    H     H_    0.663445 0.086345 0.280062 0.159457
H7    H     H_    0.663546 0.910794 0.280212 0.166866
H8    H     H_    0.336454 0.089206 0.719788 0.166866
H9    H     H_    0.315869 0.606577 0.019972 0.346947
H10   H     H_    0.684130 0.393421 0.980028 0.346947
H11   H     H_    0.494335 0.724418 0.996049 0.345939
H12   H     H_    0.633086 0.586148 0.080187 0.188926
H13   H     H_    0.505665 0.275582 0.003951 0.345939
H14   H     H_    0.777791 0.651066 0.466915 0.209515
H15   H     H_    0.222209 0.348934 0.533085 0.209515
H16   H     H_    0.779084 0.348411 0.531563 0.168883
H17   H     H_    0.220916 0.651589 0.468437 0.168883
H18   H     H_    0.916538 0.262427 0.549685 0.191242
H19   H     H_    0.083462 0.737573 0.450315 0.191242
H20   H     H_    0.602375 0.757005 0.362297 0.137069
N1    N     N_R   0.500000 0.750030 0.500000 -0.109883
N2    N     N_R   0.500000 0.249970 0.500000 -0.109884
O1    O     O_R   0.367850 0.580280 0.500030 -0.630092
O2    O     O_3   0.648292 0.413091 0.905838 -0.737236
O3    O     O_3   0.493127 0.683742 0.918714 -0.734106
O4    O     O_3   0.506873 0.316258 0.081285 -0.734106
O5    O     O_R   0.632150 0.419720 0.499970 -0.630092
O6    O     O_R   0.632150 0.580280 0.499970 -0.632347
O7    O     O_R   0.367850 0.419720 0.500030 -0.632347
O8    O     O_R   0.499970 0.580260 0.313950 -0.620632
O9    O     O_R   0.500030 0.419740 0.686050 -0.620632
O10   O     O_R   0.500030 0.580260 0.686050 -0.583297
O11   O     O_R   0.499970 0.419740 0.313950 -0.583297
O12   O     O_3   0.351707 0.586909 0.094161 -0.737236
Zn1   Zn    Zn3+2 0.500000 0.607200 0.500000 0.992169
Zn2   Zn    Zn3+2 0.500000 0.392800 0.500000 0.992169

loop_
_geom_bond_atom_site_label_1
_geom_bond_atom_site_label_2
_ccdc_geom_bond_type
C30   C32   A    
C21   C26   S    
C8    C13   A    
N1    Zn1   S    
C34   C37   A    
C16   H7    S    
C24   O4    S    
C4    H2    S    
C3    H20   S    
C7    C11   A    
C5    H3    S    
C6    H4    S    
C19   O10   A    
C35   C37   A    
C9    C16   A    
O6    Zn1   S    
C14   H5    S    
H10   O2    S    
C20   C25   S    
C10   C17   A    
C15   C16   A    
C33   C36   A    
C40   H18   S    
C15   H6    S    
C7    C14   A    
C2    Cl2   S    
C29   C38   A    
O10   Zn1   S    
H13   O4    S    
C19   C27   S    
O9    Zn2   S    
C22   O3    S    
C40   C42   A    
C21   C27   S    
C18   O8    A    
C14   C17   A    
C3    N1    A    
C17   H8    S    
O5    Zn2   S    
C39   C42   A    
C34   C39   A    
C32   C35   A    
C36   C40   A    
C18   C28   S    
C24   C25   S    
C5    N1    A    
C5    C7    A    
C6    C8    A    
C8    C15   A    
C20   C28   S    
C1    C32   S    
C3    C9    A    
C2    C38   A    
C23   C34   A    
C30   H15   S    
C31   C33   A    
O1    Zn1   S    
C35   H17   S    
C9    C11   A    
H11   O3    S    
C12   O5    A    
C20   C22   S    
C33   H16   S    
O8    Zn1   S    
C12   C31   S    
C42   Cl1   S    
C41   H19   S    
C4    C10   A    
C25   H1    S    
O11   Zn2   S    
C24   C28   S    
C10   C13   A    
C26   H12   S    
C25   C27   S    
C23   C38   A    
N2    Zn2   S    
C26   C28   S    
C20   O12   S    
C22   C27   S    
C1    O7    A    
C19   O9    A    
H9    O12   S    
C21   O2    S    
C4    N2    A    
C11   C13   A    
C18   O11   A    
C1    O1    A    
O7    Zn2   S    
C30   C39   A    
C37   C41   A    
C12   O6    A    
C6    N2    A    
C29   H14   S    
C29   C31   A    
C23   C36   A    
C22   C26   S    
C21   C24   S    
C2    C41   A    
