data_mof_unit_58451.cif
_audit_creation_date              2013-03-05T16:10:47-0500
_audit_creation_method            fapswitch 2.2
_symmetry_space_group_name_H-M    P1
_symmetry_Int_Tables_number       1
_space_group_crystal_system       triclinic
_cell_length_a                    22.375349
_cell_length_b                    7.090292
_cell_length_c                    19.612407
_cell_angle_alpha                 90.24682
_cell_angle_beta                  98.961449
_cell_angle_gamma                 90.2311
_cell_volume                      3073.42053807

loop_
_atom_site_label
_atom_site_type_symbol
_atom_site_description
_atom_site_fract_x
_atom_site_fract_y
_atom_site_fract_z
_atom_type_partial_charge
O1    O     O_R   0.443980 0.494320 0.557430 -0.580564
O2    O     O_R   0.556020 0.994320 0.442570 -0.582628
O3    O     O_R   0.441210 0.822520 0.414610 -0.587882
O4    O     O_R   0.558790 0.322520 0.585390 -0.594805
C1    C     C_R   0.426516 0.654369 0.389739 1.153730
C2    C     C_R   0.573555 0.156054 0.610343 1.148047
O5    O     O_R   0.436920 0.823940 0.555180 -0.580190
O6    O     O_R   0.563080 0.323940 0.444820 -0.577114
O7    O     O_R   0.551700 0.995760 0.584140 -0.584626
O8    O     O_R   0.448300 0.495760 0.415860 -0.599892
C3    C     C_R   0.421493 0.655416 0.574728 0.986462
C4    C     C_R   0.578518 0.155452 0.425266 0.981640
O9    O     O_3   0.537660 0.661290 0.509340 -0.278056
O10   O     O_3   0.462340 0.161290 0.490660 -0.285133
V1    V     V_3+5 0.493010 0.935560 0.498270 1.277241
V2    V     V_3+5 0.506990 0.435560 0.501730 1.273691
H1    H     H_    0.688496 0.836293 0.268188 0.207675
H2    H     H_    0.311428 0.337566 0.731867 0.207179
C5    C     C_R   0.759174 0.947880 0.217064 -0.070193
C6    C     C_R   0.240707 0.448768 0.782880 -0.065831
H3    H     H_    0.764189 0.816432 0.190216 0.203007
H4    H     H_    0.235684 0.317929 0.809785 0.203403
C7    C     C_R   0.795627 0.103943 0.207163 -0.117101
C8    C     C_R   0.204237 0.604179 0.792683 -0.118739
C9    C     C_R   0.788251 0.274799 0.242888 0.171272
C10   C     C_R   0.211626 0.774244 0.756884 0.169188
C11   C     C_R   0.744522 0.283953 0.287883 0.691700
C12   C     C_R   0.255387 0.783266 0.711922 0.691463
C13   C     C_R   0.708282 0.126658 0.297254 -0.136669
C14   C     C_R   0.291646 0.626634 0.702653 -0.137290
C15   C     C_R   0.716011 0.958999 0.261625 -0.156255
C16   C     C_R   0.283901 0.459756 0.738350 -0.156345
C17   C     C_1   0.840986 0.084430 0.161540 0.242397
C18   C     C_1   0.158866 0.584747 0.838303 0.243262
C19   C     C_1   0.662694 0.137494 0.342800 0.217683
C20   C     C_1   0.337270 0.637389 0.657144 0.217449
C21   C     C_1   0.624482 0.146290 0.380553 -0.200991
C22   C     C_1   0.375508 0.646174 0.619418 -0.200163
C23   C     C_1   0.878717 0.071474 0.123336 -0.120718
C24   C     C_1   0.121148 0.571721 0.876525 -0.118614
C25   C     C_R   0.630675 0.217724 0.798661 -0.155300
C26   C     C_R   0.373570 0.596887 0.200505 -0.154666
H5    H     H_    0.611403 0.257346 0.844007 0.226665
H6    H     H_    0.394713 0.582045 0.154694 0.227028
C27   C     C_R   0.614834 0.153456 0.676542 -0.520020
C28   C     C_R   0.385638 0.640973 0.323557 -0.521746
C29   C     C_R   0.909123 0.046942 0.764342 -0.272234
C30   C     C_R   0.090006 0.567430 0.235679 -0.270598
C31   C     C_R   0.874994 0.060701 0.698646 0.362111
C32   C     C_R   0.124684 0.563889 0.301270 0.362569
C33   C     C_R   0.812613 0.092304 0.692266 -0.152520
C34   C     C_R   0.187849 0.573683 0.307596 -0.150359
C35   C     C_R   0.782449 0.103660 0.750369 0.082766
C36   C     C_R   0.217819 0.594161 0.249632 0.083485
C37   C     C_R   0.818627 0.099632 0.817811 -0.144745
C38   C     C_R   0.181745 0.586634 0.182154 -0.148551
C39   C     C_R   0.717762 0.128489 0.743370 -0.130131
C40   C     C_R   0.282830 0.611551 0.256641 -0.130231
C41   C     C_R   0.692388 0.174971 0.803280 -0.296704
C42   C     C_R   0.310334 0.597035 0.196249 -0.299392
C43   C     C_R   0.728107 0.174846 0.868065 0.781173
C44   C     C_R   0.274959 0.585108 0.131438 0.783512
C45   C     C_R   0.789296 0.130091 0.876004 0.143443
C46   C     C_R   0.212120 0.585939 0.123839 0.145384
C47   C     C_R   0.676543 0.107708 0.679978 0.671567
C48   C     C_R   0.322272 0.644545 0.320550 0.669894
C49   C     C_R   0.592689 0.211513 0.735786 0.677273
C50   C     C_R   0.410772 0.614353 0.263605 0.672766
C51   C     C_R   0.882807 0.069661 0.823923 -0.161452
C52   C     C_R   0.116926 0.574940 0.176093 -0.161310
H7    H     H_    0.957450 0.023256 0.769424 0.171731
H8    H     H_    0.041118 0.559118 0.230605 0.171894
H9    H     H_    0.789236 0.117319 0.641085 0.232810
H10   H     H_    0.212573 0.554831 0.358502 0.233213
O11   O     O_R   0.051730 0.724670 0.084120 -0.586162
O12   O     O_R   0.948270 0.224670 0.915880 -0.594982
O13   O     O_R   0.063080 0.393540 0.944820 -0.568202
O14   O     O_R   0.936920 0.893540 0.055180 -0.567475
C53   C     C_R   0.076225 0.561641 0.922550 1.020827
C54   C     C_R   0.923691 0.061682 0.077377 1.022217
O15   O     O_R   0.058800 0.395030 0.085390 -0.589661
O16   O     O_R   0.941200 0.895030 0.914610 -0.582808
O17   O     O_R   0.943980 0.223310 0.057440 -0.567305
O18   O     O_R   0.056020 0.723310 0.942560 -0.566004
C55   C     C_R   0.074366 0.564594 0.109857 0.997318
C56   C     C_R   0.925545 0.063347 0.890132 0.999834
O19   O     O_3   0.962360 0.556290 0.990650 -0.266803
O20   O     O_3   0.037640 0.056290 0.009350 -0.265099
V3    V     V_3+5 0.006980 0.281990 0.001730 1.288120
V4    V     V_3+5 0.993020 0.781990 0.998270 1.293535
N1    N     N_R   0.903958 0.045686 0.638112 0.256249
O21   O     O_R   0.962237 0.023093 0.643923 -0.308204
O22   O     O_R   0.872337 0.052544 0.576571 -0.309142
N2    N     N_R   0.095693 0.547032 0.361706 0.256580
O23   O     O_R   0.037138 0.530854 0.355824 -0.307865
O24   O     O_R   0.127438 0.549531 0.423254 -0.307653
N3    N     N_R   0.819777 0.110672 0.944806 0.219131
O25   O     O_R   0.822159 0.943413 0.972013 -0.389529
O26   O     O_R   0.824589 0.258018 0.985083 -0.345076
N4    N     N_R   0.180644 0.584513 0.055105 0.218684
O27   O     O_R   0.171326 0.745447 0.023764 -0.370165
O28   O     O_R   0.182531 0.431705 0.018574 -0.367314
N5    N     N_R   0.824504 0.438738 0.234130 0.248732
O29   O     O_R   0.838926 0.479120 0.174086 -0.387550
O30   O     O_R   0.840461 0.554834 0.285364 -0.285924
N6    N     N_R   0.175359 0.937514 0.765539 0.248804
O31   O     O_R   0.160861 0.979099 0.825534 -0.390533
O32   O     O_R   0.159468 0.051893 0.714261 -0.284949
F1    F     F_    0.736143 0.447711 0.321299 -0.646872
F2    F     F_    0.263782 0.946320 0.678440 -0.647028
F3    F     F_    0.533535 0.258165 0.732954 -0.680100
F4    F     F_    0.471750 0.609379 0.266073 -0.678859
F5    F     F_    0.702614 0.209358 0.925503 -0.630933
F6    F     F_    0.301718 0.578030 0.073716 -0.632394
F7    F     F_    0.693642 0.033937 0.622142 -0.705426
F8    F     F_    0.301250 0.692006 0.379491 -0.706030

loop_
_geom_bond_atom_site_label_1
_geom_bond_atom_site_label_2
_geom_bond_distance
_ccdc_geom_bond_type
C14   C16   1.401230 A    
C2    C27   1.471685 S    
C11   C13   1.405716 A    
C47   F7    1.355842 S    
C35   C37   1.439647 A    
O1    C3    1.314301 A    
C5    C15   1.402049 A    
C10   N6    1.440912 S    
C2    O7    1.306564 A    
N3    O25   1.300409 A    
C29   C31   1.395695 A    
O14   V4    1.970756 S    
O5    C3    1.317465 A    
O13   V3    1.970553 S    
C17   C23   1.216431 T    
C48   F8    1.355765 S    
C18   C24   1.216473 T    
C30   C52   1.396753 A    
C5    H3    1.083283 S    
C8    C10   1.419891 A    
C28   C48   1.410186 A    
C34   H10   1.072547 S    
C6    H4    1.083291 S    
C6    C16   1.402064 A    
C53   O18   1.314508 A    
O14   C54   1.317929 A    
C39   C41   1.420411 A    
N6    O31   1.301303 A    
C40   C42   1.420831 A    
C42   C44   1.390836 A    
C50   F4    1.358319 S    
C31   C33   1.400862 A    
C4    C21   1.453261 S    
C43   C45   1.391733 A    
C29   C51   1.397007 A    
C44   C46   1.390681 A    
O11   V4    2.011698 S    
C40   C48   1.433819 A    
C6    C8    1.404053 A    
C12   C14   1.405739 A    
C7    C17   1.460428 S    
C37   C45   1.418547 A    
C27   C49   1.393529 A    
C32   C34   1.400807 A    
C38   C46   1.418494 A    
O12   V3    2.006618 S    
O15   V3    2.016783 S    
C30   C32   1.395347 A    
O2    C4    1.313683 A    
O6    V2    1.970793 S    
C26   C50   1.384459 A    
C25   H5    1.083558 S    
C26   H6    1.083563 S    
C31   N1    1.442237 S    
C54   O17   1.314246 A    
N3    O26   1.300971 A    
C34   C36   1.414649 A    
O13   C53   1.318919 A    
O17   V3    1.957806 S    
C36   C38   1.439457 A    
C41   C43   1.391710 A    
C25   C41   1.404096 A    
C25   C49   1.384784 A    
C26   C42   1.404353 A    
N1    O21   1.301771 A    
C35   C39   1.444005 A    
C32   N2    1.442288 S    
C12   F2    1.358775 S    
O16   C56   1.316559 A    
C8    C18   1.460494 S    
C33   C35   1.414150 A    
O4    V2    2.025898 S    
C3    C22   1.453327 S    
C5    C7    1.404029 A    
C28   C50   1.392603 A    
N1    O22   1.301729 A    
O6    C4    1.316883 A    
N4    O28   1.300797 A    
C24   C53   1.453590 S    
N5    O30   1.301336 A    
O1    V2    1.958397 S    
N2    O24   1.301736 A    
O2    V1    1.957977 S    
C29   H7    1.084183 S    
C37   C51   1.439039 A    
O4    C2    1.303644 A    
O20   V4    2.177065 S    
C38   C52   1.438658 A    
O19   V3    2.185915 S    
C27   C47   1.411042 A    
H1    C15   1.083455 S    
O19   V4    1.735225 S    
H2    C16   1.083455 S    
C30   H8    1.084198 S    
O12   C56   1.316146 A    
O3    V1    2.016586 S    
O11   C55   1.315083 A    
C36   C40   1.444360 A    
O18   V4    1.958226 S    
C49   F3    1.358375 S    
C19   C21   1.216723 T    
C9    N5    1.440887 S    
C33   H9    1.073022 S    
C39   C47   1.434619 A    
O3    C1    1.307415 A    
C44   F6    1.361426 S    
C9    C11   1.417500 A    
C1    C28   1.469273 S    
C13   C19   1.458857 S    
C10   C12   1.417547 A    
O16   V4    2.026098 S    
C14   C20   1.458925 S    
C23   C54   1.453455 S    
C20   C22   1.216762 T    
O7    V1    2.010780 S    
C1    O8    1.302424 A    
C13   C15   1.401235 A    
O8    V2    2.016103 S    
C43   F5    1.361319 S    
N6    O32   1.301338 A    
O5    V1    1.970591 S    
N4    O27   1.300522 A    
C7    C9    1.419865 A    
N2    O23   1.301772 A    
C46   N4    1.420358 S    
O20   V3    1.741504 S    
C11   F1    1.358774 S    
C45   N3    1.421471 S    
O9    V2    1.735500 S    
N5    O29   1.301306 A    
O10   V1    1.741780 S    
C52   C55   1.487613 S    
O15   C55   1.317795 A    
C51   C56   1.488833 S    
