data_mof_unit_21959.cif
_audit_creation_date              2012-12-10T17:19:26-0500
_audit_creation_method            fapswitch 2.2
_symmetry_space_group_name_H-M    P1
_symmetry_Int_Tables_number       1
_space_group_crystal_system       triclinic
_cell_length_a                    15.079005
_cell_length_b                    10.864284
_cell_length_c                    9.569936
_cell_angle_alpha                 90.266251
_cell_angle_beta                  89.901147
_cell_angle_gamma                 92.601196
_cell_volume                      1566.13762198

loop_
_atom_site_label
_atom_site_type_symbol
_atom_type_description
_atom_site_fract_x
_atom_site_fract_y
_atom_site_fract_z
_atom_type_partial_charge
C1    C     C_R   0.506882 0.262995 0.500501 0.806011
C2    C     C_R   0.907113 0.543820 0.621114 0.116257
C3    C     C_R   0.952626 0.432341 0.260286 -0.215542
C4    C     C_R   0.045094 0.433575 0.261217 -0.186060
C5    C     C_R   0.092304 0.472567 0.380793 0.105862
C6    C     C_R   0.046504 0.510431 0.500963 -0.015793
C7    C     C_R   0.093577 0.552441 0.620867 0.071953
C8    C     C_R   0.046413 0.589281 0.739752 -0.159179
C9    C     C_R   0.953970 0.584079 0.740110 -0.253896
C10   C     C_R   0.184562 0.472945 0.382368 -0.289804
C11   C     C_R   0.232187 0.513737 0.500812 -0.176014
C12   C     C_R   0.328884 0.504737 0.500303 0.820611
C13   C     C_R   0.186659 0.559401 0.618796 0.345220
C14   C     C_R   0.553639 0.121165 0.757072 -0.159429
C15   C     C_R   0.541583 0.062621 0.885336 -0.161913
C16   C     C_R   0.497536 0.947812 0.891003 -0.130473
C17   C     C_R   0.473818 0.886351 0.767535 -0.156258
C18   C     C_R   0.494878 0.938935 0.635313 0.091427
C19   C     C_R   0.521692 0.064752 0.631809 0.098592
C20   C     C_R   0.514358 0.129080 0.503636 -0.120285
C21   C     C_R   0.502065 0.063167 0.378668 -0.212275
C22   C     C_R   0.494408 0.935974 0.379815 -0.210081
C23   C     C_R   0.494801 0.737529 0.501415 0.769476
C24   C     C_R   0.490808 0.872103 0.506644 -0.113351
C25   C     C_R   0.617874 0.664415 0.144804 -0.154178
C26   C     C_R   0.675145 0.745068 0.072620 -0.217695
C27   C     C_R   0.675114 0.745038 0.928682 -0.208003
C28   C     C_R   0.617720 0.664479 0.856130 -0.152484
C29   C     C_R   0.557837 0.580973 0.925357 0.195760
C30   C     C_R   0.557864 0.580925 0.075116 0.204825
C31   C     C_R   0.445138 0.422783 0.073724 -0.068110
C32   C     C_R   0.445175 0.422801 0.925626 -0.042027
C33   C     C_R   0.671240 0.500514 0.499896 0.791403
C34   C     C_R   0.814685 0.539903 0.620401 -0.253369
C35   C     C_R   0.767974 0.502383 0.499923 -0.070432
C36   C     C_R   0.813835 0.467508 0.379563 -0.250598
C37   C     C_R   0.906346 0.468862 0.379421 0.109411
C38   C     C_R   0.953316 0.507534 0.500581 0.086740
Cu1   Cu    Cu3+1 0.499990 0.499990 0.640660 0.929906
Cu2   Cu    Cu3+1 0.500010 0.500010 0.359340 0.930512
H1    H     H_    0.779225 0.567785 0.713096 0.155444
H2    H     H_    0.589973 0.209177 0.757578 0.163520
H3    H     H_    0.564198 0.107943 0.980645 0.134596
H4    H     H_    0.483434 0.904961 0.991019 0.139108
H5    H     H_    0.436400 0.799973 0.778694 0.168358
H6    H     H_    0.489980 0.887708 0.280566 0.165366
H7    H     H_    0.400221 0.359543 0.128969 0.136045
H8    H     H_    0.623958 0.671797 0.254906 0.203418
H9    H     H_    0.720037 0.807937 0.129113 0.154521
H10   H     H_    0.719870 0.807990 0.872460 0.154395
H11   H     H_    0.623285 0.672298 0.746062 0.202136
H12   H     H_    0.777567 0.438068 0.286582 0.158558
H13   H     H_    0.400326 0.359522 0.869890 0.150643
H14   H     H_    0.917322 0.402464 0.166667 0.144542
H15   H     H_    0.079719 0.404407 0.168294 0.146546
H16   H     H_    0.219368 0.439662 0.291406 0.172315
H17   H     H_    0.080663 0.621647 0.833241 0.195606
H18   H     H_    0.919109 0.612385 0.833200 0.151260
H19   H     H_    0.498469 0.109844 0.279167 0.160997
N1    N     N_R   0.500860 0.501210 0.147910 -0.200335
N2    N     N_R   0.500890 0.501290 0.852040 -0.206290
O1    O     O_R   0.499990 0.319640 0.618810 -0.589003
O2    O     O_R   0.500000 0.319660 0.381240 -0.582220
O3    O     O_R   0.370250 0.499960 0.618800 -0.559476
O4    O     O_R   0.370260 0.499980 0.381230 -0.578137
O5    O     O_R   0.500000 0.680340 0.618760 -0.617616
O6    O     O_R   0.500010 0.680360 0.381190 -0.598140
O7    O     O_R   0.629740 0.500020 0.618770 -0.606640
O8    O     O_R   0.629750 0.500040 0.381200 -0.602653
O9    O     O_3   0.230966 0.613099 0.731315 -0.738454
H20   H     H_    0.282080 0.663763 0.694734 0.324871

loop_
_geom_bond_atom_site_label_1
_geom_bond_atom_site_label_2
_ccdc_geom_bond_type
C31   N1    A    
C2    C9    A    
C7    C13   A    
C25   C30   A    
C23   C24   S    
C6    C38   A    
Cu1   O7    S    
C34   H1    S    
O9    H20   S    
Cu2   N1    S    
C8    H17   S    
C10   H16   S    
C12   O4    A    
C16   H4    S    
C19   C20   A    
C36   H12   S    
C27   H10   S    
C33   O8    A    
C11   C12   S    
C1    O1    A    
C2    C34   A    
C17   C18   A    
C25   C26   A    
C15   H3    S    
C5    C10   A    
C31   H7    S    
C21   C22   A    
Cu1   O3    S    
C11   C13   A    
C25   H8    S    
C26   C27   A    
C29   C30   A    
Cu2   O2    S    
C18   C24   A    
C4    C5    A    
C1    O2    A    
C23   O5    A    
C27   C28   A    
C28   C29   A    
C3    H14   S    
C37   C38   A    
C17   H5    S    
C32   N2    A    
C21   H19   S    
C6    C7    A    
C29   N2    A    
Cu2   O4    S    
C4    H15   S    
C5    C6    A    
C12   O3    A    
Cu1   O5    S    
C22   C24   A    
C16   C17   A    
C13   O9    S    
C15   C16   A    
C22   H6    S    
C32   H13   S    
C7    C8    A    
Cu1   N2    S    
C18   C19   A    
C20   C21   A    
C3    C37   A    
C36   C37   A    
C34   C35   A    
C10   C11   A    
C26   H9    S    
C23   O6    A    
Cu1   Cu2   S    
Cu1   O1    S    
C2    C38   A    
C14   C15   A    
C9    H18   S    
Cu2   O8    S    
C33   C35   S    
C28   H11   S    
C14   H2    S    
C14   C19   A    
C31   C32   A    
C3    C4    A    
C35   C36   A    
C33   O7    A    
C8    C9    A    
C1    C20   S    
Cu2   O6    S    
C30   N1    A    
