data_mof_unit_57185.cif
_audit_creation_date              2012-12-11T15:24:31-0500
_audit_creation_method            fapswitch 2.2
_symmetry_space_group_name_H-M    P1
_symmetry_Int_Tables_number       1
_space_group_crystal_system       triclinic
_cell_length_a                    22.983284
_cell_length_b                    6.957867
_cell_length_c                    20.71117
_cell_angle_alpha                 89.995483
_cell_angle_beta                  93.249885
_cell_angle_gamma                 90.003373
_cell_volume                      3306.69269942

loop_
_atom_site_label
_atom_site_type_symbol
_atom_type_description
_atom_site_fract_x
_atom_site_fract_y
_atom_site_fract_z
_atom_type_partial_charge
O1    O     O_R   0.188030 0.379840 0.189340 -0.540252
O2    O     O_R   0.811970 0.620160 0.810660 -0.540252
O3    O     O_R   0.311970 0.879840 0.310660 -0.540257
O4    O     O_R   0.688030 0.120160 0.689340 -0.540256
O5    O     O_R   0.307090 0.708420 0.185790 -0.536580
O6    O     O_R   0.692910 0.291580 0.814210 -0.536580
O7    O     O_R   0.192910 0.208420 0.314210 -0.536570
O8    O     O_R   0.807090 0.791580 0.685790 -0.536570
C1    C     C_R   0.326727 0.540751 0.170712 0.729167
C2    C     C_R   0.673273 0.459249 0.829288 0.729167
C3    C     C_R   0.173273 0.040737 0.329287 0.729186
C4    C     C_R   0.826727 0.959263 0.670713 0.729186
O9    O     O_R   0.188180 0.709480 0.181650 -0.542287
O10   O     O_R   0.811820 0.290520 0.818350 -0.542287
O11   O     O_R   0.311820 0.209480 0.318350 -0.542289
O12   O     O_R   0.688180 0.790520 0.681650 -0.542289
O13   O     O_R   0.192210 0.880960 0.306500 -0.535713
O14   O     O_R   0.807790 0.119040 0.693500 -0.535713
O15   O     O_R   0.307790 0.380960 0.193500 -0.535712
O16   O     O_R   0.692210 0.619040 0.806500 -0.535712
C5    C     C_R   0.167794 0.540558 0.165376 0.706829
C6    C     C_R   0.832206 0.459442 0.834624 0.706830
C7    C     C_R   0.332213 0.040555 0.334615 0.706829
C8    C     C_R   0.667787 0.959445 0.665385 0.706830
O17   O     O_3   0.251460 0.546730 0.290970 -0.369312
O18   O     O_3   0.748540 0.453270 0.709030 -0.369312
O19   O     O_3   0.248540 0.046730 0.209030 -0.369316
O20   O     O_3   0.751460 0.953270 0.790970 -0.369316
V1    V     V_3+5 0.249730 0.821120 0.242400 1.411006
V2    V     V_3+5 0.750270 0.178880 0.757600 1.411006
V3    V     V_3+5 0.250270 0.321120 0.257600 1.411005
V4    V     V_3+5 0.749730 0.678880 0.742400 1.411005
C9    C     C_R   0.576688 0.824071 0.610935 -0.216893
C10   C     C_R   0.423312 0.175929 0.389064 -0.216894
C11   C     C_R   0.923302 0.324083 0.889073 -0.216809
C12   C     C_R   0.076698 0.675917 0.110927 -0.216809
C13   C     C_R   0.618724 0.970187 0.615751 -0.083356
C14   C     C_R   0.381276 0.029813 0.384249 -0.083356
C15   C     C_R   0.881261 0.470164 0.884268 -0.083386
C16   C     C_R   0.118739 0.529836 0.115732 -0.083386
C17   C     C_R   0.613260 0.128695 0.573802 -0.214217
C18   C     C_R   0.386740 0.871305 0.426198 -0.214216
C19   C     C_R   0.886719 0.628637 0.926229 -0.214164
C20   C     C_R   0.113281 0.371363 0.073771 -0.214164
C21   C     C_R   0.566439 0.142746 0.526752 0.087482
C22   C     C_R   0.433561 0.857254 0.473248 0.087482
C23   C     C_R   0.933553 0.642718 0.973263 0.087538
C24   C     C_R   0.066447 0.357282 0.026737 0.087538
C25   C     C_R   0.523914 0.994788 0.523018 0.007770
C26   C     C_R   0.476086 0.005212 0.476982 0.007770
C27   C     C_R   0.976079 0.494775 0.976991 0.007677
C28   C     C_R   0.023921 0.505225 0.023009 0.007677
C29   C     C_R   0.529268 0.835797 0.565270 0.067770
C30   C     C_R   0.470732 0.164203 0.434730 0.067770
C31   C     C_R   0.970721 0.335797 0.934740 0.067781
C32   C     C_R   0.029279 0.664203 0.065260 0.067781
C33   C     C_R   0.560930 0.300360 0.483347 0.149158
C34   C     C_R   0.439070 0.699640 0.516653 0.149157
C35   C     C_R   0.939084 0.800373 0.016645 0.149198
C36   C     C_R   0.060916 0.199627 0.983355 0.149198
C37   C     C_R   0.512947 0.309563 0.438323 -0.172180
C38   C     C_R   0.487053 0.690437 0.561677 -0.172180
C39   C     C_R   0.987065 0.809555 0.061672 -0.172137
C40   C     C_R   0.012935 0.190445 0.938328 -0.172137
H1    H     H_    0.580488 0.702004 0.643462 0.119857
H2    H     H_    0.419512 0.297996 0.356538 0.119857
H3    H     H_    0.919513 0.202054 0.856529 0.119840
H4    H     H_    0.080487 0.797946 0.143471 0.119840
H5    H     H_    0.646286 0.239479 0.577917 0.137845
H6    H     H_    0.353714 0.760521 0.422083 0.137845
H7    H     H_    0.853682 0.739379 0.922130 0.137834
H8    H     H_    0.146318 0.260621 0.077870 0.137834
H9    H     H_    0.508551 0.430834 0.405515 0.127787
H10   H     H_    0.491449 0.569166 0.594485 0.127787
H11   H     H_    0.991458 0.930802 0.094488 0.127793
H12   H     H_    0.008542 0.069198 0.905512 0.127793
C41   C     C_3   0.041638 0.116113 0.523702 0.210646
C42   C     C_3   0.958362 0.883887 0.476298 0.210646
C43   C     C_3   0.458362 0.616079 0.976280 0.210639
C44   C     C_3   0.541638 0.383921 0.023720 0.210639
C45   C     C_3   0.021775 0.930706 0.557222 -0.177483
C46   C     C_3   0.978225 0.069294 0.442778 -0.177483
C47   C     C_3   0.478227 0.430652 0.942786 -0.177481
C48   C     C_3   0.521773 0.569348 0.057214 -0.177481
H13   H     H_    0.039847 0.875196 0.604449 0.122179
H14   H     H_    0.960153 0.124804 0.395551 0.122179
H15   H     H_    0.460156 0.375098 0.895564 0.122176
H16   H     H_    0.539844 0.624902 0.104436 0.122176
H17   H     H_    0.040292 0.677365 0.483688 0.122850
H18   H     H_    0.959707 0.322634 0.516312 0.122850
H19   H     H_    0.459708 0.177359 0.016355 0.122845
H20   H     H_    0.540292 0.822640 0.983645 0.122845
C49   C     C_1   0.872227 0.968999 0.625013 -0.192008
C50   C     C_1   0.127773 0.031001 0.374987 -0.192008
C51   C     C_1   0.627774 0.468960 0.874990 -0.192006
C52   C     C_1   0.372226 0.531039 0.125010 -0.192006
C53   C     C_3   0.977607 0.176766 0.508672 -0.178202
C54   C     C_3   0.022393 0.823234 0.491328 -0.178202
C55   C     C_3   0.522392 0.676769 0.991304 -0.178198
C56   C     C_3   0.477608 0.323231 0.008696 -0.178198
C57   C     C_3   0.957772 0.989925 0.541270 0.123237
C58   C     C_3   0.042227 0.010074 0.458729 0.123237
C59   C     C_3   0.542229 0.489908 0.958732 0.123236
C60   C     C_3   0.457771 0.510091 0.041268 0.123237
C61   C     C_1   0.910650 0.978181 0.587179 -0.040307
C62   C     C_1   0.089350 0.021819 0.412821 -0.040307
C63   C     C_1   0.589352 0.478146 0.912824 -0.040307
C64   C     C_1   0.410648 0.521854 0.087176 -0.040307
C65   C     C_3   0.605943 0.458131 0.483207 -0.786177
H21   H     H_    0.593920 0.571872 0.447200 0.212429
H22   H     H_    0.610483 0.526844 0.531484 0.214687
H23   H     H_    0.648611 0.396995 0.471119 0.205220
C66   C     C_3   0.394057 0.541869 0.516793 -0.786176
H24   H     H_    0.406080 0.428128 0.552799 0.212429
H25   H     H_    0.351389 0.603005 0.528881 0.205220
H26   H     H_    0.389516 0.473156 0.468515 0.214687
C67   C     C_3   0.894109 0.958238 0.016747 -0.786541
H27   H     H_    0.906243 0.072193 0.052593 0.212540
H28   H     H_    0.889483 0.026629 0.968435 0.214664
H29   H     H_    0.851467 0.897379 0.028989 0.205328
C68   C     C_3   0.105891 0.041762 0.983253 -0.786541
H30   H     H_    0.093757 0.927807 0.947407 0.212540
H31   H     H_    0.148533 0.102621 0.971011 0.205328
H32   H     H_    0.110517 0.973370 0.031565 0.214664
C69   C     C_3   0.089263 0.249583 0.550970 -0.801196
H33   H     H_    0.076776 0.308737 0.597979 0.209740
H34   H     H_    0.130735 0.168737 0.558266 0.212824
H35   H     H_    0.095369 0.369507 0.516698 0.207681
C70   C     C_3   0.910737 0.750417 0.449030 -0.801196
H36   H     H_    0.923224 0.691263 0.402021 0.209740
H37   H     H_    0.904631 0.630493 0.483302 0.207681
H38   H     H_    0.869265 0.831263 0.441733 0.212824
C71   C     C_3   0.410735 0.749500 0.948988 -0.801186
H39   H     H_    0.423223 0.808610 0.901969 0.209739
H40   H     H_    0.369265 0.668629 0.941703 0.212823
H41   H     H_    0.404629 0.869458 0.983240 0.207684
C72   C     C_3   0.589264 0.250499 0.051012 -0.801187
H42   H     H_    0.576777 0.191390 0.098031 0.209739
H43   H     H_    0.595371 0.130541 0.016760 0.207684
H44   H     H_    0.630735 0.331370 0.058297 0.212823

loop_
_geom_bond_atom_site_label_1
_geom_bond_atom_site_label_2
_ccdc_geom_bond_type
C34   C38   A    
C55   C59   S    
O1    C5    A    
O19   V1    S    
O13   V1    S    
O3    C7    A    
O1    V3    S    
C44   C48   S    
O4    V2    S    
O15   V3    S    
C10   H2    S    
C9    H1    S    
C45   C57   S    
O7    C3    A    
C72   H43   S    
C21   C33   A    
O5    C1    A    
C26   C30   A    
C47   C59   S    
O9    V1    S    
C42   C70   S    
C14   C18   A    
C24   C28   A    
C67   H28   S    
O4    C8    A    
C45   C54   S    
C44   C72   S    
C18   H6    S    
O2    V4    S    
C18   C22   A    
O3    V1    S    
C12   C16   A    
C49   C61   T    
C1    O15   A    
C56   C60   S    
C33   C65   S    
C2    O16   A    
C68   H32   S    
C42   C54   S    
C69   H35   S    
C41   C53   S    
O14   V2    S    
C21   C25   A    
H19   C56   S    
H18   C53   S    
C45   H13   S    
C66   H26   S    
O11   C7    A    
C52   C64   T    
O12   C8    A    
C22   C34   A    
C42   C57   S    
O17   V1    S    
C41   C58   S    
O10   V2    S    
C24   C36   A    
O5    V1    S    
C9    C29   A    
C43   C71   S    
C72   H44   S    
C57   C61   S    
O7    V3    S    
C44   C59   S    
C11   C31   A    
C27   C28   A    
O8    V4    S    
O20   V4    S    
C67   H29   S    
O18   V4    S    
C15   C19   A    
C37   H9    S    
C54   C58   S    
O19   V3    S    
C9    C13   A    
C46   C58   S    
C11   C15   A    
O2    C6    A    
C12   C32   A    
C34   C66   S    
C29   C38   A    
C42   C46   S    
C41   C45   S    
O8    C4    A    
C31   C40   A    
C8    C13   S    
C40   H12   S    
C32   C39   A    
O9    C5    A    
C33   C37   A    
C1    C52   S    
C68   H30   S    
C51   C63   T    
C71   H41   S    
C3    C50   S    
O6    V2    S    
C10   C30   A    
C47   C56   S    
C71   H39   S    
C48   C60   S    
C46   C53   S    
C43   C60   S    
C65   H23   S    
C60   C64   S    
C41   C69   S    
C17   H5    S    
C66   H24   S    
O16   V4    S    
C43   C55   S    
C3    O13   A    
C19   H7    S    
C10   C14   A    
C48   C55   S    
O17   V3    S    
C48   H16   S    
C47   H15   S    
O6    C2    A    
C23   C27   A    
C12   H4    S    
O11   V3    S    
C30   C37   A    
O12   V4    S    
C7    C14   S    
C72   H42   S    
C22   C26   A    
C35   C39   A    
H17   C54   S    
C36   C40   A    
C70   H38   S    
C65   H22   S    
C70   H36   S    
C46   H14   S    
C67   H27   S    
C43   C47   S    
O10   C6    A    
C69   H33   S    
C5    C16   S    
C39   H11   S    
C2    C51   S    
C25   C29   A    
C6    C15   S    
O20   V2    S    
C20   H8    S    
C27   C31   A    
C13   C17   A    
C36   C68   S    
C4    C49   S    
C53   C57   S    
C68   H31   S    
C50   C62   T    
C11   H3    S    
C23   C35   A    
C28   C32   A    
C16   C20   A    
C35   C67   S    
C25   C26   A    
C58   C62   S    
C4    O14   A    
C69   H34   S    
C71   H40   S    
C17   C21   A    
C38   H10   S    
C59   C63   S    
C66   H25   S    
C65   H21   S    
C19   C23   A    
C44   C56   S    
C20   C24   A    
H20   C55   S    
C70   H37   S    
O18   V2    S    
