data_mof_unit_36585.cif
_audit_creation_date              2012-12-10T20:41:46-0500
_audit_creation_method            fapswitch 2.2
_symmetry_space_group_name_H-M    P1
_symmetry_Int_Tables_number       1
_space_group_crystal_system       triclinic
_cell_length_a                    14.860788
_cell_length_b                    15.552051
_cell_length_c                    9.920302
_cell_angle_alpha                 88.327842
_cell_angle_beta                  89.687588
_cell_angle_gamma                 89.920513
_cell_volume                      2291.72572473

loop_
_atom_site_label
_atom_site_type_symbol
_atom_type_description
_atom_site_fract_x
_atom_site_fract_y
_atom_site_fract_z
_atom_type_partial_charge
C1    C     C_R   0.379329 0.881085 0.501203 0.903991
C2    C     C_R   0.381530 0.120815 0.498671 0.876246
C3    C     C_R   0.883954 0.376338 0.501431 0.884966
C4    C     C_R   0.880523 0.620108 0.498959 0.878765
C5    C     C_3   0.302490 0.220305 0.749607 -0.099880
C6    C     C_3   0.299120 0.762515 0.751033 -0.113670
C7    C     C_3   0.803640 0.726027 0.749169 -0.073235
C8    C     C_3   0.773763 0.284274 0.755351 -0.122247
C9    C     C_R   0.424738 0.022963 0.070451 0.216204
C10   C     C_R   0.925641 0.525280 0.070625 0.202869
C11   C     C_R   0.576533 0.987856 0.074551 -0.144424
C12   C     C_R   0.076359 0.486882 0.075061 -0.094003
C13   C     C_R   0.579232 0.992799 0.931295 -0.046857
C14   C     C_R   0.078695 0.489097 0.931757 -0.031739
C15   C     C_R   0.424572 0.022697 0.928618 0.188862
C16   C     C_R   0.925515 0.525446 0.928769 0.173611
C17   C     C_3   0.334912 0.980958 0.926552 -0.525644
C18   C     C_3   0.834323 0.486431 0.928485 -0.529920
C19   C     C_3   0.334988 0.981207 0.079543 -0.504096
C20   C     C_3   0.834295 0.487217 0.081294 -0.482266
C21   C     C_R   0.622545 0.117614 0.497680 0.917453
C22   C     C_R   0.615834 0.876697 0.500714 0.952257
C23   C     C_R   0.119388 0.620413 0.497974 0.907888
C24   C     C_R   0.117166 0.377503 0.500475 0.924006
C25   C     C_R   0.310941 0.243495 0.603029 0.064587
C26   C     C_R   0.312038 0.751874 0.602745 0.060771
C27   C     C_R   0.810647 0.744477 0.600301 0.061379
C28   C     C_R   0.804473 0.254911 0.619919 0.097482
C29   C     C_R   0.320650 0.190878 0.493417 -0.129791
C30   C     C_R   0.314263 0.814549 0.500444 -0.110024
C31   C     C_R   0.816161 0.687558 0.495126 -0.126383
C32   C     C_R   0.832504 0.297880 0.501427 -0.150996
C33   C     C_R   0.269380 0.205469 0.377402 -0.268017
C34   C     C_R   0.259426 0.807933 0.387226 -0.247064
C35   C     C_R   0.757439 0.694775 0.385691 -0.269711
C36   C     C_R   0.810877 0.261598 0.377333 -0.223994
C37   C     C_R   0.685812 0.752107 0.388906 -0.046042
C38   C     C_R   0.746641 0.196629 0.372475 -0.048891
C39   C     C_R   0.198415 0.263011 0.379781 -0.023942
C40   C     C_R   0.196868 0.742632 0.380454 -0.033977
C41   C     C_R   0.678667 0.807279 0.500153 -0.192733
C42   C     C_R   0.700045 0.172578 0.492873 -0.197806
C43   C     C_R   0.182868 0.310232 0.498231 -0.197826
C44   C     C_R   0.188449 0.684085 0.491985 -0.193653
C45   C     C_R   0.742925 0.804287 0.601786 0.115810
C46   C     C_R   0.734145 0.199250 0.613803 0.158061
C47   C     C_R   0.242727 0.302654 0.605481 0.125376
C48   C     C_R   0.249448 0.687200 0.598579 0.110573
C49   C     C_3   0.728964 0.792334 0.750537 -0.437865
C50   C     C_3   0.689800 0.229299 0.738378 -0.496924
C51   C     C_3   0.224859 0.283591 0.751921 -0.466811
C52   C     C_3   0.232111 0.689652 0.747179 -0.396823
H1    H     H_    0.279007 0.166698 0.289247 0.175892
H2    H     H_    0.262443 0.855976 0.306207 0.162432
H3    H     H_    0.762520 0.650354 0.303710 0.189626
H4    H     H_    0.840668 0.285706 0.283650 0.185753
H5    H     H_    0.283081 0.024262 0.122367 0.201802
H6    H     H_    0.338606 0.915842 0.126644 0.211906
H7    H     H_    0.784500 0.532777 0.123199 0.203957
H8    H     H_    0.834284 0.421784 0.129446 0.221401
H9    H     H_    0.747015 0.850839 0.804279 0.234429
H10   H     H_    0.678735 0.176586 0.814282 0.209189
H11   H     H_    0.238397 0.338731 0.815125 0.240731
H12   H     H_    0.256259 0.630853 0.800426 0.233781
H13   H     H_    0.661966 0.764763 0.777352 0.178098
H14   H     H_    0.628557 0.268215 0.715670 0.177274
H15   H     H_    0.158422 0.252583 0.769298 0.178867
H16   H     H_    0.162344 0.709575 0.772999 0.185620
H17   H     H_    0.280927 0.152812 0.768974 0.171100
H18   H     H_    0.265965 0.824537 0.772801 0.159553
H19   H     H_    0.779573 0.659744 0.772595 0.162681
H20   H     H_    0.757509 0.353755 0.754830 0.162615
H21   H     H_    0.636497 0.975492 0.132992 0.240390
H22   H     H_    0.136328 0.475700 0.134302 0.221432
H23   H     H_    0.281974 0.022612 0.880958 0.195880
H24   H     H_    0.339965 0.916302 0.885699 0.215956
H25   H     H_    0.782439 0.528880 0.881941 0.196096
H26   H     H_    0.837696 0.421376 0.890357 0.216817
N1    N     N_R   0.499140 0.000000 0.142800 -0.124468
N2    N     N_R   0.999140 0.500000 0.142800 -0.119235
N3    N     N_R   0.499160 0.000000 0.857150 -0.144098
N4    N     N_R   0.999160 0.500000 0.857150 -0.149615
O1    O     O_R   0.408400 0.908380 0.614690 -0.646757
O2    O     O_R   0.408400 0.091620 0.614690 -0.638294
O3    O     O_R   0.908400 0.408380 0.614690 -0.640803
O4    O     O_R   0.908400 0.591620 0.614690 -0.636945
O5    O     O_R   0.408370 0.908370 0.385350 -0.599512
O6    O     O_R   0.408370 0.091630 0.385350 -0.627897
O7    O     O_R   0.908370 0.408370 0.385350 -0.610202
O8    O     O_R   0.908370 0.591630 0.385350 -0.618933
O9    O     O_R   0.591610 0.091610 0.614650 -0.576896
O10   O     O_R   0.591610 0.908390 0.614650 -0.582294
O11   O     O_R   0.091610 0.591610 0.614650 -0.578190
O12   O     O_R   0.091610 0.408390 0.614650 -0.578698
O13   O     O_R   0.591590 0.091600 0.385310 -0.614599
O14   O     O_R   0.591590 0.908400 0.385310 -0.601780
O15   O     O_R   0.091590 0.591600 0.385310 -0.595351
O16   O     O_R   0.091590 0.408400 0.385310 -0.613570
Zn1   Zn    Zn3+2 0.500010 0.000000 0.653130 0.958848
Zn2   Zn    Zn3+2 0.000010 0.500000 0.653130 0.958622
Zn3   Zn    Zn3+2 0.499980 0.000000 0.346870 0.988602
Zn4   Zn    Zn3+2 0.999980 0.500000 0.346870 0.995081
C53   C     C_2   0.616353 0.745612 0.282194 0.927977
O17   O     O_2   0.536564 0.754012 0.309824 -0.636736
O18   O     O_R   0.642185 0.725728 0.150932 -0.840782
H27   H     H_    0.589144 0.722201 0.087496 0.333130
C54   C     C_2   0.728937 0.158893 0.241033 0.959425
O19   O     O_2   0.749640 0.084093 0.222628 -0.594661
O20   O     O_R   0.689479 0.208941 0.138253 -0.836606
H28   H     H_    0.678254 0.174900 0.054523 0.328437
C55   C     C_2   0.139686 0.267462 0.260186 0.943651
O21   O     O_2   0.058681 0.255788 0.272538 -0.647283
O22   O     O_R   0.177446 0.286724 0.133841 -0.834524
H29   H     H_    0.130575 0.298530 0.062147 0.332134
C56   C     C_2   0.136371 0.745162 0.262566 0.919967
O23   O     O_2   0.143285 0.691046 0.176128 -0.637588
O24   O     O_R   0.075096 0.812877 0.246913 -0.811282
H30   H     H_    0.039792 0.809986 0.160117 0.336774
C57   C     C_3   0.386768 0.246967 0.828207 -0.390333
C58   C     C_3   0.370494 0.243347 0.981033 -0.351996
C59   C     C_3   0.458693 0.249379 0.058323 -0.803747
H31   H     H_    0.503945 0.195200 0.033256 0.254617
H32   H     H_    0.493083 0.311126 0.032663 0.265046
H33   H     H_    0.444656 0.246218 0.168434 0.266893
H34   H     H_    0.327080 0.298110 0.009055 0.290479
H35   H     H_    0.335736 0.182644 0.011618 0.233571
H36   H     H_    0.442497 0.202446 0.802793 0.226111
H37   H     H_    0.408196 0.313202 0.796967 0.201691
C60   C     C_3   0.384905 0.742260 0.833232 -0.380436
C61   C     C_3   0.368949 0.747387 0.986777 -0.378985
C62   C     C_3   0.360075 0.659173 0.057110 -0.725803
H38   H     H_    0.297877 0.626712 0.024715 0.288610
H39   H     H_    0.419465 0.618410 0.034965 0.238455
H40   H     H_    0.355854 0.667176 0.167870 0.267079
H41   H     H_    0.426865 0.781025 0.032230 0.224384
H42   H     H_    0.307492 0.785317 0.008947 0.235838
H43   H     H_    0.413266 0.678638 0.806657 0.210817
H44   H     H_    0.436663 0.790815 0.803579 0.200946
C63   C     C_3   0.889161 0.751240 0.825902 -0.362786
C64   C     C_3   0.879778 0.735523 0.979499 -0.381386
C65   C     C_3   0.845518 0.813983 0.053395 -0.711986
H45   H     H_    0.886974 0.871449 0.027023 0.249981
H46   H     H_    0.774038 0.826957 0.028938 0.290566
H47   H     H_    0.850080 0.801321 0.163885 0.258904
H48   H     H_    0.834038 0.680608 0.002540 0.241193
H49   H     H_    0.946999 0.718225 0.020744 0.213513
H50   H     H_    0.945283 0.710393 0.789932 0.197876
H51   H     H_    0.908608 0.819053 0.801719 0.207075
C66   C     C_3   0.832761 0.248009 0.872939 -0.352189
C67   C     C_3   0.934828 0.256082 0.849796 -0.360406
C68   C     C_3   0.985035 0.201216 0.954986 -0.858349
H52   H     H_    0.971263 0.225344 0.057131 0.303007
H53   H     H_    0.963573 0.132914 0.951454 0.268978
H54   H     H_    0.058194 0.203217 0.934083 0.240308
H55   H     H_    0.954222 0.232903 0.748892 0.236069
H56   H     H_    0.956300 0.324079 0.856435 0.238084
H57   H     H_    0.813778 0.280516 0.967144 0.219863
H58   H     H_    0.818124 0.178423 0.890610 0.236711
C69   C     C_2   0.672451 0.996496 0.873502 0.834016
O25   O     O_2   0.686860 0.998350 0.753210 -0.588529
O26   O     O_R   0.746474 0.000216 0.959935 -0.825463
H59   H     H_    0.806113 0.004121 0.909939 0.336084
C70   C     C_2   0.171294 0.483529 0.873997 0.843405
O27   O     O_2   0.186222 0.495100 0.754721 -0.597691
O28   O     O_R   0.244654 0.468004 0.959688 -0.852318
H60   H     H_    0.304615 0.468540 0.910300 0.330008

loop_
_geom_bond_atom_site_label_1
_geom_bond_atom_site_label_2
_ccdc_geom_bond_type
C1    O5    A    
O28   H60   S    
C12   H22   S    
O7    Zn4   S    
C3    O3    A    
C2    O2    A    
C70   O27   D    
C62   H40   S    
O26   H59   S    
C15   N3    A    
C19   H5    S    
C63   H50   S    
C33   C39   A    
C49   H13   S    
C5    C57   S    
C2    C29   S    
C34   C40   A    
C32   C36   A    
C35   C37   A    
C38   C42   A    
C48   C52   S    
C65   H46   S    
C7    H19   S    
C58   H35   S    
C22   C41   S    
C4    O4    A    
C56   O23   D    
C13   N3    A    
C38   C54   S    
C7    C27   S    
C6    H18   S    
C9    N1    A    
C68   H54   S    
C14   C70   S    
O8    Zn4   S    
C59   H33   S    
C5    H17   S    
O5    Zn3   S    
C37   C41   A    
C9    C19   S    
C60   H44   S    
C61   H41   S    
C29   C33   A    
C10   C20   S    
C56   O24   S    
C17   H24   S    
C68   H52   S    
C69   O26   S    
C2    O6    A    
O12   Zn2   S    
C20   H8    S    
O4    Zn2   S    
C66   H58   S    
C25   C47   A    
C18   C20   S    
O15   Zn4   S    
C52   H16   S    
C26   C48   A    
C57   H37   S    
C27   C45   A    
C39   C55   S    
O1    Zn1   S    
O14   Zn3   S    
C25   C29   A    
C54   O20   S    
C22   O14   A    
C6    C60   S    
O6    Zn3   S    
C4    O8    A    
C19   H6    S    
C33   H1    S    
C63   H51   S    
C8    H20   S    
C49   H9    S    
C30   C34   A    
C27   C31   A    
C28   C32   A    
C51   H11   S    
C64   C65   S    
C7    C49   S    
C53   O18   S    
C52   H12   S    
C65   H47   S    
C64   H49   S    
C37   C53   S    
C10   N2    A    
C58   H34   S    
C39   C43   A    
N3    Zn1   S    
O16   Zn4   S    
C35   H3    S    
C23   C44   S    
C23   O11   A    
N2    Zn4   S    
C36   H4    S    
C24   O12   A    
C69   O25   D    
C45   C49   S    
C18   H26   S    
C28   C46   A    
C16   N4    A    
C55   O22   S    
C51   H15   S    
C20   H7    S    
C50   H14   S    
O11   Zn2   S    
C59   H31   S    
C11   N1    A    
C5    C25   S    
C23   O15   A    
C12   C14   A    
C34   H2    S    
C67   H55   S    
C65   H45   S    
C42   C46   A    
C50   H10   S    
C24   O16   A    
C14   N4    A    
C54   O19   D    
C62   H38   S    
C8    C50   S    
C58   C59   S    
O22   H29   S    
C21   O9    A    
C15   C17   S    
C22   O10   A    
C55   O21   D    
C70   O28   S    
O2    Zn1   S    
N4    Zn2   S    
C61   H42   S    
C62   H39   S    
C64   H48   S    
C47   C51   S    
C63   C64   S    
C26   C30   A    
C1    O1    A    
C21   O13   A    
O18   H27   S    
C46   C50   S    
C3    O7    A    
O9    Zn1   S    
C36   C38   A    
C61   C62   S    
C60   C61   S    
O3    Zn2   S    
C10   C16   A    
O24   H30   S    
C7    C63   S    
C11   C13   A    
C6    C26   S    
C43   C47   A    
C18   H25   S    
C8    C28   S    
C12   N2    A    
C1    C30   S    
C17   C19   S    
C8    C66   S    
C31   C35   A    
C68   H53   S    
C9    C15   A    
C3    C32   S    
C11   H21   S    
C59   H32   S    
C4    C31   S    
C21   C42   S    
C40   C56   S    
C44   C48   A    
C40   C44   A    
C60   H43   S    
C16   C18   S    
C57   C58   S    
O20   H28   S    
C53   O17   D    
C17   H23   S    
C24   C43   S    
C41   C45   A    
C67   C68   S    
N1    Zn3   S    
C67   H56   S    
C6    C52   S    
C66   C67   S    
C66   H57   S    
C13   C69   S    
O13   Zn3   S    
O10   Zn1   S    
C5    C51   S    
C57   H36   S    
