data_mof_unit_37576.cif
_audit_creation_date              2012-12-11T15:53:44-0500
_audit_creation_method            fapswitch 2.2
_symmetry_space_group_name_H-M    P1
_symmetry_Int_Tables_number       1
_space_group_crystal_system       triclinic
_cell_length_a                    10.614773
_cell_length_b                    10.66629
_cell_length_c                    16.955143
_cell_angle_alpha                 80.981479
_cell_angle_beta                  99.003018
_cell_angle_gamma                 118.305699
_cell_volume                      1661.7701347

loop_
_atom_site_label
_atom_site_type_symbol
_atom_type_description
_atom_site_fract_x
_atom_site_fract_y
_atom_site_fract_z
_atom_type_partial_charge
C1    C     C_R   0.384399 0.284986 0.632074 0.552316
C2    C     C_R   0.392383 0.831782 0.673974 -0.134454
C3    C     C_R   0.375678 0.853658 0.750102 -0.147725
C4    C     C_3   0.123210 0.461250 0.791329 -0.164783
C5    C     C_3   0.141506 0.436958 0.708850 0.108811
C6    C     C_R   0.313139 0.694744 0.646047 -0.013204
C7    C     C_1   0.851268 0.669603 0.702387 -0.020043
C8    C     C_1   0.898392 0.703662 0.769170 -0.028732
C9    C     C_1   0.364939 0.234248 0.714488 -0.050584
C10   C     C_1   0.333996 0.187246 0.781790 -0.046556
C11   C     C_1   0.338376 0.661639 0.277259 -0.048593
C12   C     C_R   0.369029 0.655336 0.585755 0.531624
C13   C     C_1   0.325999 0.670665 0.206333 -0.042456
C14   C     C_R   0.822356 0.674890 0.154258 0.052038
C15   C     C_R   0.914309 0.757448 0.214955 0.000299
C16   C     C_R   0.874092 0.728939 0.291272 0.034366
C17   C     C_R   0.637379 0.552990 0.245218 -0.138851
C18   C     C_R   0.679349 0.579213 0.167499 -0.090074
C19   C     C_3   0.065311 0.787705 0.244225 -0.276304
C20   C     C_3   0.020692 0.756254 0.328767 -0.261221
C21   C     C_R   0.740269 0.617747 0.308511 0.045094
C22   C     C_R   0.338253 0.190752 0.153312 -0.006034
C23   C     C_R   0.781682 0.621302 0.626017 0.557540
C24   C     C_R   0.243108 0.224932 0.182390 -0.040310
C25   C     C_R   0.246125 0.228131 0.262425 -0.001975
C26   C     C_R   0.455896 0.192040 0.288271 -0.166158
C27   C     C_R   0.459046 0.195721 0.205612 0.177953
C28   C     C_3   0.082379 0.169954 0.171706 -0.229694
C29   C     C_3   0.088603 0.176167 0.260850 -0.232307
C30   C     C_R   0.341729 0.197027 0.317484 -0.043384
C31   C     C_R   0.947911 0.724627 0.851560 0.531405
C32   C     C_R   0.281610 0.751198 0.882991 0.540121
C33   C     C_R   0.286862 0.118934 0.858539 0.533961
C34   C     C_R   0.352864 0.228542 0.398397 0.547040
C35   C     C_R   0.881148 0.690169 0.080953 0.563284
C36   C     C_R   0.314101 0.699588 0.123232 0.548841
C37   C     C_R   0.288979 0.114263 0.082542 0.559755
C38   C     C_R   0.366073 0.653453 0.360523 0.537572
C39   C     C_R   0.702682 0.584275 0.389380 0.552797
C40   C     C_R   0.278935 0.739204 0.798184 -0.020238
C41   C     C_R   0.178817 0.615982 0.761694 -0.023415
C42   C     C_R   0.195292 0.593999 0.686561 0.053443
Cr1   Cr    Cr6+3 0.608440 0.389080 0.519680 1.048130
Cr2   Cr    Cr6+3 0.288640 0.400090 0.490760 1.011953
Cr3   Cr    Cr6+3 0.602940 0.710800 0.489510 1.029548
Cr4   Cr    Cr6+3 0.052530 0.947560 0.964210 1.033703
Cr5   Cr    Cr6+3 0.059970 0.626800 0.992920 1.053349
Cr6   Cr    Cr6+3 0.373320 0.938440 0.995370 1.109423
H1    H     H_    0.478327 0.917031 0.641638 0.159705
H2    H     H_    0.092580 0.707630 0.227479 0.157282
H3    H     H_    0.023757 0.658623 0.361380 0.168092
H4    H     H_    0.072684 0.852038 0.362982 0.139320
H5    H     H_    0.544417 0.190101 0.329155 0.169375
H6    H     H_    0.019972 0.058364 0.155122 0.177841
H7    H     H_    0.050895 0.248138 0.134636 0.174326
H8    H     H_    0.062980 0.259375 0.275069 0.183533
H9    H     H_    0.033371 0.069319 0.294560 0.146440
H10   H     H_    0.446888 0.955378 0.773782 0.150807
H11   H     H_    0.009385 0.411858 0.805013 0.188359
H12   H     H_    0.197200 0.440979 0.839567 0.119676
H13   H     H_    0.222370 0.398664 0.709141 0.124185
H14   H     H_    0.527820 0.478673 0.256509 0.104087
H15   H     H_    0.603601 0.521001 0.119568 0.142535
H16   H     H_    0.143698 0.901178 0.229793 0.133486
O1    O     O_R   0.754020 0.497590 0.609930 -0.478022
O2    O     O_R   0.295080 0.533620 0.397890 -0.498623
O3    O     O_R   0.485280 0.746620 0.388440 -0.517542
O4    O     O_R   0.720550 0.696220 0.420010 -0.495967
O5    O     O_3   0.500010 0.499990 0.499980 -0.295695
O6    O     O_R   0.163320 0.092900 0.874450 -0.508224
O7    O     O_R   0.934650 0.822080 0.882840 -0.478401
O8    O     O_R   0.915520 0.604140 0.893670 -0.501047
O9    O     O_R   0.191760 0.638110 0.923230 -0.517870
O10   O     O_R   0.406180 0.826930 0.920660 -0.496600
O11   O     O_R   0.358620 0.062870 0.901950 -0.508790
O12   O     O_R   0.481420 0.271390 0.600630 -0.482859
O13   O     O_R   0.163910 0.085460 0.050210 -0.534086
O14   O     O_R   0.935200 0.815170 0.045770 -0.504759
O15   O     O_R   0.916120 0.596690 0.069430 -0.453573
O16   O     O_R   0.192310 0.631200 0.086170 -0.500730
O17   O     O_R   0.406770 0.819480 0.096420 -0.450861
O18   O     O_R   0.359170 0.055960 0.064880 -0.424372
O19   O     O_3   0.161940 0.837600 0.984160 -0.314622
O20   O     O_R   0.263810 0.254550 0.589590 -0.507020
O21   O     O_R   0.300820 0.531200 0.560890 -0.524499
O22   O     O_R   0.491480 0.744020 0.564270 -0.509607
O23   O     O_R   0.726290 0.693800 0.583010 -0.492187
O24   O     O_R   0.747830 0.500190 0.434090 -0.502036
O25   O     O_R   0.475680 0.273800 0.437630 -0.515252
O26   O     O_R   0.257620 0.257160 0.413750 -0.504573
S1    S     S_3+6 0.616318 0.210869 0.172232 0.012861
O27   O     O_2   0.631153 0.274947 0.086580 -0.250017
O28   O     O_2   0.746403 0.305237 0.223673 -0.301419
O29   O     O_3   0.608759 0.048589 0.179763 -0.477324
H17   H     H_    0.595116 0.011449 0.236767 0.332862
O30   O     O_3   0.008982 0.356666 0.666456 -0.669373
H18   H     H_    0.031709 0.346024 0.614087 0.343904

loop_
_geom_bond_atom_site_label_1
_geom_bond_atom_site_label_2
_ccdc_geom_bond_type
C5    C42   S    
C16   C21   A    
C39   O4    A    
C14   C18   A    
Cr2   O2    S    
C19   C20   S    
Cr5   O15   S    
C7    C8    T    
C1    O20   A    
C15   C19   S    
C26   C27   A    
Cr1   O25   S    
C12   O21   A    
Cr1   O24   S    
C39   O24   A    
C28   C29   S    
Cr3   O23   S    
C20   H3    S    
C6    C12   S    
C18   H15   S    
C4    C41   S    
C15   C16   A    
Cr1   O12   S    
Cr6   O17   S    
C41   C42   A    
C33   O11   A    
C38   O2    A    
Cr3   O3    S    
C27   S1    S    
Cr5   O19   S    
C9    C10   T    
C19   H16   S    
S1    O27   D    
Cr1   O1    S    
C31   O7    A    
Cr1   O5    S    
C23   O23   A    
C8    C31   S    
Cr6   O11   S    
C2    C6    A    
Cr5   O16   S    
C28   H7    S    
C25   C29   S    
C30   C34   S    
Cr3   O5    S    
Cr6   O10   S    
C1    C9    S    
C24   C25   A    
Cr5   O9    S    
C13   C36   S    
C36   O16   A    
C32   O9    A    
Cr4   O14   S    
C28   H6    S    
C22   C37   S    
C37   O13   A    
C17   C21   A    
C11   C38   S    
C34   O26   A    
C2    H1    S    
C17   H14   S    
S1    O28   D    
C21   C39   S    
C36   O17   A    
C16   C20   S    
O30   H18   S    
C4    H12   S    
Cr3   O4    S    
C17   C18   A    
C5    H13   S    
Cr2   O5    S    
Cr4   O7    S    
C33   O6    A    
C31   O8    A    
C29   H9    S    
C3    C40   A    
C26   C30   A    
C22   C27   A    
C22   C24   A    
C37   O18   A    
Cr2   O21   S    
C26   H5    S    
C14   C35   S    
C5    O30   S    
Cr2   O26   S    
C25   C30   A    
C40   C41   A    
C1    O12   A    
C24   C28   S    
C4    C5    S    
Cr2   O20   S    
Cr4   O13   S    
C29   H8    S    
C35   O14   A    
Cr6   O19   S    
C12   O22   A    
C23   O1    A    
C2    C3    A    
C34   O25   A    
C20   H4    S    
S1    O29   S    
C32   O10   A    
C11   C13   T    
C19   H2    S    
C7    C23   S    
C4    H11   S    
C35   O15   A    
Cr6   O18   S    
Cr3   O22   S    
C10   C33   S    
C32   C40   S    
O29   H17   S    
Cr5   O8    S    
Cr4   O6    S    
Cr4   O19   S    
C3    H10   S    
C38   O3    A    
C6    C42   A    
C14   C15   A    
