data_mof_unit_25664.cif
_audit_creation_date              2012-12-11T14:30:23-0500
_audit_creation_method            fapswitch 2.2
_symmetry_space_group_name_H-M    P1
_symmetry_Int_Tables_number       1
_space_group_crystal_system       triclinic
_cell_length_a                    12.7135
_cell_length_b                    12.713401
_cell_length_c                    27.042435
_cell_angle_alpha                 90.000151
_cell_angle_beta                  89.999815
_cell_angle_gamma                 120.000924
_cell_volume                      3785.29085354

loop_
_atom_site_label
_atom_site_type_symbol
_atom_type_description
_atom_site_fract_x
_atom_site_fract_y
_atom_site_fract_z
_atom_type_partial_charge
C1    C     C_R   0.558512 0.455862 0.822257 0.540430
C2    C     C_R   0.456532 0.559021 0.177678 0.541034
C3    C     C_R   0.027737 0.319297 0.476793 0.232404
C4    C     C_R   0.291712 0.972606 0.023250 0.232401
C5    C     C_R   0.680706 0.708438 0.476791 0.232406
C6    C     C_R   0.296028 0.975924 0.528594 0.233026
C7    C     C_R   0.023867 0.319960 0.971424 0.233038
C8    C     C_R   0.679877 0.703985 0.528602 0.233038
C9    C     C_R   0.296117 0.976191 0.971438 0.233021
C10   C     C_R   0.024117 0.320129 0.528603 0.233043
C11   C     C_R   0.680060 0.703896 0.971430 0.233017
C12   C     C_R   0.440975 0.897507 0.322323 0.541015
C13   C     C_R   0.102490 0.543467 0.177677 0.541029
C14   C     C_R   0.989705 0.492992 0.974262 0.012236
C15   C     C_R   0.503326 0.010365 0.525733 0.012217
C16   C     C_R   0.507017 0.496699 0.974266 0.012239
C17   C     C_R   0.989666 0.492979 0.525737 0.012214
C18   C     C_R   0.503307 0.010342 0.974269 0.012239
C19   C     C_R   0.507027 0.496678 0.525736 0.012216
C20   C     C_R   0.495199 0.997476 0.474049 0.012796
C21   C     C_R   0.897347 0.441490 0.677743 0.540406
C22   C     C_R   0.002580 0.497758 0.025947 0.012811
C23   C     C_R   0.502265 0.504812 0.474053 0.012795
C24   C     C_R   0.495207 0.997471 0.025954 0.012815
C25   C     C_R   0.002559 0.497740 0.474054 0.012794
C26   C     C_R   0.502249 0.504805 0.025950 0.012817
C27   C     C_R   0.950686 0.661775 0.977722 -0.069357
C28   C     C_R   0.711241 0.049714 0.522247 -0.069291
C29   C     C_R   0.338212 0.288907 0.977721 -0.069380
C30   C     C_R   0.950292 0.661530 0.522248 -0.069284
C31   C     C_R   0.711086 0.049299 0.977720 -0.069370
C32   C     C_R   0.544138 0.102653 0.822258 0.540431
C33   C     C_R   0.338479 0.288751 0.522246 -0.069299
C34   C     C_R   0.701588 0.032935 0.471129 -0.070626
C35   C     C_R   0.967468 0.668912 0.028840 -0.070681
C36   C     C_R   0.331348 0.298412 0.471128 -0.070624
C37   C     C_R   0.701447 0.032518 0.028838 -0.070698
C38   C     C_R   0.967082 0.668660 0.471130 -0.070615
C39   C     C_R   0.331073 0.298550 0.028839 -0.070709
C40   C     C_R   0.943185 0.566152 0.898972 -0.112338
C41   C     C_R   0.623050 0.056990 0.601013 -0.112251
C42   C     C_R   0.433844 0.377031 0.898972 -0.112342
C43   C     C_R   0.558511 0.455856 0.677743 0.540409
C44   C     C_R   0.942993 0.566052 0.601013 -0.112247
C45   C     C_R   0.622959 0.056805 0.898972 -0.112346
C46   C     C_R   0.433952 0.376934 0.601011 -0.112251
C47   C     C_R   0.580248 0.978202 0.395970 -0.123017
C48   C     C_R   0.021958 0.602156 0.104016 -0.122999
C49   C     C_R   0.397954 0.419757 0.395971 -0.123019
C50   C     C_R   0.580206 0.978033 0.104016 -0.123008
C51   C     C_R   0.021811 0.602048 0.395973 -0.123010
C52   C     C_R   0.397830 0.419797 0.104016 -0.123018
C53   C     C_R   0.047969 0.520151 0.127922 -0.017057
C54   C     C_R   0.897352 0.441489 0.822257 0.540426
C55   C     C_R   0.472164 0.952021 0.372080 -0.017055
C56   C     C_R   0.479849 0.527806 0.127924 -0.017056
C57   C     C_R   0.048004 0.520150 0.372085 -0.017048
C58   C     C_R   0.472208 0.952063 0.127927 -0.017068
C59   C     C_R   0.479849 0.527851 0.372084 -0.017047
C60   C     C_R   0.525173 0.048876 0.628116 -0.017151
C61   C     C_R   0.951162 0.476299 0.871880 -0.017154
C62   C     C_R   0.523693 0.474822 0.628118 -0.017150
C63   C     C_R   0.525138 0.048859 0.871884 -0.017152
C64   C     C_R   0.951137 0.476311 0.628120 -0.017151
C65   C     C_R   0.544143 0.102656 0.677742 0.540408
C66   C     C_R   0.523708 0.474859 0.871882 -0.017153
C67   C     C_R   0.963000 0.575399 0.950066 0.013271
C68   C     C_R   0.612493 0.037215 0.549916 0.013357
C69   C     C_R   0.424600 0.387595 0.950067 0.013266
C70   C     C_R   0.962791 0.575282 0.549918 0.013362
C71   C     C_R   0.612402 0.037010 0.950068 0.013259
C72   C     C_R   0.424725 0.387500 0.549917 0.013360
C73   C     C_R   0.593409 0.004117 0.446778 0.012362
C74   C     C_R   0.996088 0.589427 0.053205 0.012273
C75   C     C_R   0.410704 0.406597 0.446780 0.012366
C76   C     C_R   0.456531 0.559028 0.322324 0.541023
C77   C     C_R   0.593354 0.003925 0.053207 0.012261
C78   C     C_R   0.995906 0.589301 0.446781 0.012367
C79   C     C_R   0.410567 0.406652 0.053206 0.012265
C80   C     C_R   0.987804 0.401752 0.895564 -0.103691
C81   C     C_R   0.413957 0.012144 0.604441 -0.103744
C82   C     C_R   0.598271 0.586044 0.895569 -0.103700
C83   C     C_R   0.987916 0.401859 0.604449 -0.103731
C84   C     C_R   0.413963 0.012263 0.895575 -0.103699
C85   C     C_R   0.598150 0.586052 0.604447 -0.103738
C86   C     C_R   0.381378 0.960538 0.398583 -0.100163
C87   C     C_R   0.440982 0.897515 0.177679 0.541029
C88   C     C_R   0.039317 0.420774 0.101430 -0.100156
C89   C     C_R   0.579136 0.618652 0.398590 -0.100156
C90   C     C_R   0.381514 0.960780 0.101443 -0.100168
C91   C     C_R   0.039516 0.420863 0.398591 -0.100158
C92   C     C_R   0.579244 0.618519 0.101436 -0.100163
C93   C     C_R   0.002814 0.405640 0.946838 -0.025159
C94   C     C_R   0.402823 0.997121 0.553168 -0.025235
C95   C     C_R   0.594379 0.597162 0.946843 -0.025165
C96   C     C_R   0.002925 0.405732 0.553176 -0.025230
C97   C     C_R   0.402848 0.997249 0.946849 -0.025167
C98   C     C_R   0.102498 0.543469 0.322324 0.541022
C99   C     C_R   0.594275 0.597186 0.553174 -0.025231
C100  C     C_R   0.389289 0.978355 0.449607 -0.025205
C101  C     C_R   0.021535 0.410877 0.050403 -0.025129
C102  C     C_R   0.589047 0.610733 0.449613 -0.025209
C103  C     C_R   0.389385 0.978543 0.050415 -0.025128
C104  C     C_R   0.021692 0.410955 0.449614 -0.025209
C105  C     C_R   0.589139 0.610638 0.050409 -0.025131
C106  C     C_R   0.027459 0.319138 0.023236 0.232408
C107  C     C_R   0.291582 0.972306 0.476784 0.232398
C108  C     C_R   0.680882 0.708306 0.023243 0.232390
Cl1   Cl    Cl    0.036628 0.200496 0.053480 -0.537055
Cl2   Cl    Cl    0.167017 0.955280 0.938058 -0.519084
Cl3   Cl    Cl    0.045080 0.211993 0.562000 -0.518850
Cl4   Cl    Cl    0.788272 0.832983 0.938049 -0.519106
Cl5   Cl    Cl    0.163671 0.962953 0.446553 -0.536939
Cl6   Cl    Cl    0.799514 0.836129 0.053488 -0.537058
Cl7   Cl    Cl    0.037064 0.200724 0.446564 -0.536918
Cl8   Cl    Cl    0.163873 0.963371 0.053498 -0.537046
Cl9   Cl    Cl    0.799278 0.836343 0.446563 -0.536920
Cl10  Cl    Cl    0.166913 0.954920 0.561990 -0.518862
Cl11  Cl    Cl    0.044719 0.211738 0.938041 -0.519112
Cl12  Cl    Cl    0.788010 0.833088 0.561999 -0.518864
Cr1   Cr    Cr6+3 0.487630 0.241180 0.750000 1.059894
Cr2   Cr    Cr6+3 0.753550 0.512370 0.750000 1.059902
Cr3   Cr    Cr6+3 0.758820 0.246450 0.750000 1.059903
Cr4   Cr    Cr6+3 0.241180 0.487630 0.250000 1.051550
Cr5   Cr    Cr6+3 0.512370 0.753550 0.250000 1.051549
Cr6   Cr    Cr6+3 0.246450 0.758820 0.250000 1.051559
H1    H     H_    0.026129 0.677655 0.124347 0.151837
H2    H     H_    0.709274 0.085200 0.880948 0.159212
H3    H     H_    0.914429 0.623856 0.619020 0.159220
H4    H     H_    0.375942 0.290705 0.880951 0.159196
H5    H     H_    0.957505 0.736141 0.049471 0.229997
H6    H     H_    0.778826 0.043041 0.450487 0.229740
H7    H     H_    0.263834 0.221359 0.049469 0.230002
H8    H     H_    0.956977 0.735792 0.450487 0.229738
H9    H     H_    0.778634 0.042459 0.049466 0.230016
H10   H     H_    0.264217 0.221173 0.450485 0.229740
H11   H     H_    0.795664 0.071704 0.540235 0.226313
H12   H     H_    0.651623 0.974144 0.375629 0.151779
H13   H     H_    0.928841 0.724299 0.959723 0.226592
H14   H     H_    0.276049 0.204323 0.540232 0.226302
H15   H     H_    0.795445 0.071120 0.959719 0.226614
H16   H     H_    0.928296 0.723961 0.540235 0.226312
H17   H     H_    0.275678 0.204540 0.959722 0.226599
H18   H     H_    0.056967 0.356139 0.120168 0.199492
H19   H     H_    0.299038 0.942757 0.379859 0.199511
H20   H     H_    0.643898 0.700793 0.120177 0.199491
H21   H     H_    0.057322 0.356316 0.379870 0.199506
H22   H     H_    0.299259 0.943192 0.120188 0.199503
H23   H     H_    0.322313 0.348479 0.124343 0.151829
H24   H     H_    0.643683 0.701008 0.379870 0.199505
H25   H     H_    0.338885 0.004884 0.625911 0.198116
H26   H     H_    0.994995 0.333887 0.874101 0.198117
H27   H     H_    0.665932 0.661139 0.625923 0.198109
H28   H     H_    0.338917 0.005110 0.874118 0.198119
H29   H     H_    0.995226 0.334080 0.625925 0.198108
H30   H     H_    0.666149 0.661097 0.874109 0.198117
H31   H     H_    0.025849 0.677469 0.375628 0.151780
H32   H     H_    0.651512 0.973810 0.124341 0.151844
H33   H     H_    0.322533 0.348372 0.375628 0.151774
H34   H     H_    0.709405 0.085513 0.619024 0.159227
H35   H     H_    0.914745 0.624042 0.880953 0.159201
H36   H     H_    0.376146 0.290565 0.619019 0.159209
O1    O     O_R   0.460870 0.120930 0.805240 -0.510592
O2    O     O_R   0.120930 0.460870 0.194760 -0.513770
O3    O     O_R   0.539130 0.660060 0.305240 -0.513779
O4    O     O_R   0.339940 0.879070 0.194760 -0.513762
O5    O     O_R   0.498910 0.350470 0.801870 -0.495743
O6    O     O_R   0.851560 0.501090 0.698130 -0.495754
O7    O     O_R   0.649530 0.148440 0.801870 -0.495736
O8    O     O_R   0.498910 0.350470 0.698130 -0.495756
O9    O     O_R   0.851560 0.501090 0.801870 -0.495743
O10   O     O_R   0.649530 0.148440 0.698130 -0.495748
O11   O     O_R   0.350470 0.498910 0.301870 -0.494372
O12   O     O_R   0.660060 0.539130 0.694760 -0.510580
O13   O     O_R   0.501090 0.851560 0.198130 -0.494378
O14   O     O_R   0.148440 0.649530 0.301870 -0.494364
O15   O     O_R   0.350470 0.498910 0.198130 -0.494381
O16   O     O_R   0.501090 0.851560 0.301870 -0.494372
O17   O     O_R   0.148440 0.649530 0.198130 -0.494363
O18   O     O_3   0.666667 0.333333 0.750000 -0.254799
O19   O     O_3   0.333333 0.666667 0.250000 -0.249385
O20   O     O_R   0.879070 0.339940 0.805240 -0.510581
O21   O     O_R   0.460870 0.120930 0.694760 -0.510589
O22   O     O_R   0.660060 0.539130 0.805240 -0.510588
O23   O     O_R   0.879070 0.339940 0.694760 -0.510576
O24   O     O_R   0.120930 0.460870 0.305240 -0.513779
O25   O     O_R   0.539130 0.660060 0.194760 -0.513767
O26   O     O_R   0.339940 0.879070 0.305240 -0.513777

loop_
_geom_bond_atom_site_label_1
_geom_bond_atom_site_label_2
_ccdc_geom_bond_type
C3    C104  A    
C12   O16   A    
C32   O7    A    
C4    C103  A    
C35   C74   A    
Cr3   O23   S    
C89   C102  A    
C45   C71   A    
Cr5   O3    S    
C91   C104  A    
C58   C87   S    
C15   C94   A    
C91   H21   S    
C88   C101  A    
C64   C83   A    
C44   C64   A    
Cr2   O18   S    
C22   C101  A    
C46   C62   A    
C18   C24   A    
C84   C97   A    
C76   O11   A    
C28   C68   A    
C8    C99   A    
Cr3   O20   S    
C65   O21   A    
C43   O12   A    
C87   O4    A    
C83   H29   S    
C15   C68   A    
C33   H14   S    
Cr1   O1    S    
C32   O1    A    
C18   C71   A    
C33   C36   A    
C30   C38   A    
C59   C89   A    
C108  Cl6   S    
C2    O25   A    
C107  Cl5   S    
C21   C64   S    
C90   H22   S    
C33   C72   A    
C30   C70   A    
C84   H28   S    
C1    O22   A    
C52   H23   S    
C6    C94   A    
C40   C67   A    
C6    C107  A    
C54   O20   A    
C44   C70   A    
C51   C57   A    
C18   C97   A    
C41   C68   A    
C52   C79   A    
C86   C100  A    
C14   C93   A    
C46   C72   A    
Cr3   O10   S    
Cr1   O21   S    
C82   H30   S    
C31   C71   A    
Cr1   O8    S    
C34   H6    S    
C17   C70   A    
C76   O3    A    
C12   O26   A    
C19   C72   A    
C15   C20   A    
Cr1   O5    S    
C36   H10   S    
C26   C105  A    
C62   C85   A    
C43   O8    A    
Cr1   O18   S    
C29   C69   A    
C16   C26   A    
C48   C53   A    
C7    C93   A    
C105  C108  A    
Cr2   O6    S    
C16   C69   A    
C65   O10   A    
C92   H20   S    
C25   C78   A    
C50   C58   A    
C7    Cl11  S    
C10   Cl3   S    
C47   C73   A    
C37   H9    S    
C19   C99   A    
Cr4   O11   S    
C38   C78   A    
C27   C35   A    
C44   H3    S    
Cr2   O12   S    
Cr5   O19   S    
C45   C63   A    
C42   C69   A    
C27   H13   S    
C40   C61   A    
C31   C37   A    
C5    Cl9   S    
C39   C79   A    
C31   H15   S    
C19   C23   A    
C13   C53   S    
C85   C99   A    
C36   C75   A    
C48   C74   A    
C66   C82   A    
C41   H34   S    
C98   O14   A    
C60   C81   A    
C24   C77   A    
C20   C100  A    
C10   C96   A    
C14   C67   A    
C29   C39   A    
C49   C75   A    
C1    C66   S    
C7    C106  A    
Cr6   O17   S    
C42   H4    S    
C17   C96   A    
C85   H27   S    
C58   C90   A    
Cr4   O15   S    
Cr3   O7    S    
C89   H24   S    
C2    O15   A    
C60   C65   S    
C22   C74   A    
Cr5   O13   S    
C86   H19   S    
C35   H5    S    
C11   C108  A    
Cr6   O14   S    
Cr2   O22   S    
C8    Cl12  S    
C13   O2    A    
C47   C55   A    
C39   H7    S    
C11   C95   A    
C101  C106  A    
C80   H26   S    
C5    C102  A    
C100  C107  A    
C9    C97   A    
C82   C95   A    
C57   C91   A    
C11   Cl4   S    
C21   O6    A    
C54   O9    A    
C4    Cl8   S    
C28   H11   S    
C41   C60   A    
C23   C75   A    
Cr3   O18   S    
Cr6   O4    S    
C50   H32   S    
C49   C59   A    
C5    C8    A    
C45   H2    S    
C25   C104  A    
C21   O23   A    
C9    Cl2   S    
C54   C61   S    
C32   C63   S    
C87   O13   A    
C26   C79   A    
C30   H16   S    
C63   C84   A    
Cr5   O25   S    
C24   C103  A    
C17   C25   A    
C14   C22   A    
C55   C86   A    
Cr6   O26   S    
C80   C93   A    
C51   C78   A    
C40   H35   S    
C98   O24   A    
C3    C10   A    
C3    Cl7   S    
C48   H1    S    
Cr4   O24   S    
C81   C94   A    
C16   C95   A    
C37   C77   A    
C83   C96   A    
C47   H12   S    
C13   O17   A    
C51   H31   S    
C20   C73   A    
C53   C88   A    
C38   H8    S    
C57   C98   S    
C90   C103  A    
C12   C55   S    
C27   C67   A    
C34   C73   A    
C28   C34   A    
C23   C102  A    
C92   C105  A    
Cr4   O19   S    
C81   H25   S    
Cr5   O16   S    
Cr2   O9    S    
C46   H36   S    
C50   C77   A    
C42   C66   A    
C1    O5    A    
C49   H33   S    
Cr6   O19   S    
C2    C56   S    
C61   C80   A    
C4    C9    A    
C56   C92   A    
C59   C76   S    
C88   H18   S    
C52   C56   A    
C43   C62   S    
C6    Cl10  S    
Cr4   O2    S    
C106  Cl1   S    
C29   H17   S    
