data_mof_unit_55501.cif
_audit_creation_date              2012-12-11T17:01:22-0500
_audit_creation_method            fapswitch 2.2
_symmetry_space_group_name_H-M    P1
_symmetry_Int_Tables_number       1
_space_group_crystal_system       triclinic
_cell_length_a                    19.384648
_cell_length_b                    7.106585
_cell_length_c                    17.576129
_cell_angle_alpha                 90.000015
_cell_angle_beta                  108.570693
_cell_angle_gamma                 90.0
_cell_volume                      2295.19204968

loop_
_atom_site_label
_atom_site_type_symbol
_atom_type_description
_atom_site_fract_x
_atom_site_fract_y
_atom_site_fract_z
_atom_type_partial_charge
O1    O     O_R   0.413720 0.494330 0.415730 -0.547122
O2    O     O_R   0.586280 0.994330 0.584270 -0.547122
O3    O     O_R   0.560210 0.819300 0.430070 -0.554055
O4    O     O_R   0.439790 0.319300 0.569930 -0.554055
C1    C     C_R   0.581605 0.655391 0.414653 0.724456
C2    C     C_R   0.418395 0.155391 0.585347 0.724456
O5    O     O_R   0.412670 0.823730 0.406310 -0.512451
O6    O     O_R   0.587330 0.323730 0.593690 -0.512451
O7    O     O_R   0.437690 0.998790 0.560340 -0.529406
O8    O     O_R   0.562310 0.498790 0.439660 -0.529406
C3    C     C_R   0.385233 0.655363 0.383608 0.751144
C4    C     C_R   0.614767 0.155362 0.616392 0.751143
O9    O     O_3   0.508380 0.662350 0.550560 -0.381015
O10   O     O_3   0.491620 0.162350 0.449440 -0.381015
V1    V     V_3+5 0.498450 0.935370 0.490620 1.470075
V2    V     V_3+5 0.501550 0.435370 0.509380 1.470074
C5    C     C_R   0.695624 0.001542 0.742362 -0.034181
C6    C     C_R   0.304376 0.501542 0.257637 -0.034181
C7    C     C_R   0.682494 0.148107 0.686157 -0.211881
C8    C     C_R   0.317505 0.648107 0.313843 -0.211881
C9    C     C_R   0.735494 0.291635 0.699885 0.615785
C10   C     C_R   0.264506 0.791635 0.300115 0.615784
C11   C     C_R   0.800644 0.280555 0.764978 -0.254041
C12   C     C_R   0.199355 0.780555 0.235021 -0.254041
H1    H     H_    0.840987 0.390268 0.772199 0.155123
H2    H     H_    0.159013 0.890268 0.227801 0.155123
C13   C     C_R   0.815910 0.123139 0.816554 -0.173893
C14   C     C_R   0.184090 0.623139 0.183446 -0.173893
C15   C     C_R   0.760782 0.988595 0.805461 0.083992
C16   C     C_R   0.239218 0.488595 0.194539 0.083993
C17   C     C_3   0.763475 0.779881 0.797897 -0.362113
C18   C     C_3   0.236525 0.279881 0.202103 -0.362113
C19   C     C_3   0.692164 0.794169 0.729335 -0.299948
C20   C     C_3   0.307836 0.294169 0.270665 -0.299949
H3    H     H_    0.757937 0.706124 0.851422 0.151902
H4    H     H_    0.242063 0.206124 0.148578 0.151902
H5    H     H_    0.809826 0.732572 0.778311 0.192478
H6    H     H_    0.190174 0.232571 0.221689 0.192478
H7    H     H_    0.645482 0.728991 0.743319 0.153207
H8    H     H_    0.354519 0.228991 0.256680 0.153207
H9    H     H_    0.696964 0.756788 0.669912 0.241609
H10   H     H_    0.303036 0.256787 0.330087 0.241609
C21   C     C_R   0.322453 0.300889 0.633819 -0.150675
C22   C     C_R   0.677547 0.800889 0.366181 -0.150674
C23   C     C_R   0.368839 0.148159 0.634439 -0.105064
C24   C     C_R   0.631161 0.648159 0.365560 -0.105064
C25   C     C_R   0.367432 0.989765 0.681856 -0.141117
C26   C     C_R   0.632567 0.489765 0.318144 -0.141117
C27   C     C_R   0.321310 0.984738 0.729398 0.100404
C28   C     C_R   0.678690 0.484739 0.270602 0.100403
C29   C     C_R   0.274464 0.137723 0.727907 -0.024034
C30   C     C_R   0.725536 0.637723 0.272093 -0.024033
C31   C     C_R   0.274572 0.296010 0.679300 -0.018422
C32   C     C_R   0.725427 0.796010 0.320700 -0.018421
C33   C     C_R   0.321256 0.828978 0.778323 -0.210323
C34   C     C_R   0.678743 0.328978 0.221676 -0.210321
C35   C     C_R   0.275404 0.823574 0.826241 0.437168
C36   C     C_R   0.724596 0.323575 0.173759 0.437169
C37   C     C_R   0.226809 0.973523 0.823115 0.024998
C38   C     C_R   0.773191 0.473523 0.176885 0.024997
C39   C     C_R   0.227049 0.131884 0.774547 -0.010591
C40   C     C_R   0.772951 0.631884 0.225453 -0.010589
C41   C     C_R   0.179701 0.284455 0.772308 0.055563
C42   C     C_R   0.820299 0.784455 0.227691 0.055563
C43   C     C_R   0.179546 0.439615 0.722931 -0.187780
C44   C     C_R   0.820454 0.939615 0.277069 -0.187782
C45   C     C_R   0.226459 0.445737 0.676798 0.605177
C46   C     C_R   0.773540 0.945738 0.323201 0.605178
C47   C     C_R   0.178356 0.969053 0.868073 -0.190720
C48   C     C_R   0.821644 0.469053 0.131927 -0.190723
C49   C     C_R   0.131546 0.121300 0.866708 -0.104594
C50   C     C_R   0.868454 0.621300 0.133292 -0.104593
C51   C     C_R   0.133019 0.279219 0.819126 -0.134284
C52   C     C_R   0.866981 0.779219 0.180874 -0.134284
H11   H     H_    0.322908 0.422449 0.596729 0.180695
H12   H     H_    0.677092 0.922449 0.403271 0.180694
H13   H     H_    0.403187 0.871801 0.682841 0.114091
H14   H     H_    0.596812 0.371802 0.317158 0.114091
H15   H     H_    0.356446 0.710004 0.779025 0.126423
H16   H     H_    0.643553 0.210005 0.220974 0.126425
H17   H     H_    0.177754 0.848207 0.905458 0.164373
H18   H     H_    0.822246 0.348207 0.094542 0.164372
H19   H     H_    0.096912 0.396787 0.817458 0.127388
H20   H     H_    0.903088 0.896787 0.182542 0.127388
H21   H     H_    0.143256 0.557195 0.720329 0.154302
H22   H     H_    0.856744 0.057195 0.279671 0.154302
O11   O     O_R   0.937800 0.775460 0.060470 -0.537338
O12   O     O_R   0.062200 0.275460 0.939530 -0.537338
O13   O     O_R   0.087350 0.441340 0.093710 -0.537999
O14   O     O_R   0.912650 0.941340 0.906290 -0.537999
C53   C     C_R   0.114688 0.610268 0.116380 0.727021
C54   C     C_R   0.885312 0.110268 0.883620 0.727020
O15   O     O_R   0.939820 0.446010 0.069950 -0.542222
O16   O     O_R   0.060180 0.946010 0.930050 -0.542223
O17   O     O_R   0.913690 0.271230 0.915700 -0.541833
O18   O     O_R   0.086310 0.771230 0.084300 -0.541833
C55   C     C_R   0.918444 0.614250 0.084659 0.700152
C56   C     C_R   0.081556 0.114250 0.915341 0.700152
O19   O     O_3   0.991670 0.603050 0.949510 -0.375333
O20   O     O_3   0.008330 0.103050 0.050490 -0.375333
V3    V     V_3+5 0.001550 0.329940 0.009370 1.411627
V4    V     V_3+5 0.998450 0.829940 0.990630 1.411628
F1    F     F_    0.727499 0.433786 0.646365 -0.698317
F2    F     F_    0.272501 0.933786 0.353635 -0.698317
O21   O     O_3   0.274223 0.665280 0.871630 -0.556260
C57   C     C_3   0.336431 0.666554 0.940374 -0.296736
H23   H     H_    0.332782 0.546185 0.979100 0.169651
H24   H     H_    0.339400 0.797559 0.976085 0.131178
H25   H     H_    0.387041 0.648335 0.924225 0.133490
O22   O     O_3   0.725776 0.165281 0.128369 -0.556260
C58   C     C_3   0.663573 0.166573 0.059620 -0.296740
H26   H     H_    0.667220 0.046201 0.020894 0.169652
H27   H     H_    0.660615 0.297578 0.023911 0.131179
H28   H     H_    0.612959 0.148375 0.075761 0.133492
F3    F     F_    0.224538 0.598088 0.629523 -0.679723
F4    F     F_    0.775462 0.098088 0.370477 -0.679723

loop_
_geom_bond_atom_site_label_1
_geom_bond_atom_site_label_2
_ccdc_geom_bond_type
C35   O21   S    
C41   C43   A    
C2    C23   S    
O18   V4    S    
C13   C15   A    
C5    C15   A    
C44   C46   A    
C58   H26   S    
O1    C3    A    
O2    C4    A    
C2    O7    A    
O12   V3    S    
C25   C27   A    
O5    C3    A    
C19   H7    S    
C20   H8    S    
C18   H4    S    
C7    C9    A    
C12   H2    S    
C35   C37   A    
C32   C46   A    
C57   H23   S    
O16   C56   A    
C36   C38   A    
C10   F2    S    
C38   C40   A    
C26   H14   S    
C47   C49   A    
C45   F3    S    
O22   C58   S    
O14   V4    S    
C40   C42   A    
C53   O18   A    
C21   C31   A    
C30   C32   A    
C14   C16   A    
C43   C45   A    
C20   H10   S    
C28   C30   A    
C17   C19   S    
C6    C16   A    
C11   C13   A    
O13   C53   A    
C6    C8    A    
C26   C28   A    
O6    V2    S    
C58   H28   S    
C5    C19   S    
C48   H18   S    
C22   C24   A    
C50   C55   S    
C23   C25   A    
C21   H11   S    
C49   C56   S    
C24   C26   A    
C3    C8    S    
C37   C39   A    
C50   C52   A    
O15   V3    S    
C49   C51   A    
C41   C51   A    
C27   C29   A    
C27   C33   A    
C54   O17   A    
C28   C34   A    
C17   H5    S    
C29   C31   A    
C42   C44   A    
O4    V2    S    
O11   V4    S    
C33   H15   S    
O14   C54   A    
C38   C48   A    
O6    C4    A    
O20   V4    S    
C13   C54   S    
C58   H27   S    
O1    V2    S    
O2    V1    S    
C6    C20   S    
C46   F4    S    
O4    C2    A    
O19   V3    S    
C8    C10   A    
C18   H6    S    
C9    C11   A    
C17   H3    S    
C25   H13   S    
O15   C55   A    
O3    V1    S    
C1    C24   S    
C37   C47   A    
O13   V3    S    
C36   O22   S    
C39   C41   A    
C12   C14   A    
C52   H20   S    
O3    C1    A    
C44   H22   S    
C48   C50   A    
C43   H21   S    
O21   C57   S    
C34   H16   S    
C19   H9    S    
C33   C35   A    
O7    V1    S    
C1    O8    A    
C21   C23   A    
C30   C40   A    
C16   C18   S    
C29   C39   A    
C57   H24   S    
C4    C7    S    
O5    V1    S    
O20   V3    S    
C5    C7    A    
C34   C36   A    
C14   C53   S    
C10   C12   A    
C11   H1    S    
C31   C45   A    
C47   H17   S    
C9    F1    S    
C22   C32   A    
O19   V4    S    
O16   V4    S    
C15   C17   S    
O9    V2    S    
C42   C52   A    
O10   V1    S    
O8    V2    S    
C22   H12   S    
C51   H19   S    
O12   C56   A    
O17   V3    S    
C18   C20   S    
O11   C55   A    
C57   H25   S    
