data_mof_unit_59895.cif
_audit_creation_date              2012-12-10T17:31:22-0500
_audit_creation_method            fapswitch 2.2
_symmetry_space_group_name_H-M    P1
_symmetry_Int_Tables_number       1
_space_group_crystal_system       triclinic
_cell_length_a                    19.057798
_cell_length_b                    18.466134
_cell_length_c                    12.35142
_cell_angle_alpha                 90.00026
_cell_angle_beta                  129.182723
_cell_angle_gamma                 89.999079
_cell_volume                      3369.32542508

loop_
_atom_site_label
_atom_site_type_symbol
_atom_type_description
_atom_site_fract_x
_atom_site_fract_y
_atom_site_fract_z
_atom_type_partial_charge
C1    C     C_R   0.612232 0.898237 0.652946 0.782771
C2    C     C_R   0.612270 0.101731 0.652997 0.781990
C3    C     C_R   0.112275 0.398271 0.653002 0.781998
C4    C     C_R   0.112217 0.601775 0.652930 0.782793
C5    C     C_R   0.241733 0.779596 0.033014 0.074728
C6    C     C_R   0.242009 0.220664 0.033426 0.073819
C7    C     C_R   0.742008 0.279335 0.033426 0.073821
C8    C     C_R   0.741782 0.720439 0.033061 0.074728
C9    C     C_R   0.660392 0.278662 0.014681 0.165584
C10   C     C_R   0.660220 0.721198 0.014477 0.165708
C11   C     C_R   0.160225 0.778764 0.014569 0.165720
C12   C     C_R   0.160362 0.221294 0.014610 0.165600
C13   C     C_R   0.583515 0.245536 0.897646 -0.232794
C14   C     C_R   0.583358 0.754413 0.897553 -0.228420
C15   C     C_R   0.083374 0.745507 0.897715 -0.228488
C16   C     C_R   0.083485 0.254414 0.897559 -0.232803
C17   C     C_R   0.587592 0.209806 0.803133 -0.194732
C18   C     C_R   0.587429 0.790182 0.803055 -0.191692
C19   C     C_R   0.087412 0.709763 0.803157 -0.191648
C20   C     C_R   0.087588 0.290174 0.803093 -0.194754
C21   C     C_R   0.317073 0.814585 0.150942 -0.248205
C22   C     C_R   0.317311 0.185662 0.151399 -0.251672
C23   C     C_R   0.817300 0.314361 0.151364 -0.251680
C24   C     C_R   0.817121 0.685466 0.151033 -0.248099
C25   C     C_R   0.230761 0.849913 0.224779 -0.188696
C26   C     C_R   0.230746 0.150047 0.224664 -0.191736
C27   C     C_R   0.730801 0.349883 0.224767 -0.191818
C28   C     C_R   0.730712 0.650028 0.224658 -0.188641
C29   C     C_R   0.677966 0.159301 0.740611 -0.107827
C30   C     C_R   0.677793 0.840541 0.740369 -0.109012
C31   C     C_R   0.177722 0.659514 0.740286 -0.109002
C32   C     C_R   0.177983 0.340707 0.740630 -0.107877
C33   C     C_R   0.686972 0.004566 0.291010 -0.091472
C34   C     C_R   0.186985 0.495441 0.291030 -0.091559
C35   C     C_R   0.343820 0.999662 0.627915 0.069283
C36   C     C_R   0.843821 0.500334 0.627918 0.069287
C37   C     C_R   0.310062 0.999708 0.700317 -0.247179
C38   C     C_R   0.810065 0.500289 0.700324 -0.247178
C39   C     C_R   0.384274 0.098708 0.342479 0.794542
C40   C     C_R   0.384250 0.901311 0.342440 0.795188
C41   C     C_R   0.884249 0.598689 0.342440 0.795186
C42   C     C_R   0.884277 0.401289 0.342483 0.794543
C43   C     C_R   0.369186 0.000143 0.846047 -0.192494
C44   C     C_R   0.869191 0.499861 0.846053 -0.192472
C45   C     C_R   0.463746 0.000529 0.922306 0.003499
C46   C     C_R   0.963751 0.499481 0.922311 0.003504
C47   C     C_R   0.495012 0.000450 0.843002 0.283458
C48   C     C_R   0.995013 0.499557 0.843003 0.283445
C49   C     C_R   0.528132 0.001098 0.073475 -0.035345
C50   C     C_R   0.028140 0.498916 0.073482 -0.035301
C51   C     C_R   0.622593 0.002793 0.142395 0.078108
C52   C     C_R   0.122605 0.497228 0.142406 0.078081
C53   C     C_R   0.650533 0.001221 0.061322 -0.278164
C54   C     C_R   0.150536 0.498797 0.061319 -0.278204
C55   C     C_R   0.588763 0.000442 0.916773 -0.157013
C56   C     C_R   0.088763 0.499568 0.916771 -0.156992
C57   C     C_R   0.502768 0.999786 0.159793 0.001684
C58   C     C_R   0.002773 0.500222 0.159794 0.001680
C59   C     C_R   0.655777 0.002186 0.367496 0.072762
C60   C     C_R   0.155776 0.497806 0.367503 0.072833
C61   C     C_R   0.655949 0.312793 0.111687 -0.188798
C62   C     C_R   0.655826 0.687095 0.111566 -0.183953
C63   C     C_R   0.155876 0.812828 0.111731 -0.184018
C64   C     C_R   0.155886 0.187122 0.111560 -0.188756
C65   C     C_R   0.310782 0.852190 0.242276 -0.047032
C66   C     C_R   0.310864 0.147888 0.242418 -0.047559
C67   C     C_R   0.810878 0.352100 0.242434 -0.047592
C68   C     C_R   0.810780 0.647810 0.242272 -0.047002
C69   C     C_R   0.755067 0.164604 0.749918 -0.179668
C70   C     C_R   0.754774 0.835014 0.749374 -0.176879
C71   C     C_R   0.254626 0.665145 0.749127 -0.176986
C72   C     C_R   0.255095 0.335415 0.749964 -0.179604
C73   C     C_R   0.324698 0.711445 0.845078 -0.144158
C74   C     C_R   0.325405 0.289419 0.846412 -0.145497
C75   C     C_R   0.825373 0.210603 0.846354 -0.145521
C76   C     C_R   0.824911 0.788783 0.845444 -0.144137
C77   C     C_R   0.321377 0.750089 0.938242 -0.184534
C78   C     C_R   0.322049 0.250705 0.939478 -0.184951
C79   C     C_R   0.822025 0.249311 0.939433 -0.184908
C80   C     C_R   0.821561 0.750099 0.938542 -0.184521
C81   C     C_R   0.745754 0.244605 0.934507 0.082747
C82   C     C_R   0.745457 0.755083 0.934008 0.083567
C83   C     C_R   0.245360 0.744996 0.933882 0.083554
C84   C     C_R   0.245769 0.255405 0.934530 0.082758
C85   C     C_R   0.669779 0.204006 0.825407 0.078534
C86   C     C_R   0.669569 0.795848 0.825145 0.078547
C87   C     C_R   0.169508 0.704175 0.825110 0.078580
C88   C     C_R   0.169790 0.295996 0.825412 0.078546
Cu1   Cu    Cu3+1 0.526340 0.000000 0.421010 0.935855
Cu2   Cu    Cu3+1 0.026340 0.500000 0.421010 0.935856
Cu3   Cu    Cu3+1 0.473640 0.000000 0.578990 0.918003
Cu4   Cu    Cu3+1 0.973640 0.500000 0.578990 0.917997
H1    H     H_    0.224925 0.879169 0.294781 0.146804
H2    H     H_    0.224806 0.120672 0.294455 0.147031
H3    H     H_    0.724889 0.379218 0.294613 0.147072
H4    H     H_    0.724839 0.620732 0.294588 0.146771
H5    H     H_    0.721085 0.999359 0.107718 0.139031
H6    H     H_    0.221079 0.500655 0.107682 0.138939
H7    H     H_    0.432865 0.998447 0.116182 0.132353
H8    H     H_    0.932869 0.501562 0.116182 0.132362
H9    H     H_    0.297293 0.999377 0.514935 0.120403
H10   H     H_    0.797292 0.500614 0.514938 0.120403
H11   H     H_    0.338938 0.000395 0.895956 0.140988
H12   H     H_    0.838944 0.499609 0.895963 0.140988
H13   H     H_    0.237647 0.999477 0.643168 0.150637
H14   H     H_    0.737650 0.500516 0.643177 0.150625
H15   H     H_    0.618331 0.999632 0.867039 0.207031
H16   H     H_    0.118328 0.500369 0.867034 0.207034
H17   H     H_    0.519806 0.247208 0.878902 0.137760
H18   H     H_    0.519683 0.752819 0.878933 0.138092
H19   H     H_    0.019737 0.747040 0.879201 0.138127
H20   H     H_    0.019757 0.252712 0.878765 0.137732
H21   H     H_    0.593784 0.312578 0.097711 0.132054
H22   H     H_    0.593684 0.687342 0.097679 0.132242
H23   H     H_    0.093773 0.812528 0.097945 0.132210
H24   H     H_    0.093689 0.187289 0.097514 0.132035
H25   H     H_    0.381800 0.814368 0.173997 0.147373
H26   H     H_    0.382112 0.185929 0.174688 0.146927
H27   H     H_    0.882079 0.314133 0.174591 0.146958
H28   H     H_    0.881887 0.685720 0.174189 0.147317
H29   H     H_    0.762209 0.131693 0.684767 0.160176
H30   H     H_    0.761936 0.867888 0.684208 0.165594
H31   H     H_    0.261772 0.632310 0.683905 0.165579
H32   H     H_    0.262241 0.368330 0.684822 0.160275
H33   H     H_    0.378598 0.784599 0.010063 0.128983
H34   H     H_    0.379504 0.216499 0.011747 0.128415
H35   H     H_    0.879488 0.283508 0.011705 0.128412
H36   H     H_    0.878840 0.715652 0.010460 0.128943
H37   H     H_    0.383370 0.715739 0.850229 0.135097
H38   H     H_    0.384291 0.285441 0.852053 0.133668
H39   H     H_    0.884255 0.214583 0.851982 0.133625
H40   H     H_    0.883657 0.784582 0.850744 0.135076
H41   H     H_    0.524670 0.188427 0.710822 0.176189
H42   H     H_    0.524528 0.811669 0.710871 0.177079
H43   H     H_    0.024506 0.688252 0.711027 0.177170
H44   H     H_    0.024670 0.311552 0.710770 0.176155
H45   H     H_    0.702907 0.003594 0.480523 0.160655
H46   H     H_    0.202895 0.496395 0.480528 0.160824
N1    N     N_R   0.566260 1.000000 0.302220 -0.202550
N2    N     N_R   0.066260 0.500000 0.302220 -0.202600
N3    N     N_R   0.434410 0.000000 0.697680 -0.208173
N4    N     N_R   0.934410 0.500000 0.697680 -0.208180
O1    O     O_R   0.608610 0.924520 0.551740 -0.577452
O2    O     O_R   0.608610 0.075480 0.551740 -0.581547
O3    O     O_R   0.108610 0.424520 0.551740 -0.581515
O4    O     O_R   0.108610 0.575480 0.551740 -0.577494
O5    O     O_R   0.564110 0.924510 0.685150 -0.603216
O6    O     O_R   0.564110 0.075490 0.685150 -0.602448
O7    O     O_R   0.064110 0.424510 0.685150 -0.602428
O8    O     O_R   0.064110 0.575490 0.685150 -0.603262
O9    O     O_R   0.435880 0.075470 0.314850 -0.582363
O10   O     O_R   0.435880 0.924530 0.314850 -0.582389
O11   O     O_R   0.935880 0.575470 0.314850 -0.582392
O12   O     O_R   0.935880 0.424530 0.314850 -0.582359
O13   O     O_R   0.391380 0.075460 0.448260 -0.593512
O14   O     O_R   0.391380 0.924540 0.448260 -0.593126
O15   O     O_R   0.891380 0.575460 0.448260 -0.593104
O16   O     O_R   0.891380 0.424540 0.448260 -0.593532
C89   C     C_2   0.786371 0.011071 0.369872 0.327533
H47   H     H_    0.813604 0.031632 0.321140 0.078647
O17   O     O_2   0.839977 0.994644 0.493322 -0.554887
C90   C     C_2   0.286399 0.488945 0.369929 0.327637
H48   H     H_    0.313689 0.468710 0.321116 0.078768
O18   O     O_2   0.339971 0.505006 0.493531 -0.555108

loop_
_geom_bond_atom_site_label_1
_geom_bond_atom_site_label_2
_ccdc_geom_bond_type
C26   H2    S    
C14   H18   S    
C83   C87   A    
C25   H1    S    
C64   H24   S    
C2    O2    A    
C14   C18   A    
C27   H3    S    
C7    C81   A    
C48   C56   A    
Cu3   O5    S    
C44   H12   S    
C32   C72   A    
C10   C62   A    
C15   C19   A    
C40   O10   A    
C69   H29   S    
C18   C86   A    
C2    C29   S    
C9    C61   A    
C71   H31   S    
C35   C37   A    
C5    C11   A    
Cu2   O3    S    
C19   C87   A    
C6    C12   A    
C5    C83   A    
C9    C13   A    
C59   H45   S    
C19   H43   S    
C57   H7    S    
C39   O9    A    
C49   C57   A    
C57   N1    A    
C36   H10   S    
C25   C63   A    
C23   C67   A    
C29   C69   A    
C26   C64   A    
C56   H16   S    
Cu4   O16   S    
C13   H17   S    
C27   C61   A    
C11   C15   A    
Cu1   O10   S    
C22   C66   A    
C12   C16   A    
C44   C46   A    
C49   C51   A    
C50   C52   A    
C89   O17   D    
C69   C75   A    
C59   N1    A    
C30   C86   A    
Cu4   N4    S    
C47   N3    A    
C3    O7    A    
C29   C85   A    
C63   H23   S    
C52   C54   A    
C6    C22   A    
C45   C47   A    
C33   C59   A    
C55   H15   S    
C72   H32   S    
C34   C60   A    
C42   O16   A    
C17   C85   A    
C21   C65   A    
Cu3   O6    S    
C30   C70   A    
C75   H39   S    
C41   C68   S    
C41   O11   A    
C53   C55   A    
C73   H37   S    
C24   H28   S    
C6    C84   A    
C28   C62   A    
C26   C66   A    
C15   H19   S    
C58   H8    S    
C72   C74   A    
C10   C14   A    
C79   C81   A    
C80   H36   S    
Cu1   N1    S    
C37   H13   S    
Cu1   O1    S    
C39   O13   A    
Cu4   O15   S    
C51   C53   A    
C50   C58   A    
C38   H14   S    
C38   C44   A    
C1    O1    A    
C34   C90   S    
C70   H30   S    
Cu2   Cu4   S    
C89   H47   S    
C45   C49   A    
C16   C20   A    
C4    O4    A    
C48   N4    A    
C21   H25   S    
C20   H44   S    
Cu2   O11   S    
C43   C45   A    
C35   N3    A    
C41   O15   A    
C80   C82   A    
C42   O12   A    
C60   N2    A    
C3    O3    A    
C40   C65   S    
C74   H38   S    
Cu4   O8    S    
C42   C67   S    
C39   C66   S    
C8    C82   A    
C37   C43   A    
C1    O5    A    
C31   C87   A    
Cu1   Cu3   S    
Cu3   O13   S    
C70   C76   A    
C78   H34   S    
C77   H33   S    
C16   H20   S    
C47   C55   A    
C90   H48   S    
C58   N2    A    
C7    C9    A    
C12   C64   A    
C22   H26   S    
C73   C77   A    
C28   C68   A    
C40   O14   A    
C76   C80   A    
C35   H9    S    
Cu2   N2    S    
C54   C56   A    
C62   H22   S    
C33   C51   A    
Cu1   O2    S    
C4    O8    A    
C46   C50   A    
C34   C52   A    
C13   C17   A    
C28   H4    S    
C53   H5    S    
C36   N4    A    
C36   C38   A    
C79   H35   S    
Cu3   O14   S    
Cu2   O4    S    
C90   O18   D    
C82   C86   A    
C17   H41   S    
C76   H40   S    
Cu2   O12   S    
C84   C88   A    
C75   C79   A    
C7    C23   A    
C20   C88   A    
C31   C71   A    
C1    C30   S    
C8    C24   A    
C18   H42   S    
C3    C32   S    
C43   H11   S    
C4    C31   S    
C27   C67   A    
C24   C68   A    
C61   H21   S    
C46   C48   A    
C78   C84   A    
Cu1   O9    S    
C5    C21   A    
C8    C10   A    
C74   C78   A    
C71   C73   A    
Cu4   O7    S    
C25   C65   A    
C77   C83   A    
C54   H6    S    
C23   H27   S    
C11   C63   A    
C2    O6    A    
C81   C85   A    
C33   C89   S    
C60   H46   S    
Cu3   N3    S    
C32   C88   A    
