data_mof_unit_41476.cif
_audit_creation_date              2012-12-11T14:21:06-0500
_audit_creation_method            fapswitch 2.2
_symmetry_space_group_name_H-M    P1
_symmetry_Int_Tables_number       1
_space_group_crystal_system       triclinic
_cell_length_a                    21.955387
_cell_length_b                    7.196769
_cell_length_c                    14.934907
_cell_angle_alpha                 90.030251
_cell_angle_beta                  107.179008
_cell_angle_gamma                 90.011272
_cell_volume                      2254.55199606

loop_
_atom_site_label
_atom_site_type_symbol
_atom_type_description
_atom_site_fract_x
_atom_site_fract_y
_atom_site_fract_z
_atom_type_partial_charge
O1    O     O_R   0.584770 0.505770 0.002090 -0.541342
O2    O     O_R   0.415230 0.005770 0.997910 -0.541316
O3    O     O_R   0.467060 0.173340 0.861950 -0.538358
O4    O     O_R   0.532940 0.673340 0.138050 -0.538390
C1    C     C_R   0.455000 0.344348 0.825900 0.675323
C2    C     C_R   0.545022 0.844478 0.174103 0.675214
O5    O     O_R   0.587510 0.175890 0.993210 -0.540088
O6    O     O_R   0.412490 0.675890 0.006790 -0.540138
O7    O     O_R   0.536540 0.008150 0.130100 -0.536324
O8    O     O_R   0.463460 0.508150 0.869900 -0.536283
C3    C     C_R   0.612974 0.344971 0.997339 0.731035
C4    C     C_R   0.387027 0.844949 0.002664 0.730974
O9    O     O_3   0.483140 0.340040 0.044760 -0.376838
O10   O     O_3   0.516860 0.840040 0.955240 -0.376734
V1    V     V_3+5 0.503130 0.064190 0.991700 1.429536
V2    V     V_3+5 0.496870 0.564190 0.008300 1.429305
C5    C     C_2   0.214340 0.727564 0.005247 -0.119551
C6    C     C_2   0.785647 0.227520 0.994794 -0.118426
C7    C     C_2   0.180442 0.886710 0.996864 -0.297784
C8    C     C_2   0.819565 0.386673 0.003163 -0.298671
H1    H     H_    0.191433 0.596794 0.012085 0.147106
H2    H     H_    0.808537 0.096725 0.987968 0.147595
H3    H     H_    0.201846 0.018957 0.989158 0.134437
H4    H     H_    0.798177 0.518941 0.010863 0.134436
C9    C     C_2   0.282195 0.714483 0.004900 -0.122223
C10   C     C_2   0.717790 0.214490 0.995135 -0.121677
C11   C     C_2   0.319983 0.861498 0.003823 -0.299855
C12   C     C_2   0.680022 0.361529 0.996191 -0.300310
H5    H     H_    0.301550 0.575314 0.006214 0.141547
H6    H     H_    0.698414 0.075324 0.993830 0.141651
H7    H     H_    0.301929 0.001539 0.003568 0.136115
H8    H     H_    0.698092 0.501570 0.996439 0.136038
C13   C     C_R   0.927495 0.878905 0.722812 -0.076491
C14   C     C_R   0.072708 0.379842 0.277100 -0.075358
C15   C     C_R   0.573894 0.853573 0.275543 -0.028536
C16   C     C_R   0.426122 0.352761 0.724475 -0.028173
C17   C     C_R   0.932789 0.728377 0.580387 -0.183913
C18   C     C_R   0.066667 0.235733 0.420557 -0.183218
C19   C     C_R   0.960258 0.769739 0.674582 -0.208260
C20   C     C_R   0.039427 0.274453 0.326023 -0.208437
C21   C     C_R   0.865725 0.946070 0.675440 0.136705
C22   C     C_R   0.134840 0.445181 0.323931 0.136886
C23   C     C_R   0.832339 0.863465 0.587711 0.076591
C24   C     C_R   0.167764 0.364598 0.412293 0.077452
C25   C     C_R   0.868877 0.772900 0.536702 0.110089
C26   C     C_R   0.130759 0.278781 0.464004 0.109882
C27   C     C_R   0.764563 0.864286 0.548858 -0.081743
C28   C     C_R   0.235516 0.363032 0.451150 -0.081773
C29   C     C_R   0.736908 0.826935 0.451397 -0.003122
C30   C     C_R   0.262953 0.329255 0.548955 -0.003156
C31   C     C_R   0.776776 0.759342 0.399761 -0.152449
C32   C     C_R   0.222719 0.267102 0.601201 -0.152419
C33   C     C_R   0.840982 0.724702 0.443107 -0.192488
C34   C     C_R   0.158364 0.233938 0.558086 -0.192403
C35   C     C_R   0.723537 0.877631 0.605954 0.565097
C36   C     C_R   0.276583 0.370224 0.393923 0.564790
C37   C     C_R   0.657822 0.887948 0.566407 -0.259016
C38   C     C_R   0.342360 0.377621 0.433353 -0.259086
C39   C     C_R   0.630631 0.878542 0.469501 0.041541
C40   C     C_R   0.369516 0.371589 0.530335 0.041691
C41   C     C_R   0.669750 0.846663 0.410477 0.079300
C42   C     C_R   0.330208 0.346496 0.589670 0.079451
C43   C     C_R   0.564261 0.895281 0.431226 -0.129139
C44   C     C_R   0.436007 0.384576 0.568429 -0.129223
C45   C     C_R   0.536081 0.882975 0.334710 -0.165437
C46   C     C_R   0.464135 0.374974 0.665031 -0.165549
C47   C     C_R   0.640017 0.836531 0.312738 -0.185171
C48   C     C_R   0.359877 0.339826 0.687481 -0.185165
H9    H     H_    0.869083 0.660176 0.402901 0.119374
H10   H     H_    0.129922 0.173305 0.598847 0.119310
H11   H     H_    0.667053 0.821241 0.263459 0.089081
H12   H     H_    0.332745 0.329666 0.736887 0.089053
H13   H     H_    0.484855 0.896912 0.306101 0.111274
H14   H     H_    0.515479 0.385253 0.693480 0.111157
H15   H     H_    0.627893 0.901284 0.612246 0.155874
H16   H     H_    0.372352 0.385867 0.387385 0.155747
H17   H     H_    0.960381 0.652281 0.543154 0.125926
H18   H     H_    0.038681 0.163080 0.458370 0.125688
H19   H     H_    0.007798 0.719184 0.709797 0.123961
H20   H     H_    0.991619 0.225370 0.291155 0.123186
H21   H     H_    0.758737 0.717751 0.327388 0.118144
H22   H     H_    0.240528 0.228376 0.673993 0.118027
H23   H     H_    0.534136 0.918146 0.476080 0.118843
H24   H     H_    0.466279 0.401927 0.523348 0.118807
O11   O     O_R   0.036450 0.233070 0.130130 -0.534409
O12   O     O_R   0.963550 0.733070 0.869870 -0.534574
O13   O     O_R   0.912470 0.560570 0.006790 -0.539569
O14   O     O_R   0.087530 0.060570 0.993210 -0.539679
C49   C     C_R   0.886914 0.391899 0.002311 0.735385
C50   C     C_R   0.113089 0.891923 0.997700 0.735210
O15   O     O_R   0.032920 0.562940 0.138050 -0.546029
O16   O     O_R   0.967080 0.062940 0.861950 -0.545996
O17   O     O_R   0.084790 0.730500 0.002090 -0.539834
O18   O     O_R   0.915210 0.230500 0.997910 -0.539709
C51   C     C_R   0.045602 0.394345 0.174788 0.698747
C52   C     C_R   0.954435 0.894200 0.825180 0.699086
O19   O     O_3   0.016820 0.396170 0.955260 -0.379473
O20   O     O_3   0.983180 0.896170 0.044740 -0.379262
V3    V     V_3+5 0.996880 0.672090 0.008300 1.415861
V4    V     V_3+5 0.003120 0.172090 0.991700 1.415943
C53   C     C_3   0.842154 0.124574 0.709376 -0.288937
C54   C     C_3   0.879503 0.293472 0.691859 -0.748446
H25   H     H_    0.931453 0.277873 0.725540 0.238584
H26   H     H_    0.871044 0.312924 0.615338 0.222749
H27   H     H_    0.863140 0.420299 0.720407 0.234870
H28   H     H_    0.791838 0.155436 0.671313 0.206616
H29   H     H_    0.845566 0.113970 0.784888 0.203235
C55   C     C_3   0.159364 0.620637 0.288634 -0.290814
C56   C     C_3   0.123439 0.792882 0.305896 -0.745927
H30   H     H_    0.071289 0.779529 0.273315 0.238766
H31   H     H_    0.132760 0.814981 0.382418 0.222925
H32   H     H_    0.140230 0.917300 0.276018 0.235043
H33   H     H_    0.210005 0.649191 0.325820 0.207380
H34   H     H_    0.155345 0.607527 0.213001 0.201766
F1    F     F_    0.746198 0.864337 0.700744 -0.709288
F2    F     F_    0.253794 0.353463 0.299272 -0.709425

loop_
_geom_bond_atom_site_label_1
_geom_bond_atom_site_label_2
_ccdc_geom_bond_type
C53   H29   S    
C43   C45   A    
C53   C54   S    
C14   C22   A    
O2    C4    A    
C2    O7    A    
C38   H16   S    
C27   C29   A    
C2    C15   S    
O5    C3    A    
C13   C19   A    
C14   C20   A    
C56   H31   S    
C54   H26   S    
C16   C46   A    
C37   C39   A    
C15   C45   A    
C38   C40   A    
C46   H14   S    
C1    C16   S    
O16   C52   A    
C45   H13   S    
C55   C56   S    
C54   H27   S    
C40   C42   A    
C55   H34   S    
C49   O18   A    
C44   H24   S    
C8    H4    S    
C32   C34   A    
C29   C31   A    
C6    C10   S    
C30   C32   A    
C20   H20   S    
C15   C47   A    
O17   V3    S    
C47   H11   S    
C48   H12   S    
C28   C30   A    
C33   H9    S    
O6    V2    S    
C21   C23   A    
C22   C24   A    
C24   C26   A    
O13   V3    S    
C36   C38   A    
C9    H5    S    
C39   C41   A    
C29   C41   A    
C22   C55   S    
C4    C11   S    
C11   H7    S    
C12   H8    S    
C14   C51   S    
O4    C2    A    
C56   H32   S    
C18   H18   S    
C17   H17   S    
C5    H1    S    
C43   H23   S    
C31   C33   A    
C44   C46   A    
C55   H33   S    
O4    V2    S    
C7    H3    S    
O2    V1    S    
C41   C47   A    
C34   H10   S    
O18   V4    S    
O6    C4    A    
C26   C34   A    
C36   F2    S    
O1    V2    S    
C32   H22   S    
O12   V3    S    
C23   C25   A    
O14   V4    S    
O12   C52   A    
O14   C50   A    
C10   H6    S    
O13   C49   A    
C30   C42   A    
C17   C25   A    
C13   C52   S    
O19   V4    S    
O3    V1    S    
O16   V4    S    
C50   O17   A    
C27   C35   A    
C53   H28   S    
C28   C36   A    
C31   H21   S    
C6    H2    S    
C10   C12   D    
O3    C1    A    
C16   C48   A    
C9    C11   D    
C8    C49   S    
C39   C43   A    
C42   C48   A    
C40   C44   A    
C13   C21   A    
C37   H15   S    
C35   C37   A    
O7    V1    S    
C5    C9    S    
C1    O8    A    
C17   C19   A    
C7    C50   S    
O8    V2    S    
C56   H30   S    
C18   C20   A    
O11   C51   A    
C35   F1    S    
C3    C12   S    
O5    V1    S    
C5    C7    D    
C21   C53   S    
C6    C8    D    
C54   H25   S    
C18   C26   A    
C25   C33   A    
O15   C51   A    
O20   V3    S    
O9    V2    S    
O11   V4    S    
O10   V1    S    
O1    C3    A    
O15   V3    S    
C23   C27   A    
C24   C28   A    
C19   H19   S    
