data_mof_unit_65038.cif
_audit_creation_date              2012-12-10T17:08:28-0500
_audit_creation_method            fapswitch 2.2
_symmetry_space_group_name_H-M    P1
_symmetry_Int_Tables_number       1
_space_group_crystal_system       triclinic
_cell_length_a                    18.264773
_cell_length_b                    18.264734
_cell_length_c                    34.393376
_cell_angle_alpha                 89.99973
_cell_angle_beta                  89.999877
_cell_angle_gamma                 90.00022
_cell_volume                      11473.6722076

loop_
_atom_site_label
_atom_site_type_symbol
_atom_type_description
_atom_site_fract_x
_atom_site_fract_y
_atom_site_fract_z
_atom_type_partial_charge
C1    C     C_R   1.000000 0.500000 0.894247 0.505059
C2    C     C_R   0.042295 0.552372 0.791333 0.025611
C3    C     C_R   0.596874 0.650721 0.050870 -0.087716
C4    C     C_R   0.650720 0.596874 0.050870 -0.087723
C5    C     C_R   0.794611 0.151548 0.906806 -0.069271
C6    C     C_R   0.349269 0.403116 0.050884 -0.087715
C7    C     C_R   0.205353 0.848491 0.906821 -0.069265
C8    C     C_R   0.849281 0.096871 0.550867 -0.087720
C9    C     C_R   0.705396 0.651554 0.406802 -0.069272
C10   C     C_R   0.150718 0.903128 0.550867 -0.087720
C11   C     C_R   0.294603 0.348446 0.406801 -0.069273
C12   C     C_R   0.348446 0.294604 0.406801 -0.069273
C13   C     C_R   0.447722 0.957589 0.791333 0.025591
C14   C     C_R   0.096871 0.849281 0.550866 -0.087710
C15   C     C_R   0.651554 0.705396 0.406802 -0.069273
C16   C     C_R   0.903128 0.150718 0.550867 -0.087711
C17   C     C_R   0.253234 0.801417 0.968252 0.003854
C18   C     C_R   0.265669 0.320319 0.017096 0.002715
C19   C     C_R   0.746752 0.198597 0.968247 0.003857
C20   C     C_R   0.734327 0.679677 0.017091 0.002717
C21   C     C_R   0.679677 0.734328 0.017092 0.002716
C22   C     C_R   0.801406 0.253246 0.968249 0.003857
C23   C     C_R   0.320319 0.265669 0.017096 0.002717
C24   C     C_R   0.957703 0.447631 0.791333 0.025613
C25   C     C_R   0.198582 0.746767 0.968253 0.003854
C26   C     C_R   0.820324 0.234327 0.517091 0.002712
C27   C     C_R   0.698597 0.753248 0.468246 0.003861
C28   C     C_R   0.179676 0.765673 0.517090 0.002713
C29   C     C_R   0.301403 0.246752 0.468246 0.003861
C30   C     C_R   0.246752 0.301403 0.468246 0.003859
C31   C     C_R   0.234326 0.820323 0.517091 0.002716
C32   C     C_R   0.753248 0.698597 0.468246 0.003859
C33   C     C_R   0.765673 0.179676 0.517091 0.002716
C34   C     C_R   0.195519 0.696576 0.999469 0.019360
C35   C     C_R   0.052278 0.457590 0.291333 0.025594
C36   C     C_R   0.304548 0.196645 0.000545 0.018621
C37   C     C_R   0.804481 0.303424 0.999470 0.019352
C38   C     C_R   0.695452 0.803355 0.000545 0.018617
C39   C     C_R   0.803355 0.695452 0.000545 0.018620
C40   C     C_R   0.696575 0.195521 0.999470 0.019352
C41   C     C_R   0.196645 0.304548 0.000545 0.018620
C42   C     C_R   0.303424 0.804480 0.999469 0.019359
C43   C     C_R   0.696645 0.195452 0.500545 0.018619
C44   C     C_R   0.803424 0.695520 0.499469 0.019349
C45   C     C_R   0.303355 0.804548 0.500546 0.018619
C46   C     C_R   0.457590 0.052278 0.291333 0.025594
C47   C     C_R   0.196576 0.304480 0.499469 0.019350
C48   C     C_R   0.304480 0.196575 0.499469 0.019353
C49   C     C_R   0.195452 0.696645 0.500545 0.018615
C50   C     C_R   0.695520 0.803424 0.499469 0.019353
C51   C     C_R   0.804548 0.303355 0.500545 0.018615
C52   C     C_R   0.245965 0.699811 0.030322 0.083223
C53   C     C_R   0.235387 0.181169 0.984520 0.090082
C54   C     C_R   0.754050 0.300173 0.030330 0.083216
C55   C     C_R   0.764616 0.818835 0.984525 0.090082
C56   C     C_R   0.818834 0.764616 0.984525 0.090082
C57   C     C_R   0.947722 0.542410 0.291333 0.025594
C58   C     C_R   0.699826 0.245949 0.030330 0.083218
C59   C     C_R   0.181169 0.235387 0.984520 0.090083
C60   C     C_R   0.300188 0.754035 0.030322 0.083222
C61   C     C_R   0.681165 0.264616 0.484526 0.090080
C62   C     C_R   0.800176 0.745953 0.530327 0.083220
C63   C     C_R   0.318835 0.735384 0.484527 0.090080
C64   C     C_R   0.199824 0.254047 0.530327 0.083220
C65   C     C_R   0.254048 0.199823 0.530327 0.083213
C66   C     C_R   0.264616 0.681165 0.484526 0.090078
C67   C     C_R   0.745952 0.800176 0.530327 0.083214
C68   C     C_R   0.542410 0.947722 0.291333 0.025594
C69   C     C_R   0.735384 0.318835 0.484526 0.090078
C70   C     C_R   0.449534 0.956998 0.832000 -0.098381
C71   C     C_R   0.957111 0.449439 0.832001 -0.098356
C72   C     C_R   0.550463 0.043004 0.832000 -0.098382
C73   C     C_R   0.042888 0.550562 0.832000 -0.098357
C74   C     C_R   0.949534 0.543000 0.332000 -0.098380
C75   C     C_R   0.543000 0.949533 0.332000 -0.098379
C76   C     C_R   0.050467 0.457000 0.332000 -0.098379
C77   C     C_R   0.457000 0.050467 0.332000 -0.098379
C78   C     C_R   0.499998 0.000002 0.770766 0.027081
C79   C     C_R   0.999999 0.500001 0.770766 0.027067
C80   C     C_R   0.000000 0.500000 0.270766 0.027079
C81   C     C_R   0.500000 0.000000 0.894247 0.505075
C82   C     C_R   0.500000 0.000000 0.270766 0.027079
C83   C     C_R   0.604987 0.082972 0.770722 0.089066
C84   C     C_R   0.082731 0.605178 0.770722 0.089092
C85   C     C_R   0.395005 0.917036 0.770723 0.089066
C86   C     C_R   0.917263 0.394827 0.770723 0.089093
C87   C     C_R   0.104994 0.417037 0.270723 0.089071
C88   C     C_R   0.417038 0.104995 0.270723 0.089071
C89   C     C_R   0.895005 0.582963 0.270723 0.089070
C90   C     C_R   0.582963 0.895005 0.270723 0.089071
C91   C     C_R   0.105841 0.419016 0.230283 -0.064213
C92   C     C_R   0.500000 1.000000 0.394247 0.505071
C93   C     C_R   0.419017 0.105841 0.230283 -0.064213
C94   C     C_R   0.894159 0.580983 0.230283 -0.064214
C95   C     C_R   0.580983 0.894159 0.230283 -0.064214
C96   C     C_R   0.605834 0.080992 0.730282 -0.064214
C97   C     C_R   0.080760 0.606013 0.730282 -0.064201
C98   C     C_R   0.394159 0.919015 0.730283 -0.064216
C99   C     C_R   0.919234 0.393993 0.730283 -0.064199
C100  C     C_R   0.054118 0.460001 0.209254 0.002145
C101  C     C_R   0.460001 0.054118 0.209254 0.002145
C102  C     C_R   0.945882 0.539998 0.209254 0.002145
C103  C     C_R   0.000000 0.500000 0.394247 0.505071
C104  C     C_R   0.539998 0.945882 0.209254 0.002144
C105  C     C_R   0.554114 0.040003 0.709254 0.002144
C106  C     C_R   0.039893 0.554198 0.709253 0.002154
C107  C     C_R   0.445881 0.960001 0.709255 0.002145
C108  C     C_R   0.960104 0.445806 0.709253 0.002153
C109  C     C_R   1.000000 0.500000 0.229690 0.011352
C110  C     C_R   0.500000 1.000000 0.229690 0.011352
C111  C     C_R   0.499998 0.000002 0.729691 0.011353
C112  C     C_R   0.999999 0.500001 0.729690 0.011350
C113  C     C_R   0.055500 0.462080 0.168339 0.062012
C114  C     C_R   0.499999 0.000001 0.852030 0.013673
C115  C     C_R   0.462080 0.055500 0.168339 0.062013
C116  C     C_R   0.944500 0.537919 0.168339 0.062012
C117  C     C_R   0.537919 0.944499 0.168339 0.062011
C118  C     C_R   0.555498 0.037922 0.668339 0.062012
C119  C     C_R   0.037829 0.555563 0.668337 0.062000
C120  C     C_R   0.444499 0.962079 0.668339 0.062011
C121  C     C_R   0.962170 0.444440 0.668337 0.062000
C122  C     C_R   1.000000 0.500000 0.148209 0.046689
C123  C     C_R   0.500000 1.000000 0.148209 0.046689
C124  C     C_R   0.499999 1.000000 0.648209 0.046688
C125  C     C_R   0.000000 0.500000 0.852030 0.013716
C126  C     C_R   1.000000 0.500001 0.648208 0.046720
C127  C     C_R   1.000000 0.500000 0.105798 0.558714
C128  C     C_R   0.500000 1.000000 0.105798 0.558713
C129  C     C_R   0.500000 1.000000 0.605798 0.558713
C130  C     C_R   1.000000 0.500000 0.605798 0.558739
C131  C     C_R   0.860081 0.639979 0.999982 0.520246
C132  C     C_R   0.360096 0.860009 0.000002 0.518153
C133  C     C_R   0.139919 0.360021 0.999982 0.520248
C134  C     C_R   0.639903 0.139991 0.000002 0.518151
C135  C     C_R   0.139991 0.639904 0.000002 0.518152
C136  C     C_R   0.000000 0.500000 0.352030 0.013673
C137  C     C_R   0.639979 0.860081 0.999982 0.520247
C138  C     C_R   0.860009 0.360096 0.000002 0.518148
C139  C     C_R   0.360021 0.139919 0.999982 0.520249
C140  C     C_R   0.360009 0.139904 0.500001 0.518151
C141  C     C_R   0.860021 0.360081 0.499982 0.520247
C142  C     C_R   0.639991 0.860096 0.500001 0.518153
C143  C     C_R   0.139979 0.639919 0.499982 0.520248
C144  C     C_R   0.639919 0.139979 0.499982 0.520247
C145  C     C_R   0.139904 0.360009 0.500001 0.518154
C146  C     C_R   0.360081 0.860021 0.499982 0.520247
C147  C     C_R   0.500000 0.000000 0.352030 0.013673
C148  C     C_R   0.860096 0.639991 0.500002 0.518155
C149  C     C_R   0.147777 0.744240 0.937195 -0.068215
C150  C     C_R   0.389053 0.281070 0.034282 -0.064482
C151  C     C_R   0.852200 0.255784 0.937186 -0.068218
C152  C     C_R   0.610940 0.718922 0.034273 -0.064479
C153  C     C_R   0.718921 0.610939 0.034272 -0.064483
C154  C     C_R   0.744209 0.147810 0.937182 -0.068220
C155  C     C_R   0.281072 0.389054 0.034281 -0.064480
C156  C     C_R   0.255766 0.852217 0.937193 -0.068217
C157  C     C_R   0.781080 0.110938 0.534270 -0.064482
C158  C     C_R   0.552274 0.042415 0.791333 0.025592
C159  C     C_R   0.755792 0.647809 0.437181 -0.068210
C160  C     C_R   0.218920 0.889062 0.534270 -0.064482
C161  C     C_R   0.244208 0.352191 0.437181 -0.068210
C162  C     C_R   0.352191 0.244208 0.437181 -0.068209
C163  C     C_R   0.110937 0.781079 0.534270 -0.064477
C164  C     C_R   0.647809 0.755791 0.437182 -0.068210
C165  C     C_R   0.889062 0.218920 0.534270 -0.064477
C166  C     C_R   0.151506 0.794652 0.906822 -0.069264
C167  C     C_R   0.403115 0.349268 0.050885 -0.087720
C168  C     C_R   0.848460 0.205385 0.906809 -0.069269
H1    H     H_    0.104634 0.703680 0.936138 0.128053
H2    H     H_    0.796354 0.604668 0.436123 0.128054
H3    H     H_    0.259382 0.932296 0.535319 0.141855
H4    H     H_    0.203646 0.395332 0.436122 0.128054
H5    H     H_    0.395332 0.203646 0.436122 0.128054
H6    H     H_    0.067702 0.740618 0.535318 0.141870
H7    H     H_    0.604668 0.796353 0.436123 0.128054
H8    H     H_    0.932297 0.259382 0.535319 0.141870
H9    H     H_    0.112279 0.792073 0.883268 0.160582
H10   H     H_    0.455910 0.360244 0.063952 0.153337
H11   H     H_    0.887679 0.207972 0.883251 0.160588
H12   H     H_    0.432287 0.240608 0.035332 0.141849
H13   H     H_    0.544076 0.639742 0.063934 0.153347
H14   H     H_    0.639740 0.544075 0.063933 0.153333
H15   H     H_    0.792018 0.112335 0.883245 0.160536
H16   H     H_    0.360246 0.455911 0.063950 0.153351
H17   H     H_    0.207937 0.887713 0.883264 0.160534
H18   H     H_    0.860261 0.044073 0.563929 0.153337
H19   H     H_    0.707991 0.612342 0.383241 0.160518
H20   H     H_    0.139738 0.955926 0.563929 0.153337
H21   H     H_    0.292009 0.387658 0.383240 0.160517
H22   H     H_    0.387658 0.292009 0.383240 0.160517
H23   H     H_    0.895346 0.296343 0.936130 0.128058
H24   H     H_    0.044072 0.860260 0.563928 0.153346
H25   H     H_    0.612342 0.707990 0.383241 0.160517
H26   H     H_    0.955926 0.139739 0.563929 0.153345
H27   H     H_    0.411049 0.924700 0.848638 0.154757
H28   H     H_    0.924901 0.410880 0.848639 0.154682
H29   H     H_    0.588949 0.075302 0.848638 0.154752
H30   H     H_    0.075099 0.589120 0.848639 0.154686
H31   H     H_    0.911046 0.575296 0.348638 0.154753
H32   H     H_    0.575296 0.911045 0.348638 0.154753
H33   H     H_    0.088955 0.424705 0.348638 0.154753
H34   H     H_    0.567705 0.759384 0.035321 0.141862
H35   H     H_    0.424705 0.088955 0.348638 0.154753
H36   H     H_    0.147261 0.386995 0.215767 0.185554
H37   H     H_    0.386995 0.147262 0.215766 0.185555
H38   H     H_    0.852738 0.613005 0.215767 0.185554
H39   H     H_    0.613004 0.852738 0.215767 0.185554
H40   H     H_    0.647251 0.113018 0.715766 0.185554
H41   H     H_    0.112689 0.647507 0.715766 0.185562
H42   H     H_    0.352738 0.886994 0.715767 0.185553
H43   H     H_    0.887302 0.352502 0.715767 0.185563
H44   H     H_    0.759382 0.567704 0.035320 0.141853
H45   H     H_    0.703643 0.104672 0.936122 0.128057
H46   H     H_    0.240610 0.432289 0.035328 0.141861
H47   H     H_    0.296332 0.895356 0.936133 0.128053
H48   H     H_    0.740618 0.067703 0.535319 0.141855
I1    I     I_    0.240953 0.620111 0.076090 -0.265135
I2    I     I_    0.879858 0.740926 0.576103 -0.265032
I3    I     I_    0.424219 0.714585 0.459178 -0.259014
I4    I     I_    0.120142 0.259074 0.576103 -0.265029
I5    I     I_    0.259074 0.120140 0.576103 -0.265079
I6    I     I_    0.285415 0.575782 0.459178 -0.259018
I7    I     I_    0.740926 0.879860 0.576103 -0.265080
I8    I     I_    0.714585 0.424219 0.459178 -0.259019
I9    I     I_    0.686794 0.148270 0.797970 -0.306715
I10   I     I_    0.147825 0.687149 0.797970 -0.306833
I11   I     I_    0.313193 0.851745 0.797972 -0.306691
I12   I     I_    0.214595 0.075791 0.959164 -0.259037
I13   I     I_    0.852159 0.312865 0.797970 -0.306858
I14   I     I_    0.186807 0.351747 0.297971 -0.306735
I15   I     I_    0.351748 0.186807 0.297971 -0.306734
I16   I     I_    0.813193 0.648253 0.297971 -0.306733
I17   I     I_    0.648253 0.813193 0.297971 -0.306734
I18   I     I_    0.144137 0.412904 0.136197 -0.279002
I19   I     I_    0.412905 0.144138 0.136197 -0.279013
I20   I     I_    0.855862 0.587094 0.136197 -0.278997
I21   I     I_    0.587094 0.855862 0.136197 -0.278991
I22   I     I_    0.644135 0.087098 0.636197 -0.278990
I23   I     I_    0.759080 0.379852 0.076108 -0.265082
I24   I     I_    0.086903 0.644245 0.636187 -0.279067
I25   I     I_    0.355864 0.912901 0.636197 -0.278991
I26   I     I_    0.913097 0.355756 0.636188 -0.279065
I27   I     I_    0.785414 0.924217 0.959175 -0.259002
I28   I     I_    0.924216 0.785414 0.959175 -0.259028
I29   I     I_    0.620149 0.240916 0.076109 -0.265080
I30   I     I_    0.075791 0.214594 0.959164 -0.259012
I31   I     I_    0.379886 0.759047 0.076091 -0.265128
I32   I     I_    0.575782 0.285415 0.459178 -0.259014
O1    O     O_3   0.000000 0.500000 0.999990 -0.469683
O2    O     O_R   1.000000 0.560750 0.412560 -0.532750
O3    O     O_R   0.439250 1.000000 0.412560 -0.532748
O4    O     O_R   0.000000 0.439250 0.412560 -0.532748
O5    O     O_R   0.000000 0.560690 0.087420 -0.505117
O6    O     O_R   0.439310 1.000000 0.087420 -0.505118
O7    O     O_R   0.000000 0.439310 0.087420 -0.505115
O8    O     O_R   0.560690 1.000000 0.087420 -0.505114
O9    O     O_R   0.500000 0.060690 0.587420 -0.505117
O10   O     O_R   0.939310 0.500000 0.587420 -0.505118
O11   O     O_R   0.500000 0.939310 0.587420 -0.505117
O12   O     O_3   0.500000 1.000000 0.999990 -0.469678
O13   O     O_R   0.060690 0.500000 0.587420 -0.505117
O14   O     O_R   0.853830 0.585440 0.977070 -0.536088
O15   O     O_R   0.414560 0.853830 0.977070 -0.542929
O16   O     O_R   0.146170 0.414560 0.977070 -0.536082
O17   O     O_R   0.585440 0.146170 0.977070 -0.542941
O18   O     O_R   0.146170 0.585440 0.977070 -0.542924
O19   O     O_R   0.585440 0.853830 0.977070 -0.536086
O20   O     O_R   0.853830 0.414560 0.977070 -0.542935
O21   O     O_R   0.414560 0.146170 0.977070 -0.536081
O22   O     O_R   0.353830 0.085440 0.477070 -0.542937
O23   O     O_3   0.500000 1.000000 0.499990 -0.469678
O24   O     O_R   0.914560 0.353830 0.477070 -0.536084
O25   O     O_R   0.646170 0.914560 0.477070 -0.542936
O26   O     O_R   0.085440 0.646170 0.477070 -0.536086
O27   O     O_R   0.646170 0.085440 0.477070 -0.536087
O28   O     O_R   0.085440 0.353830 0.477070 -0.542936
O29   O     O_R   0.353830 0.914560 0.477070 -0.536086
O30   O     O_R   0.914560 0.646170 0.477070 -0.542936
O31   O     O_R   0.085460 0.353830 0.022910 -0.504103
O32   O     O_R   0.646170 0.085460 0.022910 -0.503613
O33   O     O_R   0.914540 0.646170 0.022910 -0.504100
O34   O     O_3   0.000000 0.500000 0.499990 -0.469676
O35   O     O_R   0.353830 0.914540 0.022910 -0.503621
O36   O     O_R   0.914540 0.353830 0.022910 -0.503619
O37   O     O_R   0.353830 0.085460 0.022910 -0.504103
O38   O     O_R   0.085460 0.646170 0.022910 -0.503622
O39   O     O_R   0.646170 0.914540 0.022910 -0.504099
O40   O     O_R   0.585460 0.853830 0.522910 -0.503615
O41   O     O_R   0.146170 0.585460 0.522910 -0.504109
O42   O     O_R   0.414540 0.146170 0.522910 -0.503615
O43   O     O_R   0.853830 0.414540 0.522910 -0.504111
O44   O     O_R   0.414540 0.853830 0.522910 -0.504100
O45   O     O_R   0.060750 0.500000 0.912560 -0.532723
O46   O     O_R   0.853830 0.585460 0.522910 -0.503617
O47   O     O_R   0.585460 0.146170 0.522910 -0.504100
O48   O     O_R   0.146170 0.414540 0.522910 -0.503617
O49   O     O_R   0.500000 0.060750 0.912560 -0.532750
O50   O     O_R   0.939250 0.500000 0.912560 -0.532725
O51   O     O_R   0.500000 0.939250 0.912560 -0.532749
O52   O     O_R   0.560750 1.000000 0.412560 -0.532749
Zn1   Zn    Zn3+2 1.000000 0.586740 0.032740 1.016747
Zn2   Zn    Zn3+2 0.500000 0.913250 0.967240 0.964363
Zn3   Zn    Zn3+2 0.086750 0.500000 0.967240 0.964371
Zn4   Zn    Zn3+2 0.500000 0.086750 0.967240 0.964359
Zn5   Zn    Zn3+2 0.413250 1.000000 0.467240 0.964360
Zn6   Zn    Zn3+2 0.000000 0.413250 0.467240 0.964364
Zn7   Zn    Zn3+2 0.586750 1.000000 0.467240 0.964360
Zn8   Zn    Zn3+2 1.000000 0.586750 0.467240 0.964363
Zn9   Zn    Zn3+2 0.413260 0.000000 0.032740 1.016748
Zn10  Zn    Zn3+2 0.000000 0.413260 0.032740 1.016750
Zn11  Zn    Zn3+2 0.586740 0.000000 0.032740 1.016755
Zn12  Zn    Zn3+2 0.500000 0.086740 0.532740 1.016751
Zn13  Zn    Zn3+2 0.913260 0.500000 0.532740 1.016755
Zn14  Zn    Zn3+2 0.500000 0.913260 0.532740 1.016752
Zn15  Zn    Zn3+2 0.086740 0.500000 0.532740 1.016756
Zn16  Zn    Zn3+2 0.913250 0.500000 0.967240 0.964361

loop_
_geom_bond_atom_site_label_1
_geom_bond_atom_site_label_2
_ccdc_geom_bond_type
C133  O16   A    
C87   C91   A    
C66   I6    S    
O5    Zn1   S    
O25   Zn7   S    
O26   Zn8   S    
C90   C95   A    
O12   Zn2   S    
C75   H32   S    
C68   C75   A    
C139  O21   A    
C150  H12   S    
O24   Zn6   S    
C81   O51   A    
C119  I24   S    
C96   H40   S    
O22   Zn5   S    
C13   C70   A    
C137  O39   A    
C35   C80   A    
C21   C152  A    
C63   I3    S    
C14   C163  A    
O28   Zn6   S    
C36   C53   A    
C161  H4    S    
C143  O41   A    
O1    Zn1   S    
C113  C122  A    
C70   H27   S    
C74   C136  A    
C68   C90   A    
C91   C100  A    
C146  O29   A    
C77   C147  A    
C6    C155  A    
C27   C50   A    
C25   C34   A    
C131  O14   A    
C4    C153  A    
C117  I21   S    
C100  C109  A    
C8    C16   A    
O48   Zn15  S    
C92   C147  S    
C43   C144  S    
C154  H45   S    
C8    C157  A    
C65   I5    S    
C141  O43   A    
C113  I18   S    
C40   C58   A    
O13   Zn15  S    
O14   Zn16  S    
C1    O50   A    
C20   C153  A    
C93   C101  A    
C47   C64   A    
O7    Zn10  S    
C101  C110  A    
C45   C146  S    
C6    H16   S    
C61   I32   S    
C46   C77   A    
C39   C56   A    
C55   I27   S    
C166  H9    S    
C118  C124  A    
C67   I7    S    
C86   C99   A    
C116  C122  A    
C132  O15   A    
C7    C166  A    
C101  C115  A    
C105  C118  A    
C87   I14   S    
C10   C160  A    
C107  C120  A    
C43   C61   A    
O31   Zn10  S    
C104  C117  A    
O12   Zn4   S    
O4    Zn6   S    
C86   I13   S    
C34   C52   A    
C58   I29   S    
O21   Zn4   S    
C133  O31   A    
O43   Zn13  S    
C17   C25   A    
O23   Zn12  S    
C9    C15   A    
C104  C110  A    
O1    Zn3   S    
O37   Zn9   S    
O49   Zn4   S    
C59   I30   S    
C120  I25   S    
C130  O13   A    
O20   Zn16  S    
C119  C126  A    
C132  O35   A    
C20   C21   A    
C94   C102  A    
C23   C36   A    
O19   Zn2   S    
C13   C85   A    
C102  C109  A    
C51   C69   A    
O1    Zn10  S    
C159  H2    S    
O38   Zn1   S    
C94   H38   S    
C38   C55   A    
C41   C133  S    
C99   H43   S    
O32   Zn11  S    
C99   C108  A    
C52   I1    S    
C97   H41   S    
C127  O7    A    
O44   Zn14  S    
C89   C94   A    
C164  H7    S    
C25   C149  A    
C141  O24   A    
C122  C127  S    
C52   C60   A    
C72   H29   S    
C46   C82   A    
C35   C87   A    
C38   C137  S    
C21   C38   A    
C81   C114  S    
C143  O26   A    
C128  O6    A    
C78   C111  A    
O23   Zn7   S    
C50   C67   A    
C91   H36   S    
C14   H24   S    
C134  O17   A    
C56   I28   S    
C57   C80   A    
C130  O10   A    
C51   C141  S    
C35   C76   A    
C49   C66   A    
C48   C140  S    
C10   C14   A    
O50   Zn16  S    
C76   H33   S    
C8    H18   S    
C40   C134  S    
C90   I17   S    
C155  H46   S    
C103  C136  S    
O11   Zn14  S    
C29   C30   A    
O34   Zn8   S    
O46   Zn13  S    
C28   C49   A    
C24   C79   A    
O47   Zn12  S    
C16   C165  A    
O3    Zn5   S    
C73   H30   S    
C167  H10   S    
C7    C156  A    
C142  O25   A    
C2    C73   A    
O52   Zn7   S    
C37   C138  S    
C48   C65   A    
C3    C4    A    
C131  O33   A    
C13   C78   A    
C127  O5    A    
C107  C111  A    
C29   C162  A    
C7    H17   S    
C129  O11   A    
C153  H44   S    
C1    O45   A    
C68   C82   A    
C26   C51   A    
C73   C125  A    
C83   C96   A    
C128  O8    A    
C148  O30   A    
O23   Zn5   S    
C36   C139  S    
C16   H26   S    
C19   C40   A    
C12   C162  A    
C76   C136  A    
O27   Zn7   S    
C60   I31   S    
C138  O36   A    
C24   C86   A    
C50   C142  S    
C28   C163  A    
C96   C105  A    
C47   C145  S    
C26   C165  A    
O42   Zn12  S    
C106  C119  A    
C2    C84   A    
C108  C121  A    
C115  I19   S    
C162  H5    S    
C165  H8    S    
O2    Zn8   S    
C3    C152  A    
C57   C89   A    
C79   C112  A    
C84   C97   A    
O9    Zn12  S    
C54   I23   S    
O34   Zn6   S    
C54   C58   A    
C39   C131  S    
C126  C130  S    
C5    C154  A    
C72   C114  A    
C11   C161  A    
C5    C168  A    
C17   C42   A    
C2    C79   A    
C22   C151  A    
C80   C109  A    
C135  O18   A    
C85   I11   S    
O45   Zn3   S    
O34   Zn15  S    
C31   C160  A    
C32   C159  A    
C118  I22   S    
C105  C111  A    
C63   C66   A    
C84   I10   S    
O41   Zn15  S    
C152  H34   S    
C77   H35   S    
C33   C157  A    
C95   H39   S    
C149  C166  A    
O15   Zn2   S    
C15   C164  A    
C145  O28   A    
C115  C123  A    
C20   C39   A    
O36   Zn10  S    
C75   C147  A    
C22   C37   A    
C98   C107  A    
C108  C112  A    
C11   H21   S    
C116  I20   S    
C156  H47   S    
C135  O38   A    
C3    H13   S    
C97   C106  A    
C23   C150  A    
O23   Zn14  S    
C149  H1    S    
C82   C110  A    
O30   Zn8   S    
C157  H48   S    
C27   C32   A    
C28   C31   A    
C145  O48   A    
O35   Zn9   S    
C168  H11   S    
C148  O46   A    
C129  O9    A    
C64   C65   A    
O16   Zn3   S    
C134  O32   A    
O1    Zn16  S    
C83   C158  A    
C138  O20   A    
C34   C135  S    
C150  C167  A    
C49   C143  S    
C160  H3    S    
C140  O22   A    
C124  C129  S    
C89   I16   S    
O34   Zn13  S    
C15   H25   S    
C88   I15   S    
C74   H31   S    
O17   Zn4   S    
C31   C45   A    
O18   Zn3   S    
C19   C154  A    
C71   C125  A    
O6    Zn9   S    
C42   C132  S    
C30   C161  A    
C4    H14   S    
C17   C156  A    
C5    H15   S    
C18   C155  A    
C142  O40   A    
O12   Zn9   S    
O40   Zn14  S    
C93   H37   S    
C53   C59   A    
O10   Zn13  S    
C106  C112  A    
C70   C114  A    
C98   H42   S    
C62   C67   A    
C92   O52   A    
C144  O27   A    
C103  O4    A    
C62   I2    S    
C1    C125  S    
C53   I12   S    
C9    C159  A    
C144  O47   A    
C151  C168  A    
C72   C158  A    
C139  O37   A    
C85   C98   A    
C146  O44   A    
C151  H23   S    
O51   Zn2   S    
C78   C158  A    
C46   C88   A    
C121  I26   S    
C64   I4    S    
C29   C48   A    
C18   C23   A    
C33   C43   A    
C30   C47   A    
C19   C22   A    
C41   C59   A    
C18   C41   A    
C42   C60   A    
C44   C62   A    
C140  O42   A    
C45   C63   A    
C57   C74   A    
O29   Zn5   S    
C81   O49   A    
C27   C164  A    
C10   H20   S    
C55   C56   A    
C32   C44   A    
C37   C54   A    
O12   Zn11  S    
O33   Zn1   S    
C95   C104  A    
C83   I9    S    
C92   O3    A    
C61   C69   A    
C88   C93   A    
C103  O2    A    
C100  C113  A    
C9    H19   S    
C11   C12   A    
C12   H22   S    
C69   I8    S    
C117  C123  A    
C121  C126  A    
C137  O19   A    
C71   H28   S    
O8    Zn11  S    
C44   C148  S    
C102  C116  A    
C24   C71   A    
C123  C128  S    
O39   Zn11  S    
C6    C167  A    
C163  H6    S    
C120  C124  A    
C26   C33   A    
