data_mof_unit_56859.cif
_audit_creation_date              2012-12-11T15:35:58-0500
_audit_creation_method            fapswitch 2.2
_symmetry_space_group_name_H-M    P1
_symmetry_Int_Tables_number       1
_space_group_crystal_system       triclinic
_cell_length_a                    7.020575
_cell_length_b                    11.941976
_cell_length_c                    35.724612
_cell_angle_alpha                 90.005977
_cell_angle_beta                  90.959058
_cell_angle_gamma                 90.35613
_cell_volume                      2994.65747108

loop_
_atom_site_label
_atom_site_type_symbol
_atom_type_description
_atom_site_fract_x
_atom_site_fract_y
_atom_site_fract_z
_atom_type_partial_charge
O1    O     O_R   0.379730 0.148600 0.662710 -0.538271
O2    O     O_R   0.620270 0.851400 0.337290 -0.540350
O3    O     O_R   0.120270 0.648600 0.337290 -0.539845
O4    O     O_R   0.879730 0.351400 0.662710 -0.538675
O5    O     O_R   0.722480 0.134490 0.741330 -0.544045
O6    O     O_R   0.277520 0.865510 0.258670 -0.537345
O7    O     O_R   0.777520 0.634490 0.258670 -0.534412
O8    O     O_R   0.222480 0.365510 0.741330 -0.541045
O9    O     O_R   0.892880 0.345890 0.741600 -0.539708
O10   O     O_R   0.107120 0.654110 0.258400 -0.535375
O11   O     O_R   0.607120 0.845890 0.258400 -0.533200
O12   O     O_R   0.392880 0.154110 0.741600 -0.538333
C1    C     C_R   0.554068 0.117805 0.755704 0.700507
C2    C     C_R   0.447257 0.889170 0.245984 0.690070
C3    C     C_R   0.946197 0.610940 0.245986 0.688993
C4    C     C_R   0.054675 0.382412 0.755634 0.696624
O13   O     O_R   0.709490 0.135560 0.662990 -0.540201
O14   O     O_R   0.290510 0.864440 0.337010 -0.541848
O15   O     O_R   0.790510 0.635560 0.337010 -0.542120
O16   O     O_R   0.209490 0.364440 0.662990 -0.540250
C5    C     C_R   0.539440 0.106632 0.651386 0.722163
C6    C     C_R   0.460536 0.893332 0.348637 0.713442
C7    C     C_R   0.959924 0.606920 0.348752 0.712929
C8    C     C_R   0.040017 0.393696 0.651492 0.721569
O17   O     O_3   0.552800 0.316610 0.702160 -0.369605
O18   O     O_3   0.447200 0.683390 0.297840 -0.367445
O19   O     O_3   0.947200 0.816610 0.297840 -0.367328
O20   O     O_3   0.052800 0.183390 0.702160 -0.368798
V1    V     V_3+5 0.827630 0.234380 0.702160 1.411613
V2    V     V_3+5 0.172370 0.765620 0.297840 1.428147
V3    V     V_3+5 0.672370 0.734380 0.297840 1.435694
V4    V     V_3+5 0.327630 0.265620 0.702160 1.415663
C9    C     C_R   0.002399 0.593741 0.927953 0.573346
C10   C     C_R   0.991139 0.291062 0.095456 0.531725
C11   C     C_R   0.445088 0.204437 0.094808 0.534447
C12   C     C_R   0.500039 0.903893 0.927959 0.576440
O21   O     O_2   0.987377 0.482444 0.933279 -0.564583
O22   O     O_2   0.038922 0.396626 0.086295 -0.565326
O23   O     O_2   0.402590 0.097424 0.086298 -0.567632
O24   O     O_2   0.504938 0.015259 0.933678 -0.566101
N1    N     N_R   0.020705 0.635096 0.892325 -0.542758
N2    N     N_R   0.973728 0.259897 0.132478 -0.537084
N3    N     N_R   0.471275 0.236402 0.131650 -0.538219
N4    N     N_R   0.507686 0.862396 0.892118 -0.538955
C13   C     C_R   0.038218 0.747898 0.886821 0.558498
C14   C     C_R   0.970769 0.145800 0.140138 0.551727
C15   C     C_R   0.480931 0.349952 0.139420 0.553161
C16   C     C_R   0.499788 0.749076 0.886441 0.578157
C17   C     C_R   0.891583 0.583968 0.829714 -0.111032
C18   C     C_R   0.012993 0.328992 0.199910 -0.096782
C19   C     C_R   0.405262 0.169882 0.197509 -0.086827
C20   C     C_R   0.666120 0.909671 0.832575 -0.104687
C21   C     C_R   0.902915 0.525838 0.795951 -0.185695
C22   C     C_R   0.015086 0.415330 0.226467 -0.190939
C23   C     C_R   0.391513 0.084705 0.224268 -0.184160
C24   C     C_R   0.675214 0.968657 0.798922 -0.187309
C25   C     C_R   0.171755 0.422702 0.820865 -0.203103
C26   C     C_R   0.891327 0.542966 0.180385 -0.181928
C27   C     C_R   0.545211 0.957265 0.182488 -0.183129
C28   C     C_R   0.412593 0.083148 0.818582 -0.207575
C29   C     C_R   0.155129 0.478304 0.855257 -0.067842
C30   C     C_R   0.894345 0.457454 0.153473 -0.051027
C31   C     C_R   0.552216 0.041676 0.155124 -0.046248
C32   C     C_R   0.408211 0.026056 0.852857 -0.078077
C33   C     C_R   0.018695 0.562517 0.859679 0.369650
C34   C     C_R   0.961023 0.347701 0.161893 0.347046
C35   C     C_R   0.478009 0.150299 0.161476 0.345979
C36   C     C_R   0.529955 0.935146 0.859730 0.371213
C37   C     C_R   0.999088 0.783460 0.953462 -0.049123
C38   C     C_R   0.973330 0.098240 0.073609 -0.001545
C39   C     C_R   0.462172 0.397786 0.072972 0.001561
C40   C     C_R   0.491402 0.714479 0.953548 -0.050534
C41   C     C_R   0.995595 0.667460 0.959145 -0.059617
C42   C     C_R   0.969794 0.212956 0.066132 -0.061906
C43   C     C_R   0.451295 0.282920 0.065246 -0.061512
C44   C     C_R   0.488276 0.830331 0.959128 -0.062042
C45   C     C_R   0.979817 0.627231 0.995509 -0.140792
C46   C     C_R   0.943887 0.249134 0.029483 -0.123149
C47   C     C_R   0.427400 0.248058 0.028255 -0.119861
C48   C     C_R   0.483968 0.870648 0.995616 -0.142221
C49   C     C_R   0.017259 0.823079 0.916615 -0.049398
C50   C     C_R   0.985058 0.064837 0.111097 0.016121
C51   C     C_R   0.465207 0.431133 0.110530 0.014035
C52   C     C_R   0.506884 0.674693 0.916715 -0.044267
C53   C     C_R   0.046235 0.446724 0.790850 -0.040790
C54   C     C_R   0.955336 0.522986 0.216958 -0.013179
C55   C     C_R   0.460230 0.977486 0.216996 -0.029240
C56   C     C_R   0.544920 0.053990 0.791112 -0.047770
H1    H     H_    0.280223 0.359399 0.817927 0.112304
H2    H     H_    0.837298 0.624683 0.172614 0.097485
H3    H     H_    0.603530 0.875592 0.176414 0.104083
H4    H     H_    0.314349 0.151376 0.813768 0.116436
H5    H     H_    0.250465 0.456883 0.878051 0.127587
H6    H     H_    0.834779 0.478251 0.126450 0.147835
H7    H     H_    0.619843 0.021097 0.129192 0.144144
H8    H     H_    0.308363 0.052429 0.873584 0.129963
C57   C     C_R   0.990580 0.901103 0.051923 0.060461
C58   C     C_R   0.985087 0.977331 0.976596 0.060992
C59   C     C_R   0.485000 0.521001 0.976654 0.052275
C60   C     C_R   0.458217 0.596217 0.051835 0.057296
C61   C     C_R   0.959194 0.056242 0.006079 0.000589
C62   C     C_R   0.981973 0.819396 0.021884 0.029954
C63   C     C_R   0.470915 0.678484 0.021992 0.030285
C64   C     C_R   0.456160 0.441310 0.005652 -0.000730
C65   C     C_R   0.973473 0.017960 0.043716 0.031937
C66   C     C_R   0.987331 0.860113 0.984238 0.025655
C67   C     C_R   0.480368 0.637970 0.984343 0.030165
C68   C     C_R   0.461093 0.478931 0.043342 0.032662
C69   C     C_R   0.022839 0.872663 0.090035 -0.215197
C70   C     C_R   0.018602 0.011878 0.939472 -0.128738
C71   C     C_R   0.534500 0.487471 0.940221 -0.137880
C72   C     C_R   0.433968 0.624258 0.090015 -0.214645
C73   C     C_R   0.012243 0.951287 0.118873 -0.147877
C74   C     C_R   0.022337 0.937243 0.910076 -0.146918
C75   C     C_R   0.537943 0.561747 0.910696 -0.151936
C76   C     C_R   0.446346 0.544929 0.118603 -0.154890
O25   O     O_2   0.949134 0.107685 0.175218 -0.552063
O26   O     O_2   0.082427 0.787449 0.852616 -0.521653
O27   O     O_2   0.478014 0.707875 0.851456 -0.525014
O28   O     O_2   0.510623 0.386652 0.174674 -0.548555
C77   C     C_R   0.968022 0.699171 0.026634 0.147958
C78   C     C_R   0.922303 0.173133 0.000013 0.129845
C79   C     C_R   0.417257 0.324877 0.998814 0.140649
C80   C     C_R   0.486033 0.798811 0.026922 0.148733
H9    H     H_    0.053974 0.248969 0.210562 0.161789
H10   H     H_    0.786758 0.648445 0.832127 0.161373
H11   H     H_    0.761936 0.841218 0.837023 0.158628
H12   H     H_    0.356133 0.250430 0.205770 0.157899
H13   H     H_    0.033802 0.922967 0.147435 0.157088
H14   H     H_    0.031848 0.969721 0.881927 0.149781
H15   H     H_    0.570788 0.530320 0.883104 0.151102
H16   H     H_    0.433198 0.573143 0.147267 0.158296
C81   C     C_R   0.969462 0.526996 0.379678 -0.046341
C82   C     C_R   0.030094 0.474216 0.620804 -0.048872
C83   C     C_R   0.529011 0.026242 0.620617 -0.049433
C84   C     C_R   0.470798 0.973793 0.379404 -0.047504
C85   C     C_R   0.967656 0.338675 0.404420 -0.163135
C86   C     C_R   0.036067 0.662696 0.596263 -0.162578
C87   C     C_R   0.545278 0.838346 0.595836 -0.162625
C88   C     C_R   0.450258 0.161468 0.404241 -0.163113
C89   C     C_R   0.965280 0.410669 0.373567 0.150614
C90   C     C_R   0.042273 0.590319 0.627048 0.142157
C91   C     C_R   0.546941 0.910414 0.626712 0.144029
C92   C     C_R   0.448504 0.089397 0.373376 0.152199
C93   C     C_R   0.978321 0.569919 0.416001 -0.265275
C94   C     C_R   0.012260 0.431837 0.584540 -0.263586
C95   C     C_R   0.510260 0.068647 0.584367 -0.264357
C96   C     C_R   0.492826 0.931575 0.415623 -0.265596
C97   C     C_R   0.982754 0.498633 0.447498 0.080998
C98   C     C_R   0.008622 0.503285 0.553115 0.080801
C99   C     C_R   0.511580 0.997535 0.552840 0.080666
C100  C     C_R   0.489306 0.002551 0.447176 0.080465
C101  C     C_R   0.975698 0.381444 0.440987 0.085283
C102  C     C_R   0.020215 0.620334 0.559673 0.085833
C103  C     C_R   0.529029 0.880771 0.559284 0.086027
C104  C     C_R   0.469195 0.119176 0.440760 0.085292
C105  C     C_R   0.993768 0.539800 0.485077 0.061841
C106  C     C_R   0.995740 0.462231 0.515552 0.061978
C107  C     C_R   0.498036 0.038632 0.515287 0.061692
C108  C     C_R   0.502794 0.961439 0.484731 0.061972
C109  C     C_R   0.986322 0.346262 0.507438 -0.192910
C110  C     C_R   0.004342 0.655732 0.493206 -0.193007
C111  C     C_R   0.519146 0.845773 0.492769 -0.192781
C112  C     C_R   0.480055 0.154220 0.507259 -0.192517
C113  C     C_R   0.977013 0.307194 0.470954 -0.188250
C114  C     C_R   0.017278 0.694684 0.529709 -0.188044
C115  C     C_R   0.531642 0.806752 0.529246 -0.187426
C116  C     C_R   0.465951 0.193162 0.470797 -0.187674
H17   H     H_    0.971017 0.217520 0.466177 0.139106
H18   H     H_    0.025972 0.784283 0.534496 0.139203
H19   H     H_    0.544482 0.717360 0.533956 0.139435
H20   H     H_    0.451076 0.282450 0.466102 0.139327
H21   H     H_    0.003737 0.342099 0.582106 0.106420
H22   H     H_    0.979914 0.659780 0.418438 0.106143
H23   H     H_    0.508708 0.842232 0.417960 0.107136
H24   H     H_    0.498664 0.158219 0.582000 0.106726
H25   H     H_    0.964031 0.248813 0.399953 0.129452
H26   H     H_    0.044950 0.752427 0.600779 0.129258
H27   H     H_    0.558757 0.748840 0.600248 0.129203
H28   H     H_    0.433945 0.250820 0.399860 0.129560
H29   H     H_    0.986722 0.282179 0.528575 0.128699
H30   H     H_    0.004406 0.719719 0.472028 0.128983
H31   H     H_    0.522530 0.781966 0.471554 0.128583
H32   H     H_    0.475131 0.217968 0.528474 0.128661
C117  C     C_3   0.061075 0.637278 0.666082 -0.793035
H33   H     H_    0.067220 0.730268 0.665949 0.215584
H34   H     H_    0.936790 0.610830 0.682834 0.198190
H35   H     H_    0.193682 0.605897 0.679697 0.209032
C118  C     C_3   0.961777 0.362945 0.334595 -0.812181
H36   H     H_    0.955706 0.269954 0.334799 0.217977
H37   H     H_    0.835293 0.394119 0.318792 0.208492
H38   H     H_    0.093458 0.389091 0.320154 0.195745
C119  C     C_3   0.422319 0.136173 0.334493 -0.812230
H39   H     H_    0.410372 0.228899 0.334747 0.217270
H40   H     H_    0.545978 0.113459 0.317120 0.202400
H41   H     H_    0.290052 0.101187 0.321517 0.203130
C120  C     C_3   0.567746 0.863395 0.665687 -0.795714
H42   H     H_    0.578154 0.770596 0.665431 0.215379
H43   H     H_    0.698796 0.897606 0.679384 0.205932
H44   H     H_    0.442226 0.886734 0.682445 0.202755
H45   H     H_    0.973666 0.537411 0.999813 0.168295
H46   H     H_    0.927631 0.337885 0.023889 0.164693
H47   H     H_    0.406522 0.159866 0.022111 0.171086
H48   H     H_    0.487505 0.960514 0.999949 0.167127
H49   H     H_    0.060158 0.397034 0.254870 0.109188
H50   H     H_    0.802619 0.544683 0.773482 0.132564
H51   H     H_    0.780864 0.945526 0.778610 0.140966
H52   H     H_    0.329432 0.103392 0.251077 0.115895
H53   H     H_    0.069787 0.791583 0.098718 0.135563
H54   H     H_    0.050855 0.096287 0.931928 0.135144
H55   H     H_    0.578494 0.404359 0.933633 0.148444
H56   H     H_    0.393434 0.705550 0.099182 0.136127
C121  C     C_3   0.925726 0.638838 0.062747 -0.759612
H57   H     H_    0.059478 0.618026 0.077813 0.242845
H58   H     H_    0.829661 0.685540 0.080887 0.199522
H59   H     H_    0.849912 0.558556 0.057285 0.228069
C122  C     C_3   0.838910 0.222188 0.964514 -0.782717
H60   H     H_    0.949191 0.258802 0.946464 0.230508
H61   H     H_    0.750487 0.160406 0.949014 0.255219
H62   H     H_    0.747148 0.293191 0.971401 0.219764
C123  C     C_3   0.340249 0.278385 0.962166 -0.784487
H63   H     H_    0.254806 0.341285 0.946697 0.246181
H64   H     H_    0.453686 0.244689 0.944444 0.223468
H65   H     H_    0.247337 0.205689 0.967386 0.223223
C124  C     C_3   0.522935 0.859370 0.063493 -0.758495
H66   H     H_    0.387958 0.876395 0.077675 0.241765
H67   H     H_    0.623265 0.815075 0.082100 0.196953
H68   H     H_    0.592945 0.941616 0.058928 0.233743

loop_
_geom_bond_atom_site_label_1
_geom_bond_atom_site_label_2
_ccdc_geom_bond_type
C13   O26   S    
C26   C30   A    
C120  H44   S    
N4    C16   A    
C99   C103  A    
C100  C108  A    
O1    C5    A    
C105  C106  A    
C58   C70   A    
C78   C122  S    
C118  H38   S    
O13   V1    S    
C88   C92   A    
O3    C7    A    
C10   N2    A    
C72   C76   A    
C40   C44   A    
O15   V3    S    
C84   C96   A    
C113  H17   S    
C80   C124  S    
C28   C56   A    
C64   C79   A    
C75   H15   S    
C121  H57   S    
C122  H62   S    
C17   H10   S    
C79   C123  S    
C11   C43   A    
C18   C22   A    
C43   C47   A    
C25   H1    S    
C109  C113  A    
C112  H32   S    
C19   H12   S    
C72   H56   S    
O20   V1    S    
O9    C4    A    
C2    C55   S    
C110  H30   S    
C123  H65   S    
O10   C3    A    
C48   C80   A    
O4    C8    A    
O11   C2    A    
C29   H5    S    
C117  H34   S    
C82   C90   A    
C104  C116  A    
C94   H21   S    
C31   H7    S    
C124  H68   S    
C118  H37   S    
N2    C14   A    
C120  H43   S    
C97   C101  A    
C12   C44   A    
C106  C109  A    
C88   H28   S    
C14   C50   A    
C87   C91   A    
C100  C104  A    
C103  C115  A    
C119  H40   S    
C49   C74   A    
C38   C42   A    
C44   C48   A    
C37   C41   A    
O14   V2    S    
C71   C75   A    
C15   C51   A    
C62   C77   A    
C11   N3    A    
C70   C74   A    
O5    C1    A    
C57   C62   A    
C20   C36   A    
C12   N4    A    
O9    V1    S    
C57   C65   A    
C86   C102  A    
O17   V4    S    
C83   C91   A    
C59   C64   A    
O11   V3    S    
O18   V3    S    
O8    C4    A    
C110  C114  A    
C39   C68   A    
O12   V4    S    
O19   V2    S    
C61   C65   A    
C21   C53   A    
C74   H14   S    
C70   H54   S    
C87   H27   S    
C69   H53   S    
C63   C80   A    
C26   C54   A    
C20   H11   S    
C21   H50   S    
C16   O27   S    
C39   C51   A    
C121  H58   S    
O17   V1    S    
C91   C120  S    
C31   C35   A    
C60   C68   A    
C96   H23   S    
O7    V3    S    
C30   C34   A    
O19   V3    S    
O8    V4    S    
C108  C111  A    
C46   H46   S    
C12   O24   S    
C89   C118  S    
C32   H8    S    
C86   C90   A    
C22   C54   A    
C45   C77   A    
C7    C81   S    
C95   H24   S    
C117  H35   S    
C19   C35   A    
C92   C119  S    
C122  H60   S    
C47   C79   A    
C60   C63   A    
O13   C5    A    
C16   C52   A    
C37   C49   A    
C6    C84   S    
O2    V3    S    
C5    C83   S    
C77   C121  S    
O3    V2    S    
C11   O23   S    
N3    C35   S    
O2    C6    A    
C123  H63   S    
C23   H52   S    
O6    C2    A    
C57   C69   A    
O10   V2    S    
C46   C78   A    
C107  C108  A    
C76   H16   S    
C40   C67   A    
O20   V4    S    
C111  C115  A    
C22   H49   S    
C59   C71   A    
C124  H66   S    
C85   C101  A    
C18   H9    S    
C27   H3    S    
C93   H22   S    
C26   H2    S    
C40   C52   A    
C17   C33   A    
C88   C104  A    
C3    C54   S    
C112  C116  A    
C9    C41   A    
C15   O28   S    
O6    V2    S    
C10   C42   A    
C60   C72   A    
C52   C75   A    
C47   H47   S    
C30   H6    S    
C98   C102  A    
C4    C53   S    
N4    C36   S    
C81   C93   A    
C86   H26   S    
O5    V1    S    
C32   C36   A    
C64   C68   A    
O15   C7    A    
C9    O21   S    
O16   V4    S    
C121  H59   S    
C8    C82   S    
C118  H36   S    
C94   C98   A    
C85   C89   A    
N1    C13   A    
C98   C106  A    
C101  C113  A    
C10   O22   S    
C81   C89   A    
C51   C76   A    
C13   C49   A    
C96   C100  A    
C50   C73   A    
C38   C65   A    
C45   H45   S    
O4    V1    S    
N1    C33   S    
C37   C66   A    
C18   C34   A    
C25   C29   A    
C69   C73   A    
C122  H61   S    
C58   C61   A    
C59   C67   A    
C87   C103  A    
C27   C31   A    
C61   C78   A    
C58   C66   A    
C115  H19   S    
C28   C32   A    
C82   C94   A    
C9    N1    A    
O14   C6    A    
C84   C92   A    
C119  H41   S    
C39   C43   A    
C117  H33   S    
C48   H48   S    
C24   H51   S    
C97   C105  A    
C17   C21   A    
C95   C99   A    
C1    C56   S    
O7    C3    A    
C124  H67   S    
C114  H18   S    
C25   C53   A    
C83   C95   A    
C19   C23   A    
O1    V4    S    
C111  H31   S    
C23   C55   A    
C120  H42   S    
C38   C50   A    
C27   C55   A    
C24   C56   A    
C90   C117  S    
C29   C33   A    
C116  H20   S    
C85   H25   S    
O12   C1    A    
C14   O25   S    
C123  H64   S    
C119  H39   S    
C42   C46   A    
C62   C66   A    
N2    C34   S    
C41   C45   A    
C107  C112  A    
C102  C114  A    
C63   C67   A    
C73   H13   S    
C28   H4    S    
N3    C15   A    
C105  C110  A    
O16   C8    A    
C109  H29   S    
C93   C97   A    
C20   C24   A    
C71   H55   S    
C99   C107  A    
O18   V2    S    
