data_mof_unit_27062.cif
_audit_creation_date              2012-12-10T17:53:12-0500
_audit_creation_method            fapswitch 2.2
_symmetry_space_group_name_H-M    P1
_symmetry_Int_Tables_number       1
_space_group_crystal_system       triclinic
_cell_length_a                    14.720358
_cell_length_b                    14.98345
_cell_length_c                    27.818517
_cell_angle_alpha                 75.856342
_cell_angle_beta                  103.756719
_cell_angle_gamma                 115.452643
_cell_volume                      5310.09179115

loop_
_atom_site_label
_atom_site_type_symbol
_atom_type_description
_atom_site_fract_x
_atom_site_fract_y
_atom_site_fract_z
_atom_type_partial_charge
C1    C     C_R   0.879836 0.312307 0.507695 0.855975
C2    C     C_R   0.120164 0.687693 0.492305 0.855943
C3    C     C_R   0.006155 0.502062 0.898735 -0.050262
C4    C     C_R   0.993798 0.498036 0.101244 -0.050296
C5    C     C_R   0.979039 0.412386 0.881095 -0.097559
C6    C     C_R   0.020959 0.587717 0.118890 -0.097502
C7    C     C_R   0.961928 0.323505 0.915171 -0.153744
C8    C     C_R   0.038048 0.676604 0.084814 -0.153754
C9    C     C_R   0.037778 0.593423 0.865526 -0.002359
C10   C     C_R   0.962174 0.406670 0.134453 -0.002376
C11   C     C_R   0.002720 0.501879 0.645517 -0.049703
C12   C     C_R   0.997297 0.498158 0.354478 -0.049689
C13   C     C_R   0.967896 0.407597 0.033240 0.077695
C14   C     C_R   0.031993 0.592498 0.966732 0.077699
C15   C     C_R   0.022049 0.591759 0.016498 -0.046395
C16   C     C_R   0.977851 0.408336 0.983477 -0.046419
C17   C     C_R   0.995976 0.499402 0.050242 0.024326
C18   C     C_R   0.003937 0.500695 0.949733 0.024325
C19   C     C_R   0.922664 0.317667 0.065681 -0.130018
C20   C     C_R   0.077207 0.682427 0.934288 -0.130040
C21   C     C_R   0.923725 0.316877 0.115818 -0.155939
C22   C     C_R   0.076180 0.683212 0.884157 -0.155992
C23   C     C_R   0.000600 0.500362 0.592505 0.827698
C24   C     C_R   0.999404 0.499645 0.407493 0.827661
C25   C     C_R   0.968233 0.322001 0.966096 0.333939
C26   C     C_R   0.031681 0.678097 0.033884 0.333900
C27   C     C_R   0.811571 0.204394 0.510849 -0.157449
C28   C     C_R   0.188426 0.795607 0.489155 -0.157507
C29   C     C_R   0.780440 0.027819 0.521263 -0.276580
C30   C     C_R   0.219545 0.972180 0.478736 -0.276459
C31   C     C_R   0.846186 0.128855 0.510892 -0.031857
C32   C     C_R   0.153802 0.871143 0.489106 -0.031841
C33   C     C_R   0.708324 0.174914 0.514385 0.287728
C34   C     C_R   0.291679 0.825091 0.485627 0.287723
C35   C     C_R   0.639329 0.076494 0.510100 0.017781
C36   C     C_R   0.360668 0.923511 0.489918 0.017790
C37   C     C_R   0.677589 0.000880 0.523513 0.045271
C38   C     C_R   0.322404 0.999123 0.476500 0.045308
C39   C     C_R   0.533429 0.050665 0.496089 0.061991
C40   C     C_R   0.466567 0.949342 0.503934 0.062061
C41   C     C_R   0.506484 0.877478 0.529678 -0.191738
C42   C     C_R   0.493512 0.122530 0.470347 -0.191973
C43   C     C_R   0.611563 0.901277 0.539003 -0.008720
C44   C     C_R   0.388432 0.098729 0.461018 -0.008803
C45   C     C_R   0.977135 0.414815 0.830102 0.585667
C46   C     C_R   0.022923 0.585288 0.169889 0.585639
C47   C     C_R   0.718521 0.673377 0.419824 -0.324770
C48   C     C_R   0.281476 0.326621 0.580176 -0.324854
C49   C     C_R   0.797655 0.641236 0.430931 0.578215
C50   C     C_R   0.202340 0.358760 0.569067 0.578209
C51   C     C_R   0.713449 0.508965 0.491884 0.022471
C52   C     C_R   0.286556 0.491039 0.508120 0.022472
C53   C     C_R   0.631018 0.539787 0.483213 -0.009065
C54   C     C_R   0.368991 0.460221 0.516795 -0.009079
C55   C     C_R   0.633495 0.622189 0.444810 -0.029578
C56   C     C_R   0.366519 0.377824 0.555202 -0.029534
C57   C     C_R   0.544770 0.489150 0.509467 -0.087433
C58   C     C_R   0.455241 0.510862 0.490542 -0.087443
C59   C     C_R   0.456206 0.583260 0.446519 0.319106
C60   C     C_R   0.543813 0.416764 0.553493 0.319047
C61   C     C_R   0.548010 0.647171 0.428957 -0.057431
C62   C     C_R   0.452017 0.352861 0.571066 -0.057475
C63   C     C_R   0.036056 0.592866 0.814934 0.511381
C64   C     C_R   0.963937 0.407228 0.185049 0.511421
C65   C     C_R   0.935065 0.529477 0.709449 -0.107579
C66   C     C_R   0.064909 0.470509 0.290545 -0.107520
C67   C     C_R   0.932637 0.527836 0.659319 -0.183944
C68   C     C_R   0.067330 0.472130 0.340678 -0.183966
C69   C     C_R   0.075768 0.478222 0.682717 -0.231420
C70   C     C_R   0.924321 0.521932 0.317271 -0.231393
C71   C     C_R   0.079468 0.480423 0.733216 0.030790
C72   C     C_R   0.920633 0.519769 0.266768 0.030739
C73   C     C_R   0.007653 0.505606 0.746638 0.314635
C74   C     C_R   0.992388 0.494491 0.253351 0.314623
Cu1   Cu    Cu3+1 0.081740 0.475690 0.513040 1.026442
Cu2   Cu    Cu3+1 0.918260 0.524310 0.486960 1.026438
H1    H     H_    0.130970 0.458988 0.672524 0.188023
H2    H     H_    0.869169 0.541231 0.327463 0.188114
H3    H     H_    0.808450 0.970103 0.525114 0.151934
H4    H     H_    0.191528 0.029894 0.474877 0.151934
H5    H     H_    0.455528 0.803054 0.543993 0.173869
H6    H     H_    0.544466 0.196958 0.456034 0.173954
H7    H     H_    0.287667 0.558288 0.483703 0.247865
H8    H     H_    0.712340 0.441719 0.516304 0.247857
H9    H     H_    0.722968 0.736469 0.390131 0.174403
H10   H     H_    0.277010 0.263513 0.609860 0.174399
H11   H     H_    0.951156 0.255863 0.902873 0.223140
H12   H     H_    0.048844 0.744256 0.097113 0.223108
H13   H     H_    0.124213 0.453221 0.368566 0.194102
H14   H     H_    0.875712 0.546673 0.631435 0.194209
H15   H     H_    0.120187 0.451354 0.280425 0.145866
H16   H     H_    0.879746 0.548562 0.719575 0.145875
H17   H     H_    0.891288 0.245473 0.139541 0.191383
H18   H     H_    0.108612 0.754609 0.860432 0.191398
H19   H     H_    0.881193 0.246891 0.052527 0.199837
H20   H     H_    0.118642 0.753208 0.947437 0.199857
N1    N     N_R   0.005817 0.504290 0.798227 -0.464361
N2    N     N_R   0.994224 0.495809 0.201761 -0.464371
N3    N     N_R   0.795430 0.560780 0.467350 -0.230063
N4    N     N_R   0.204570 0.439220 0.532650 -0.230074
O1    O     O_R   0.977900 0.338120 0.517190 -0.538036
O2    O     O_R   0.022100 0.661880 0.482810 -0.538042
O3    O     O_R   0.839850 0.379180 0.495160 -0.558364
O4    O     O_R   0.160150 0.620820 0.504840 -0.558380
O5    O     O_R   0.069030 0.479490 0.580750 -0.552928
O6    O     O_R   0.930970 0.520510 0.419250 -0.552934
O7    O     O_R   0.930970 0.520550 0.558720 -0.575103
O8    O     O_R   0.069030 0.479450 0.441280 -0.575078
O9    O     O_2   0.947261 0.328551 0.812511 -0.523628
O10   O     O_2   0.052870 0.671557 0.187490 -0.523674
O11   O     O_2   0.934133 0.319968 0.217140 -0.556775
O12   O     O_2   0.065849 0.680123 0.782842 -0.556805
Cl1   Cl    Cl    0.329381 0.753559 0.458505 -0.616556
Cl2   Cl    Cl    0.670642 0.246453 0.541513 -0.616835
C75   C     C_R   0.050586 0.848959 0.498712 0.154036
C76   C     C_R   0.988265 0.892991 0.464534 -0.065396
C77   C     C_R   0.891213 0.872222 0.473616 -0.158994
C78   C     C_R   0.855651 0.807590 0.516796 -0.137815
C79   C     C_R   0.917952 0.765740 0.551680 -0.097105
C80   C     C_R   0.015505 0.787065 0.543029 -0.123059
H21   H     H_    0.014152 0.942067 0.430494 0.141036
H22   H     H_    0.842980 0.905147 0.446854 0.139466
H23   H     H_    0.779691 0.789787 0.523075 0.154672
H24   H     H_    0.890564 0.716653 0.585366 0.138414
H25   H     H_    0.063178 0.754379 0.570488 0.098985
C81   C     C_R   0.949402 0.151033 0.501288 0.154031
C82   C     C_R   0.984487 0.212920 0.456970 -0.123099
C83   C     C_R   0.082041 0.234240 0.448323 -0.097126
C84   C     C_R   0.144341 0.192396 0.483212 -0.137805
C85   C     C_R   0.108775 0.127771 0.526392 -0.158966
C86   C     C_R   0.011720 0.107004 0.535470 -0.065386
H26   H     H_    0.936816 0.245604 0.429508 0.098986
H27   H     H_    0.109433 0.283318 0.414636 0.138403
H28   H     H_    0.220302 0.210198 0.476937 0.154697
H29   H     H_    0.157006 0.094850 0.553159 0.139478
H30   H     H_    0.985829 0.057933 0.569510 0.141042
C87   C     C_R   0.552164 0.739064 0.392731 0.165892
C88   C     C_R   0.533685 0.739138 0.340850 -0.088008
C89   C     C_R   0.537856 0.826787 0.307359 -0.116881
C90   C     C_R   0.560532 0.914426 0.325503 -0.093814
C91   C     C_R   0.579257 0.914644 0.377174 -0.108002
C92   C     C_R   0.575244 0.827231 0.410712 -0.090440
H31   H     H_    0.516090 0.671559 0.326549 0.141492
H32   H     H_    0.523495 0.826794 0.267354 0.140916
H33   H     H_    0.563679 0.982156 0.299528 0.138446
H34   H     H_    0.596921 0.982451 0.391258 0.136078
H35   H     H_    0.590222 0.828059 0.450628 0.135546
C93   C     C_R   0.447926 0.261046 0.607348 0.165743
C94   C     C_R   0.425343 0.172936 0.589438 -0.089826
C95   C     C_R   0.421416 0.085608 0.623033 -0.107839
C96   C     C_R   0.439747 0.085858 0.674690 -0.093902
C97   C     C_R   0.461954 0.173447 0.692762 -0.116902
C98   C     C_R   0.466042 0.261010 0.659214 -0.088474
H36   H     H_    0.410687 0.172086 0.549532 0.135813
H37   H     H_    0.404124 0.017840 0.609007 0.136126
H38   H     H_    0.436663 0.018195 0.700711 0.138467
H39   H     H_    0.476022 0.173469 0.732756 0.140884
H40   H     H_    0.483287 0.328557 0.673458 0.141360
Cl3   Cl    Cl    0.104673 0.295971 0.606180 -0.632617
Cl4   Cl    Cl    0.895319 0.704022 0.393816 -0.632695
Cl5   Cl    Cl    0.344041 0.578043 0.403462 -0.649950
Cl6   Cl    Cl    0.655985 0.422000 0.596548 -0.649874
C99   C     C_R   0.158371 0.455784 0.771220 0.104314
C100  C     C_R   0.167686 0.364819 0.774685 -0.084019
C101  C     C_R   0.241286 0.340784 0.810825 -0.121806
C102  C     C_R   0.306383 0.407424 0.843580 -0.092360
C103  C     C_R   0.298339 0.498457 0.840078 -0.124294
C104  C     C_R   0.224978 0.522873 0.803940 -0.158259
H41   H     H_    0.117240 0.312101 0.749793 0.164765
H42   H     H_    0.247720 0.270383 0.813495 0.144380
H43   H     H_    0.363262 0.388668 0.871564 0.139672
H44   H     H_    0.349208 0.550300 0.865263 0.143986
H45   H     H_    0.220806 0.594338 0.801229 0.153675
C105  C     C_R   0.841807 0.544550 0.228757 0.104311
C106  C     C_R   0.775141 0.477533 0.196011 -0.158269
C107  C     C_R   0.701880 0.502090 0.159858 -0.124281
C108  C     C_R   0.693989 0.593194 0.156363 -0.092362
C109  C     C_R   0.759138 0.659764 0.189141 -0.121764
C110  C     C_R   0.832636 0.635586 0.225299 -0.083899
H46   H     H_    0.779197 0.406021 0.198711 0.153601
H47   H     H_    0.650975 0.450307 0.134655 0.143992
H48   H     H_    0.637190 0.612060 0.128367 0.139693
H49   H     H_    0.752826 0.730225 0.186471 0.144418
H50   H     H_    0.883121 0.688254 0.250203 0.164768
Cl7   Cl    Cl    0.987958 0.217635 0.005355 -0.596529
Cl8   Cl    Cl    0.011890 0.782436 0.994626 -0.596518
C111  C     C_R   0.649435 0.824694 0.570758 0.090971
C112  C     C_R   0.732538 0.851321 0.609700 -0.138130
C113  C     C_R   0.763712 0.778509 0.641650 -0.153818
C114  C     C_R   0.710133 0.677901 0.636489 -0.103672
C115  C     C_R   0.625878 0.650248 0.599133 -0.092059
C116  C     C_R   0.596695 0.722921 0.565789 -0.195658
H51   H     H_    0.772259 0.928127 0.616166 0.157060
H52   H     H_    0.828101 0.799903 0.671132 0.153357
H53   H     H_    0.732943 0.621235 0.661881 0.149874
H54   H     H_    0.581877 0.572251 0.596607 0.170068
H55   H     H_    0.531851 0.699338 0.536737 0.153509
C117  C     C_R   0.350565 0.175309 0.429256 0.091046
C118  C     C_R   0.403279 0.277077 0.434235 -0.195632
C119  C     C_R   0.374115 0.349753 0.400882 -0.092056
C120  C     C_R   0.289906 0.322107 0.363502 -0.103726
C121  C     C_R   0.236355 0.221501 0.358329 -0.153789
C122  C     C_R   0.267507 0.148686 0.390293 -0.138103
H56   H     H_    0.468093 0.300655 0.463304 0.153425
H57   H     H_    0.418099 0.427750 0.403417 0.170063
H58   H     H_    0.267116 0.378778 0.338102 0.149849
H59   H     H_    0.172007 0.200113 0.328826 0.153343
H60   H     H_    0.227812 0.071883 0.383820 0.157053

loop_
_geom_bond_atom_site_label_1
_geom_bond_atom_site_label_2
_ccdc_geom_bond_type
C65   H16   S    
C66   C68   A    
C87   C92   A    
C44   C117  S    
C101  C102  A    
C70   H2    S    
C77   C78   A    
C8    C26   A    
C120  C121  A    
C14   C18   A    
C69   H1    S    
C85   H29   S    
C42   H6    S    
C77   H22   S    
C94   H36   S    
C83   C84   A    
C109  C110  A    
C47   C49   A    
C79   H24   S    
C27   C33   A    
C34   Cl1   S    
C73   N1    S    
C12   C68   A    
C33   Cl2   S    
C119  H57   S    
C71   C99   S    
C59   Cl5   S    
C47   H9    S    
C100  C101  A    
C35   C37   A    
C110  H50   S    
C88   H31   S    
C14   C15   A    
C45   O9    S    
C9    C22   A    
C2    O2    A    
C108  H48   S    
C23   O5    A    
C63   O12   S    
C65   C73   A    
C76   C77   A    
C30   C38   A    
C3    C18   A    
C60   C62   A    
C11   C23   S    
C98   H40   S    
C69   C71   A    
C105  C106  A    
C36   C40   A    
C78   C79   A    
C113  H52   S    
C7    H11   S    
C99   C100  A    
C11   C67   A    
C119  C120  A    
C65   C67   A    
C60   Cl6   S    
C120  H58   S    
C49   Cl4   S    
C117  C118  A    
C24   O8    A    
C72   C105  S    
C6    C46   A    
C1    O3    A    
C34   C36   A    
C109  H49   S    
Cu1   O1    S    
C30   H4    S    
Cu2   O3    S    
C64   N2    A    
C20   H20   S    
C28   C34   A    
C102  H43   S    
C62   C93   S    
C83   H27   S    
C101  H42   S    
C51   N3    A    
C22   H18   S    
C100  H41   S    
C107  H47   S    
C42   C44   A    
C23   O7    A    
C52   C54   A    
C39   C42   A    
C5    C7    A    
C53   C55   A    
C10   C21   A    
Cu2   O2    S    
C104  H45   S    
C89   C90   A    
C54   C56   A    
C59   C61   A    
C76   H21   S    
C13   C19   A    
C27   C31   A    
C115  C116  A    
C14   C20   A    
C28   C32   A    
C90   C91   A    
C72   C74   A    
C86   H30   S    
C121  C122  A    
C103  C104  A    
C71   C73   A    
C53   C57   A    
C80   H25   S    
C64   O11   S    
C6    C8    A    
C3    C5    A    
C58   C59   A    
C96   H38   S    
C5    C45   A    
C52   N4    A    
C67   H14   S    
C112  C113  A    
C51   C53   A    
C37   C43   A    
C52   H7    S    
C35   C39   A    
Cu1   Cu2   S    
C114  C115  A    
C38   C44   A    
C3    C9    A    
C49   N3    A    
C89   H32   S    
C106  C107  A    
C29   H3    S    
C43   C111  S    
C96   C97   A    
C41   H5    S    
C68   H13   S    
C116  H55   S    
C93   C94   A    
C82   H26   S    
C111  C116  A    
C103  H44   S    
C25   Cl7   S    
C91   H34   S    
C108  C109  A    
C4    C17   A    
C114  H53   S    
C4    C6    A    
C40   C41   A    
C63   N1    A    
C20   C22   A    
C2    O4    A    
Cu1   O5    S    
Cu2   O7    S    
C95   H37   S    
C46   O10   S    
C118  H56   S    
C48   H10   S    
C24   O6    A    
C93   C98   A    
C4    C10   A    
C82   C83   A    
C1    O1    A    
C39   C40   A    
C19   H19   S    
C47   C55   A    
C84   C85   A    
C54   C58   A    
Cu2   N3    S    
C16   C25   A    
C48   C56   A    
C12   C70   A    
C97   H39   S    
C107  C108  A    
Cu2   O6    S    
C74   N2    S    
C19   C21   A    
C9    C63   A    
C92   H35   S    
C10   C64   A    
C41   C43   A    
C115  H54   S    
C15   C26   A    
C90   H33   S    
C112  H51   S    
C70   C72   A    
C79   C80   A    
C11   C69   A    
C15   C17   A    
C66   H15   S    
C50   Cl3   S    
C51   H8    S    
C87   C88   A    
C12   C24   S    
C50   N4    A    
C7    C25   A    
C13   C17   A    
C121  H59   S    
C36   C38   A    
C99   C104  A    
C57   C60   A    
C111  C112  A    
C29   C31   A    
C45   N1    A    
C94   C95   A    
C30   C32   A    
C26   Cl8   S    
C61   C87   S    
C57   C58   A    
Cu1   O4    S    
C102  C103  A    
C21   H17   S    
C81   C86   A    
C81   C82   A    
C55   C61   A    
C48   C50   A    
Cu1   N4    S    
C33   C35   A    
C85   C86   A    
C122  H60   S    
C56   C62   A    
C78   H23   S    
C32   C75   S    
C46   N2    A    
C113  C114  A    
C118  C119  A    
C88   C89   A    
C106  H46   S    
C84   H28   S    
Cu1   O8    S    
C97   C98   A    
C16   C18   A    
C75   C80   A    
C13   C16   A    
C29   C37   A    
C117  C122  A    
C1    C27   S    
C95   C96   A    
C2    C28   S    
C31   C81   S    
C8    H12   S    
C91   C92   A    
C105  C110  A    
C75   C76   A    
C66   C74   A    
