data_mof_unit_56674.cif
_audit_creation_date              2012-12-11T15:31:57-0500
_audit_creation_method            fapswitch 2.2
_symmetry_space_group_name_H-M    P1
_symmetry_Int_Tables_number       1
_space_group_crystal_system       triclinic
_cell_length_a                    13.570762
_cell_length_b                    13.583603
_cell_length_c                    27.69064
_cell_angle_alpha                 90.494558
_cell_angle_beta                  90.166295
_cell_angle_gamma                 119.921728
_cell_volume                      4423.78118451

loop_
_atom_site_label
_atom_site_type_symbol
_atom_type_description
_atom_site_fract_x
_atom_site_fract_y
_atom_site_fract_z
_atom_type_partial_charge
C1    C     C_R   0.619422 0.898357 0.431255 0.544804
C2    C     C_R   0.631326 0.234923 0.208540 -0.104040
C3    C     C_R   0.620588 0.217273 0.258404 -0.100841
C4    C     C_R   0.665831 0.310152 0.290647 0.041658
C5    C     C_R   0.687592 0.345659 0.190682 0.041794
C6    C     C_1   0.694392 0.365699 0.139488 -0.055121
C7    C     C_1   0.649963 0.290031 0.341769 -0.055592
C8    C     C_1   0.701797 0.391149 0.097497 -0.011350
C9    C     C_1   0.232613 0.862734 0.382681 -0.011312
C10   C     C_R   0.276162 0.893556 0.257439 -0.100821
C11   C     C_R   0.257059 0.884310 0.207493 -0.104064
C12   C     C_R   0.599611 0.218332 0.431258 0.541326
C13   C     C_R   0.053688 0.784037 0.221218 -0.100939
C14   C     C_R   0.072788 0.793172 0.271160 -0.104358
C15   C     C_R   0.184133 0.847521 0.289392 0.041668
C16   C     C_R   0.145707 0.829074 0.189256 0.041760
C17   C     C_1   0.124039 0.813976 0.137991 -0.054985
C18   C     C_1   0.205682 0.854164 0.340635 -0.055661
C19   C     C_1   0.096795 0.794592 0.095966 -0.011101
C20   C     C_1   0.634395 0.865842 0.383603 -0.012077
C21   C     C_R   0.600061 0.873999 0.258232 -0.100839
C22   C     C_R   0.607851 0.862322 0.208357 -0.104077
C23   C     C_R   0.279535 0.878822 0.430522 0.540892
C24   C     C_R   0.709230 0.760264 0.222769 -0.100949
C25   C     C_R   0.701540 0.772042 0.272648 -0.104323
C26   C     C_R   0.647327 0.829392 0.290495 0.041777
C27   C     C_R   0.662880 0.805791 0.190504 0.041805
C28   C     C_1   0.675981 0.796968 0.139313 -0.055158
C29   C     C_1   0.641977 0.846028 0.341661 -0.055626
C30   C     C_1   0.693277 0.787192 0.097321 -0.011318
C31   C     C_R   0.639652 0.278204 0.615469 0.031022
C32   C     C_R   0.721449 0.264215 0.640835 -0.128683
C33   C     C_R   0.733329 0.282177 0.690157 -0.123907
C34   C     C_R   0.620514 0.900852 0.569013 0.543313
C35   C     C_R   0.666777 0.318552 0.714546 0.038002
C36   C     C_R   0.593739 0.344257 0.688440 -0.109771
C37   C     C_R   0.579498 0.323256 0.639035 -0.097673
C38   C     C_R   0.574479 0.298810 0.794062 -0.120900
C39   C     C_R   0.583325 0.321476 0.843353 -0.132008
C40   C     C_R   0.785862 0.388578 0.839968 -0.126375
C41   C     C_R   0.777570 0.368942 0.790738 -0.125131
C42   C     C_R   0.672670 0.327921 0.767173 0.036799
C43   C     C_R   0.690141 0.371503 0.866015 0.023776
C44   C     C_R   0.226376 0.866312 0.615678 0.027035
C45   C     C_R   0.601694 0.222957 0.568494 0.551736
C46   C     C_R   0.247847 0.961480 0.644696 0.268016
C47   C     C_R   0.220375 0.945951 0.693454 -0.100237
C48   C     C_R   0.166770 0.837216 0.713115 -0.009696
C49   C     C_R   0.136379 0.742278 0.683306 -0.140088
C50   C     C_R   0.166746 0.756813 0.634927 -0.179007
C51   C     C_R   0.166969 0.747692 0.790979 -0.116782
C52   C     C_R   0.141868 0.731289 0.839864 -0.129431
C53   C     C_R   0.084020 0.873989 0.838116 -0.125746
C54   C     C_R   0.107665 0.889217 0.789251 -0.123037
C55   C     C_R   0.146590 0.824198 0.765131 0.039756
C56   C     C_R   0.281020 0.882509 0.568616 0.558427
C57   C     C_R   0.096817 0.791823 0.863348 0.023372
C58   C     C_R   0.639002 0.862471 0.615691 0.023754
C59   C     C_R   0.546983 0.770761 0.638468 -0.125357
C60   C     C_R   0.553618 0.750728 0.687082 -0.121570
C61   C     C_R   0.653036 0.820715 0.713505 0.037771
C62   C     C_R   0.748377 0.906312 0.689796 -0.121474
C63   C     C_R   0.741262 0.927473 0.641208 -0.130716
C64   C     C_R   0.712348 0.902497 0.796379 -0.119181
C65   C     C_R   0.724542 0.889289 0.845367 -0.127735
C66   C     C_R   0.614970 0.684560 0.834884 -0.127147
C67   C     C_1   0.630904 0.264133 0.383665 -0.011265
C68   C     C_R   0.604428 0.697728 0.785801 -0.123049
C69   C     C_R   0.656087 0.806734 0.765935 0.035449
C70   C     C_R   0.679150 0.780181 0.864564 0.023900
C71   C     C_R   0.049267 0.761164 0.048267 0.545481
C72   C     C_R   0.714408 0.435964 0.049767 0.544925
C73   C     C_R   0.723671 0.770791 0.049562 0.545213
C74   C     C_R   0.043815 0.755664 0.910530 0.542352
C75   C     C_R   0.707876 0.428249 0.912623 0.540991
C76   C     C_R   0.717281 0.764980 0.911840 0.540415
C77   C     C_R   0.723054 0.420890 0.272804 -0.104303
C78   C     C_R   0.733897 0.438542 0.222935 -0.100898
Cr1   Cr    Cr6+3 0.417720 0.831920 0.499820 1.021616
Cr2   Cr    Cr6+3 0.668190 0.085770 0.500360 1.020139
Cr3   Cr    Cr6+3 0.414060 0.082260 0.499840 1.044471
Cr4   Cr    Cr6+3 0.908000 0.821090 0.979770 1.023844
Cr5   Cr    Cr6+3 0.912420 0.571130 0.979880 1.022925
Cr6   Cr    Cr6+3 0.657970 0.566940 0.980940 1.024850
H1    H     H_    0.758076 0.493300 0.297305 0.103084
H2    H     H_    0.572112 0.898232 0.183841 0.103441
H3    H     H_    0.752370 0.716701 0.209338 0.098545
H4    H     H_    0.738666 0.737517 0.297163 0.102994
H5    H     H_    0.769278 0.229611 0.623543 0.131885
H6    H     H_    0.491851 0.262861 0.776723 0.106556
H7    H     H_    0.508277 0.306445 0.863027 0.124954
H8    H     H_    0.789961 0.261302 0.709389 0.098754
H9    H     H_    0.854702 0.392496 0.770894 0.098861
H10   H     H_    0.869488 0.427003 0.856579 0.134058
H11   H     H_    0.544766 0.376630 0.706426 0.096987
H12   H     H_    0.777132 0.524622 0.209494 0.098673
H13   H     H_    0.516908 0.335781 0.619934 0.126860
H14   H     H_    0.200168 0.699121 0.773190 0.104935
H15   H     H_    0.152821 0.667767 0.858677 0.125533
H16   H     H_    0.246641 0.020062 0.716404 0.111228
H17   H     H_    0.091055 0.948526 0.769953 0.096609
H18   H     H_    0.048654 0.921368 0.855235 0.133496
H19   H     H_    0.092368 0.657217 0.697778 0.115956
H20   H     H_    0.148084 0.682848 0.613101 0.131927
H21   H     H_    0.466905 0.718990 0.619712 0.130641
H22   H     H_    0.594705 0.162518 0.184029 0.103519
H23   H     H_    0.749698 0.987537 0.782083 0.105095
H24   H     H_    0.774003 0.964088 0.867759 0.123503
H25   H     H_    0.478868 0.684272 0.704470 0.099595
H26   H     H_    0.560942 0.622499 0.763103 0.100526
H27   H     H_    0.580383 0.599353 0.848746 0.133997
H28   H     H_    0.827305 0.959061 0.709171 0.097976
H29   H     H_    0.813694 0.998078 0.624376 0.119904
H30   H     H_    0.575872 0.131201 0.271826 0.098650
H31   H     H_    0.362699 0.935535 0.271156 0.098615
H32   H     H_    0.328823 0.919000 0.183222 0.103553
H33   H     H_    0.967139 0.740690 0.207496 0.098683
H34   H     H_    0.001011 0.756978 0.295422 0.102828
H35   H     H_    0.558184 0.918820 0.271656 0.098524
O1    O     O_R   0.302900 0.805360 0.446400 -0.506204
O2    O     O_R   0.657980 0.180990 0.549630 -0.511750
O3    O     O_R   0.503420 0.197810 0.553190 -0.488129
O4    O     O_R   0.320350 0.978840 0.548910 -0.450348
O5    O     O_3   0.499990 0.999990 0.500010 -0.248856
O6    O     O_R   0.819150 0.845650 0.033320 -0.505023
O7    O     O_R   0.006060 0.815720 0.028680 -0.493255
O8    O     O_R   0.028100 0.664460 0.032550 -0.504417
O9    O     O_R   0.811290 0.477490 0.029660 -0.493605
O10   O     O_R   0.638120 0.455970 0.034270 -0.504594
O11   O     O_R   0.667540 0.672320 0.030160 -0.492946
O12   O     O_R   0.522090 0.841370 0.450730 -0.493812
O13   O     O_R   0.814460 0.840990 0.926980 -0.519806
O14   O     O_R   0.001710 0.811400 0.930110 -0.504610
O15   O     O_R   0.023410 0.659800 0.926210 -0.522004
O16   O     O_R   0.806940 0.473170 0.931090 -0.506187
O17   O     O_R   0.633420 0.451310 0.927930 -0.521598
O18   O     O_R   0.663190 0.668000 0.931580 -0.503577
O19   O     O_3   0.826130 0.653050 0.980200 -0.246515
O20   O     O_R   0.693280 0.995650 0.447220 -0.505303
O21   O     O_R   0.657260 0.178740 0.451050 -0.494990
O22   O     O_R   0.502640 0.195380 0.446850 -0.510118
O23   O     O_R   0.319630 0.976590 0.450330 -0.499596
O24   O     O_R   0.303680 0.807790 0.552740 -0.531372
O25   O     O_R   0.522820 0.843620 0.549310 -0.504302
O26   O     O_R   0.694060 0.998080 0.553560 -0.522351
O27   O     O_3   0.311312 0.071027 0.627692 -0.537512
C79   C     C_3   0.239067 0.116833 0.621454 -0.112782
H36   H     H_    0.207337 0.129176 0.656687 0.088912
H37   H     H_    0.166564 0.062854 0.596761 0.109858
H38   H     H_    0.288489 0.201487 0.604644 0.134735

loop_
_geom_bond_atom_site_label_1
_geom_bond_atom_site_label_2
_ccdc_geom_bond_type
C48   C55   S    
C66   C68   A    
C21   C26   A    
C50   H20   S    
C15   C18   S    
C41   C42   A    
C54   C55   A    
C54   H17   S    
C19   C71   S    
C79   H36   S    
C24   C27   A    
Cr5   O9    S    
C37   H13   S    
C72   O10   A    
C66   C70   A    
C77   C78   A    
C34   O25   A    
C59   H21   S    
Cr3   O4    S    
C36   C37   A    
C79   H37   S    
C38   C42   A    
C10   C15   A    
C5    C6    S    
C34   O26   A    
C75   O16   A    
C44   C50   A    
C65   C70   A    
C74   O14   A    
Cr6   O10   S    
C12   O22   A    
C35   C42   S    
Cr4   O7    S    
Cr5   O15   S    
C60   H25   S    
C17   C19   T    
C73   O11   A    
C56   O24   A    
C40   C43   A    
Cr1   O24   S    
C35   C36   A    
C78   H12   S    
C16   C17   S    
C14   H34   S    
Cr6   O17   S    
C12   O21   A    
C23   O23   A    
C66   H27   S    
C65   H24   S    
Cr5   O16   S    
C1    O20   A    
Cr2   O2    S    
C51   H14   S    
Cr3   O22   S    
Cr6   O19   S    
C59   C60   A    
C21   C22   A    
C71   O8    A    
C4    C7    S    
C39   H7    S    
C44   C46   A    
C20   C29   T    
C43   C75   S    
C38   C39   A    
C12   C67   S    
C41   H9    S    
C8    C72   S    
Cr3   O5    S    
C51   C52   A    
C56   O4    A    
C79   H38   S    
C24   C25   A    
C52   C57   A    
C33   H8    S    
C40   H10   S    
C23   O1    A    
C30   C73   S    
C53   C57   A    
C75   O17   A    
C9    C23   S    
C6    C8    T    
C45   O2    A    
C58   C59   A    
C53   C54   A    
C2    H22   S    
C25   H4    S    
C47   H16   S    
C31   C37   A    
C60   C61   A    
C57   C74   S    
Cr4   O6    S    
C62   C63   A    
C11   C16   A    
C44   C56   S    
C47   C48   A    
C73   O6    A    
C53   H18   S    
Cr1   O12   S    
Cr1   O1    S    
C71   O7    A    
C68   H26   S    
C64   C69   A    
C11   H32   S    
Cr3   O23   S    
C72   O9    A    
Cr6   O18   S    
C22   C27   A    
C32   H5    S    
C70   C76   S    
C2    C5    A    
Cr4   O13   S    
C3    C4    A    
C64   H23   S    
O27   C79   S    
Cr2   O5    S    
C61   C69   S    
C58   C63   A    
C76   O18   A    
C46   C47   A    
C40   C41   A    
C1    C20   S    
C68   C69   A    
C31   C32   A    
Cr5   O8    S    
C1    O12   A    
C3    H30   S    
C49   H19   S    
C13   H33   S    
C45   O3    A    
Cr2   O20   S    
Cr1   O5    S    
C38   H6    S    
C52   H15   S    
Cr1   O25   S    
Cr3   O3    S    
C64   C65   A    
Cr4   O14   S    
C28   C30   T    
C2    C3    A    
C25   C26   A    
C4    C77   A    
C21   H35   S    
Cr2   O21   S    
C32   C33   A    
C76   O13   A    
C36   H11   S    
C46   O27   S    
C77   H1    S    
C48   C49   A    
C74   O15   A    
Cr6   O11   S    
C33   C35   A    
C51   C55   A    
C22   H2    S    
C61   C62   A    
C24   H3    S    
Cr2   O26   S    
C10   C11   A    
C7    C67   T    
C63   H29   S    
C9    C18   T    
C62   H28   S    
C39   C43   A    
C26   C29   S    
Cr4   O19   S    
C49   C50   A    
C31   C45   S    
C13   C16   A    
C27   C28   S    
C34   C58   S    
C14   C15   A    
C5    C78   A    
C13   C14   A    
Cr5   O19   S    
C10   H31   S    
