data_mof_unit_21635.cif
_audit_creation_date              2012-10-26T20:16:52-0400
_audit_creation_method            fapswitch 2.2
_symmetry_space_group_name_H-M    P1
_symmetry_Int_Tables_number       1
_space_group_crystal_system       triclinic
_cell_length_a                    11.080411
_cell_length_b                    11.025107
_cell_length_c                    10.780481
_cell_angle_alpha                 91.178152
_cell_angle_beta                  91.462181
_cell_angle_gamma                 90.460086
_cell_volume                      1316.21748561

loop_
_atom_site_label
_atom_site_type_symbol
_atom_type_description
_atom_site_fract_x
_atom_site_fract_y
_atom_site_fract_z
_atom_type_partial_charge
C1    C     C_R   0.504075 0.262653 0.498791 0.525010
C2    C     C_R   0.591854 0.870485 0.816182 -0.072848
C3    C     C_R   0.486386 0.111857 0.264303 0.049639
C4    C     C_R   0.492201 0.899506 0.740375 0.047080
C5    C     C_R   0.582756 0.153686 0.194518 -0.060525
C6    C     C_R   0.383075 0.932648 0.795321 -0.075018
C7    C     C_R   0.560028 0.206739 0.080037 -0.087736
C8    C     C_R   0.373526 0.934392 0.924256 -0.058181
C9    C     C_R   0.441385 0.216959 0.033956 -0.102811
C10   C     C_R   0.473562 0.905840 0.999058 -0.036737
C11   C     C_R   0.532867 0.934270 0.393369 -0.052264
C12   C     C_R   0.504329 0.738123 0.501779 0.535684
C13   C     C_R   0.536590 0.069575 0.609708 -0.038790
C14   C     C_R   0.514240 0.872997 0.504736 -0.028881
C15   C     C_R   0.514558 0.129165 0.497702 -0.028834
C16   C     C_R   0.262277 0.493780 0.498348 0.535183
C17   C     C_R   0.737868 0.494313 0.501165 0.536339
C18   C     C_R   0.514410 0.944587 0.615666 -0.055849
C19   C     C_R   0.508780 0.058406 0.387100 -0.062084
C20   C     C_1   0.498036 0.498411 0.072780 0.237588
C21   C     C_1   0.500528 0.498469 0.927118 0.218204
C22   C     C_R   0.182228 0.654490 0.121132 -0.097919
C23   C     C_R   0.871935 0.480534 0.502189 -0.019572
C24   C     C_R   0.856641 0.437165 0.938505 -0.098495
C25   C     C_R   0.148238 0.627457 0.240598 -0.081082
C26   C     C_R   0.891353 0.407236 0.819475 -0.127638
C27   C     C_R   0.106255 0.510443 0.266070 0.081230
C28   C     C_R   0.896101 0.497840 0.731464 0.078923
C29   C     C_R   0.097803 0.420874 0.172998 -0.143217
C30   C     C_R   0.867974 0.618271 0.761813 -0.045695
C31   C     C_R   0.131136 0.448074 0.054129 -0.104649
C32   C     C_R   0.836326 0.648458 0.881568 -0.086650
C33   C     C_R   0.172675 0.564761 0.028209 0.302776
C34   C     C_R   0.128394 0.480070 0.495306 -0.013977
C35   C     C_R   0.829568 0.557862 0.969086 0.257124
C36   C     C_R   0.932123 0.473634 0.390886 -0.102495
C37   C     C_R   0.067996 0.458143 0.604402 -0.105196
C38   C     C_1   0.622692 0.889516 0.310699 0.225145
C39   C     C_1   0.593413 0.132547 0.715844 0.232153
C40   C     C_R   0.943229 0.471647 0.610619 -0.031992
C41   C     C_R   0.057134 0.485867 0.386322 -0.026236
C42   C     C_R   0.345021 0.178089 0.104577 -0.126176
C43   C     C_R   0.583310 0.877843 0.944900 -0.065597
C44   C     C_R   0.367312 0.125220 0.219465 -0.092751
Cu1   Cu    Cu3+1 0.500000 0.500000 0.625300 1.053063
Cu2   Cu    Cu3+1 0.500000 0.500000 0.374700 1.095163
H1    H     H_    0.674848 0.146612 0.229584 0.112125
H2    H     H_    0.874308 0.688780 0.693631 0.122705
H3    H     H_    0.123984 0.377986 0.982459 0.133370
H4    H     H_    0.816914 0.741687 0.906034 0.104059
H5    H     H_    0.883069 0.464774 0.306205 0.239539
H6    H     H_    0.116872 0.437463 0.687054 0.221124
H7    H     H_    0.423852 0.256032 0.944141 0.144098
H8    H     H_    0.466623 0.908197 0.098774 0.130899
H9    H     H_    0.253241 0.187544 0.069604 0.101030
H10   H     H_    0.663604 0.868115 0.002120 0.164772
H11   H     H_    0.292170 0.094729 0.273438 0.100838
H12   H     H_    0.307383 0.962355 0.738401 0.115256
H13   H     H_    0.679013 0.855515 0.775611 0.097950
H14   H     H_    0.364689 0.692293 0.801395 0.391272
H15   H     H_    0.909248 0.731947 0.152258 0.336965
H16   H     H_    0.634595 0.241390 0.028338 0.147329
H17   H     H_    0.289015 0.958568 0.965955 0.111949
H18   H     H_    0.215529 0.744434 0.101194 0.136525
H19   H     H_    0.851790 0.366370 0.006307 0.134588
H20   H     H_    0.152528 0.697475 0.312617 0.120949
H21   H     H_    0.915132 0.314587 0.796049 0.114487
H22   H     H_    0.063464 0.331073 0.192206 0.098931
N1    N     N_1   0.500010 0.499990 0.186410 -0.124831
N2    N     N_1   0.499990 0.500010 0.813590 -0.157925
N3    N     N_1   0.699701 0.859113 0.247504 -0.230465
N4    N     N_1   0.640608 0.182780 0.799056 -0.341704
O1    O     O_R   0.499990 0.319650 0.605810 -0.496477
O2    O     O_2   0.124206 0.645671 0.802615 -0.326675
O3    O     O_3   0.339480 0.688220 0.888517 -0.552027
O4    O     O_2   0.668009 0.674007 0.097029 -0.310738
O5    O     O_2   0.735159 0.475492 0.166364 -0.335060
O6    O     O_3   0.879923 0.664216 0.202730 -0.525587
O7    O     O_R   0.500010 0.680350 0.394190 -0.476855
O8    O     O_R   0.499990 0.319640 0.394190 -0.504436
O9    O     O_R   0.500010 0.680360 0.605810 -0.522924
O10   O     O_R   0.319640 0.500010 0.605810 -0.439983
O11   O     O_R   0.680360 0.499990 0.394190 -0.422929
O12   O     O_R   0.319650 0.500010 0.394190 -0.521619
O13   O     O_R   0.680350 0.499990 0.605810 -0.515954
O14   O     O_2   0.261720 0.472021 0.830412 -0.353229
S1    S     S_3+6 0.222718 0.592336 0.881538 -0.059217
S2    S     S_3+6 0.774517 0.593067 0.112714 -0.042530

loop_
_geom_bond_atom_site_label_1
_geom_bond_atom_site_label_2
_ccdc_geom_bond_type
Cu2   O8    S    
C27   C29   A    
C34   C37   A    
C6    H12   S    
C2    C4    A    
Cu1   O10   S    
Cu1   Cu2   S    
C15   C19   A    
C5    H1    S    
C11   C19   A    
C9    C42   A    
C17   C23   S    
C13   C18   A    
C17   O13   A    
C26   H21   S    
C30   H2    S    
C24   C26   A    
C37   C40   A    
Cu2   O7    S    
C11   C14   A    
C28   C40   S    
C23   C40   A    
C12   O7    A    
C16   O12   A    
Cu1   O1    S    
C14   C18   A    
Cu2   N1    S    
C16   C34   S    
O5    S2    D    
C22   C25   A    
C39   N4    T    
C31   C33   A    
C3    C19   S    
C1    C15   S    
O2    S1    D    
C44   H11   S    
C4    C18   S    
Cu1   N2    S    
C36   C41   A    
C34   C41   A    
C42   C44   A    
C31   H3    S    
C3    C44   A    
C24   C35   A    
C32   C35   A    
C4    C6    A    
C5    C7    A    
C37   H6    S    
O14   S1    D    
C6    C8    A    
C17   O11   A    
C11   C38   S    
Cu1   O13   S    
C7    H16   S    
C42   H9    S    
C29   H22   S    
C35   S2    S    
C27   C41   S    
C2    C43   A    
C16   O10   A    
C32   H4    S    
C36   H5    S    
C24   H19   S    
Cu2   O12   S    
O3    S1    S    
C12   C14   S    
C13   C15   A    
C20   N1    T    
C9    H7    S    
O6    S2    S    
C7    C9    A    
C22   C33   A    
O4    S2    D    
C38   N3    T    
C10   C43   A    
C2    H13   S    
Cu1   O9    S    
C25   H20   S    
C3    C5    A    
C25   C27   A    
H14   O3    S    
C26   C28   A    
C21   N2    T    
C1    O1    A    
C28   C30   A    
C33   S1    S    
C29   C31   A    
C30   C32   A    
C12   O9    A    
C10   H8    S    
C13   C39   S    
H15   O6    S    
C8    H17   S    
C22   H18   S    
Cu2   O11   S    
C43   H10   S    
C20   C21   S    
C8    C10   A    
C23   C36   A    
C1    O8    A    
