data_mof_unit_28736.cif
_audit_creation_date              2012-12-10T16:48:45-0500
_audit_creation_method            fapswitch 2.2
_symmetry_space_group_name_H-M    P1
_symmetry_Int_Tables_number       1
_space_group_crystal_system       triclinic
_cell_length_a                    17.224959
_cell_length_b                    8.675845
_cell_length_c                    7.427784
_cell_angle_alpha                 103.157778
_cell_angle_beta                  89.314628
_cell_angle_gamma                 93.001686
_cell_volume                      1079.39170731

loop_
_atom_site_label
_atom_site_type_symbol
_atom_type_description
_atom_site_fract_x
_atom_site_fract_y
_atom_site_fract_z
_atom_type_partial_charge
C1    C     C_R   0.497767 0.199649 0.453413 0.876676
C2    C     C_R   0.502578 0.800375 0.546471 0.887021
C3    C     C_2   0.496951 0.031657 0.427108 -0.374361
C4    C     C_2   0.504058 0.968399 0.572451 -0.378860
C5    C     C_R   0.351092 0.501051 0.527805 0.779411
C6    C     C_R   0.649034 0.497568 0.471808 0.778994
C7    C     C_R   0.267254 0.513043 0.551104 -0.038897
C8    C     C_R   0.733700 0.507479 0.451608 -0.047669
C9    C     C_R   0.230783 0.607352 0.450623 -0.241639
C10   C     C_R   0.775671 0.606702 0.597590 -0.241165
C11   C     C_R   0.151342 0.624242 0.464412 -0.157204
C12   C     C_R   0.855797 0.623963 0.589966 -0.160749
C13   C     C_R   0.106904 0.546448 0.578839 0.157901
C14   C     C_R   0.895866 0.541355 0.436334 0.160563
C15   C     C_R   0.142814 0.455809 0.684109 -0.192693
C16   C     C_R   0.854905 0.445643 0.287019 -0.193248
C17   C     C_R   0.223004 0.435241 0.669842 0.084986
C18   C     C_R   0.773631 0.425160 0.292618 0.079289
C19   C     C_2   0.022255 0.553705 0.585413 -0.226010
C20   C     C_2   0.980950 0.549457 0.432452 -0.226427
Cu1   Cu    Cu3+1 0.508700 0.517250 0.683000 0.934991
Cu2   Cu    Cu3+1 0.491300 0.482750 0.317000 0.932598
H1    H     H_    0.264115 0.669103 0.361476 0.155446
H2    H     H_    0.746247 0.672814 0.718295 0.156378
H3    H     H_    0.009801 0.536911 0.299315 0.145373
H4    H     H_    0.992957 0.546893 0.714009 0.145694
H5    H     H_    0.107467 0.395560 0.771395 0.120221
H6    H     H_    0.886895 0.382278 0.168949 0.119523
H7    H     H_    0.886413 0.702242 0.704475 0.134589
H8    H     H_    0.124676 0.698178 0.385634 0.134745
H9    H     H_    0.490419 0.959765 0.287115 0.179775
H10   H     H_    0.510550 0.040342 0.712364 0.174692
H11   H     H_    0.440615 0.376607 0.957876 0.219709
H12   H     H_    0.560043 0.622257 0.041839 0.220886
N1    N     N_2   0.478180 0.456750 0.041980 -0.222508
N2    N     N_2   0.521820 0.543250 0.958020 -0.221379
O1    O     O_R   0.505650 0.286040 0.618880 -0.582124
O2    O     O_R   0.494350 0.713960 0.381120 -0.583024
O3    O     O_R   0.490960 0.256910 0.309800 -0.587299
O4    O     O_R   0.509040 0.743090 0.690200 -0.583720
O5    O     O_R   0.394600 0.516230 0.672450 -0.586420
O6    O     O_R   0.605400 0.483770 0.327550 -0.590818
O7    O     O_R   0.379910 0.487100 0.363380 -0.583477
O8    O     O_R   0.620090 0.512900 0.636620 -0.584945
C21   C     C_3   0.733036 0.311940 0.130873 -0.399795
C22   C     C_3   0.700774 0.160014 0.184382 -0.328536
C23   C     C_3   0.654128 0.053488 0.026201 -0.818260
H13   H     H_    0.603560 0.115915 0.991986 0.262520
H14   H     H_    0.691222 0.019333 0.901546 0.243045
H15   H     H_    0.632230 0.944162 0.068184 0.232256
H16   H     H_    0.749829 0.093940 0.219727 0.210999
H17   H     H_    0.662475 0.188549 0.307337 0.215025
H18   H     H_    0.686749 0.371998 0.074971 0.227126
H19   H     H_    0.774435 0.276866 0.014386 0.183896
C24   C     C_3   0.257658 0.324257 0.774681 -0.414451
C25   C     C_3   0.280088 0.169085 0.643494 -0.346174
C26   C     C_3   0.311442 0.054486 0.749954 -0.817802
H20   H     H_    0.364192 0.108238 0.829250 0.247235
H21   H     H_    0.266675 0.023936 0.846739 0.250699
H22   H     H_    0.327071 0.943742 0.651399 0.241065
H23   H     H_    0.228120 0.111371 0.563343 0.218952
H24   H     H_    0.325226 0.193176 0.544211 0.210839
H25   H     H_    0.308298 0.383800 0.857390 0.213096
H26   H     H_    0.214872 0.294379 0.876479 0.193444

loop_
_geom_bond_atom_site_label_1
_geom_bond_atom_site_label_2
_ccdc_geom_bond_type
C16   H6    S    
C2    C4    S    
C24   C25   S    
C15   C17   A    
C22   H17   S    
C12   H7    S    
C4    H10   S    
Cu1   O8    S    
C11   C13   A    
C2    O2    A    
C1    O3    A    
C15   H5    S    
C23   H13   S    
C1    O1    A    
C25   H24   S    
C24   H26   S    
C19   C20   D    
C5    O7    A    
C21   H18   S    
C23   H14   S    
Cu1   N2    S    
C6    O8    A    
C21   C22   S    
C3    H9    S    
Cu2   N1    S    
C9    C11   A    
C26   H20   S    
Cu2   O6    S    
Cu1   O4    S    
C10   C12   A    
Cu1   O5    S    
Cu2   O3    S    
C6    C8    S    
C8    C10   A    
H11   N1    S    
C12   C14   A    
C21   H19   S    
C23   H15   S    
H12   N2    S    
C13   C15   A    
C14   C16   A    
C26   H21   S    
C20   H3    S    
C13   C19   S    
C3    C4    D    
Cu2   O2    S    
C18   C21   S    
C2    O4    A    
Cu1   O1    S    
C25   C26   S    
C14   C20   S    
C7    C9    A    
C6    O6    A    
C5    C7    S    
C19   H4    S    
C17   C24   S    
C22   C23   S    
C9    H1    S    
C26   H22   S    
C5    O5    A    
C10   H2    S    
Cu1   Cu2   S    
C25   H23   S    
C22   H16   S    
C16   C18   A    
C8    C18   A    
Cu2   O7    S    
C11   H8    S    
C24   H25   S    
C1    C3    S    
N1    N2    D    
C7    C17   A    
