data_mof_unit_30059.cif
_audit_creation_date              2012-10-26T18:51:45-0400
_audit_creation_method            fapswitch 2.2
_symmetry_space_group_name_H-M    P1
_symmetry_Int_Tables_number       1
_space_group_crystal_system       triclinic
_cell_length_a                    11.713283
_cell_length_b                    14.764611
_cell_length_c                    14.651695
_cell_angle_alpha                 65.092861
_cell_angle_beta                  103.659426
_cell_angle_gamma                 103.037828
_cell_volume                      2210.22805928

loop_
_atom_site_label
_atom_site_type_symbol
_atom_type_description
_atom_site_fract_x
_atom_site_fract_y
_atom_site_fract_z
_atom_type_partial_charge
C1    C     C_R   0.483163 0.119541 0.311493 0.555843
C2    C     C_R   0.484370 0.605305 0.095000 -0.119487
C3    C     C_R   0.711483 0.291347 0.659281 0.063797
C4    C     C_R   0.292003 0.704956 0.341722 0.104628
C5    C     C_R   0.672529 0.205941 0.634091 0.267467
C6    C     C_R   0.324240 0.788616 0.368516 0.264625
C7    C     C_R   0.513739 0.283859 0.512384 -0.004851
C8    C     C_R   0.491160 0.718486 0.485287 0.000666
C9    C     C_R   0.546626 0.371507 0.535978 -0.033925
C10   C     C_R   0.459911 0.629428 0.463306 -0.033668
C11   C     C_R   0.649411 0.374907 0.608846 0.055388
C12   C     C_R   0.516773 0.880520 0.688474 0.563467
C13   C     C_R   0.357006 0.624146 0.391076 0.051147
C14   C     C_R   0.482247 0.455960 0.488872 0.027836
C15   C     C_R   0.524995 0.544922 0.511062 0.026320
C16   C     C_R   0.284079 0.000065 0.499897 0.544176
C17   C     C_R   0.715925 0.999928 0.500115 0.549552
C18   C     C_R   0.631011 0.546074 0.580124 -0.151355
C19   C     C_R   0.375552 0.453612 0.421099 -0.164831
C20   C     C_R   0.690092 0.462330 0.629439 -0.097412
C21   C     C_R   0.316671 0.536594 0.371252 -0.118994
C22   C     C_1   0.162365 0.000051 0.499910 -0.024292
C23   C     C_R   0.495965 0.325632 0.000775 0.003406
C24   C     C_1   0.837639 0.999928 0.500105 -0.022056
C25   C     C_1   0.059900 0.000009 0.499962 -0.040948
C26   C     C_1   0.940100 0.999956 0.500051 -0.040726
C27   C     C_R   0.479909 0.186790 0.202034 0.012576
C28   C     C_R   0.521294 0.813806 0.798082 0.016871
C29   C     C_R   0.477439 0.220227 0.023029 0.009765
C30   C     C_R   0.522294 0.781656 0.976467 0.011425
C31   C     C_R   0.465955 0.150633 0.124180 0.108884
C32   C     C_R   0.529342 0.850609 0.874542 0.112468
C33   C     C_R   0.496551 0.290550 0.176861 -0.132577
C34   C     C_R   0.512236 0.676430 0.000688 0.022613
C35   C     C_R   0.512714 0.710220 0.824989 -0.176353
C36   C     C_R   0.491886 0.360616 0.076030 0.019216
C37   C     C_R   0.520027 0.641281 0.926387 -0.000798
C38   C     C_3   0.471730 0.183323 0.939449 -0.409866
C39   C     C_3   0.522811 0.819013 0.058718 -0.409618
C40   C     C_R   0.493393 0.465677 0.050035 0.057097
C41   C     C_R   0.522988 0.536547 0.953635 0.020983
C42   C     C_R   0.554189 0.499159 0.888614 0.091236
C43   C     C_R   0.463749 0.502429 0.115842 0.086192
C44   C     C_R   0.528868 0.396625 0.907989 -0.082167
Cu1   Cu    Cu3+1 0.469550 0.918260 0.475690 0.944987
Cu2   Cu    Cu3+1 0.530450 0.081740 0.524310 0.984458
H1    H     H_    0.547086 0.372910 0.852956 0.142000
H2    H     H_    0.440372 0.277119 0.454523 0.131641
H3    H     H_    0.462754 0.970962 0.864425 0.225751
H4    H     H_    0.614261 0.981690 0.887689 0.216056
H5    H     H_    0.517316 0.024528 0.131752 0.228915
H6    H     H_    0.367029 0.024463 0.108200 0.224551
H7    H     H_    0.445240 0.100983 0.961998 0.121225
H8    H     H_    0.405362 0.219934 0.872996 0.135340
H9    H     H_    0.560154 0.202300 0.915455 0.130649
H10   H     H_    0.541269 0.901965 0.034276 0.118992
H11   H     H_    0.434916 0.794353 0.084435 0.132498
H12   H     H_    0.467021 0.628351 0.150832 0.122032
H13   H     H_    0.592673 0.787868 0.124459 0.135878
H14   H     H_    0.574767 0.580257 0.740146 0.221942
H15   H     H_    0.678694 0.621099 0.825461 0.243183
H16   H     H_    0.322384 0.462938 0.188909 0.238505
H17   H     H_    0.455127 0.444034 0.265808 0.224503
H18   H     H_    0.191206 0.852873 0.376092 0.249821
H19   H     H_    0.286503 0.934968 0.291550 0.285554
H20   H     H_    0.822190 0.143321 0.668684 0.206093
H21   H     H_    0.737139 0.093872 0.762139 0.208244
H22   H     H_    0.798017 0.234692 0.804649 0.225844
H23   H     H_    0.671155 0.611154 0.597795 0.104440
H24   H     H_    0.887000 0.283629 0.713565 0.230653
H25   H     H_    0.201713 0.763012 0.198189 0.245762
H26   H     H_    0.114955 0.705058 0.290718 0.249582
H27   H     H_    0.334112 0.388188 0.404521 0.105057
H28   H     H_    0.493800 0.683063 0.764777 0.142909
H29   H     H_    0.521392 0.316571 0.238226 0.172549
H30   H     H_    0.769947 0.467452 0.683296 0.170715
H31   H     H_    0.236308 0.530200 0.318303 0.157182
H32   H     H_    0.566881 0.727186 0.540646 0.124917
N1    N     N_R   0.576230 0.204580 0.560790 -0.214138
N2    N     N_3   0.189596 0.700655 0.266082 -0.656764
N3    N     N_R   0.423770 0.795420 0.439210 -0.229311
N4    N     N_3   0.536843 0.957069 0.846775 -0.602482
N5    N     N_3   0.447365 0.043839 0.149751 -0.613901
N6    N     N_3   0.627711 0.558856 0.811874 -0.651563
N7    N     N_3   0.402886 0.437504 0.199794 -0.658485
N8    N     N_3   0.244180 0.861928 0.323949 -0.639780
N9    N     N_3   0.735004 0.120479 0.683585 -0.537141
N10   N     N_3   0.813671 0.293750 0.735490 -0.665630
O1    O     O_R   0.459870 0.022090 0.338120 -0.470345
O2    O     O_R   0.540130 0.977910 0.661880 -0.424485
O3    O     O_R   0.511290 0.160150 0.379180 -0.521985
O4    O     O_R   0.488710 0.839850 0.620820 -0.524174
O5    O     O_R   0.311490 0.930960 0.479480 -0.510263
O6    O     O_R   0.688510 0.069040 0.520520 -0.468070
O7    O     O_R   0.362910 0.069020 0.520540 -0.496286
O8    O     O_R   0.637090 0.930980 0.479460 -0.501342

loop_
_geom_bond_atom_site_label_1
_geom_bond_atom_site_label_2
_ccdc_geom_bond_type
C15   C18   A    
C35   H28   S    
C34   C37   A    
C41   C42   A    
C38   H9    S    
H24   N10   S    
H19   N8    S    
Cu1   Cu2   S    
C27   C33   A    
C16   O5    A    
C12   C28   S    
C23   C29   A    
C12   O2    A    
C35   C37   A    
C24   C26   T    
C4    N2    S    
C10   C15   A    
Cu2   N1    S    
C39   H11   S    
C33   C36   A    
C31   N5    S    
C20   H30   S    
C4    C13   A    
Cu1   O4    S    
C36   C40   A    
C33   H29   S    
C40   C43   A    
Cu2   O7    S    
C28   C35   A    
C22   C25   T    
C38   H8    S    
C29   C38   S    
C16   C22   S    
C5    N1    A    
Cu1   O1    S    
C44   H1    S    
C2    C34   A    
C18   H23   S    
Cu1   O5    S    
C1    O3    A    
C6    N3    A    
H17   N7    S    
C8    H32   S    
C42   C44   A    
H18   N8    S    
H25   N2    S    
H16   N7    S    
C11   C20   A    
C17   C24   S    
C30   C34   A    
C27   C31   A    
C8    N3    A    
C43   N7    S    
C19   H27   S    
C42   N6    S    
C4    C6    A    
H20   N9    S    
Cu2   O3    S    
C25   C26   S    
C10   C13   A    
C23   C44   A    
H3    N4    S    
H6    N5    S    
C9    C14   A    
C39   H10   S    
Cu2   O6    S    
C28   C32   A    
C2    C43   A    
C39   H13   S    
C13   C21   A    
C17   O8    A    
C9    C11   A    
C8    C10   A    
C40   C41   A    
H22   N10   S    
H5    N5    S    
H4    N4    S    
C7    N1    A    
C7    C9    A    
C16   O7    A    
C1    O1    A    
C19   C21   A    
C3    N10   S    
C14   C19   A    
C12   O4    A    
Cu1   N3    S    
C3    C5    A    
H15   N6    S    
C2    H12   S    
Cu2   O2    S    
C32   N4    S    
H21   N9    S    
C6    N8    S    
C7    H2    S    
H26   N2    S    
C30   C32   A    
H14   N6    S    
C38   H7    S    
C30   C39   S    
C18   C20   A    
C37   C41   A    
C3    C11   A    
C5    N9    S    
C29   C31   A    
C23   C36   A    
C21   H31   S    
C1    C27   S    
C14   C15   A    
C17   O6    A    
Cu1   O8    S    
