data_mof_unit_15101.cif
_audit_creation_date              2012-12-10T20:24:45-0500
_audit_creation_method            fapswitch 2.2
_symmetry_space_group_name_H-M    P1
_symmetry_Int_Tables_number       1
_space_group_crystal_system       triclinic
_cell_length_a                    10.688539
_cell_length_b                    19.302143
_cell_length_c                    18.400929
_cell_angle_alpha                 91.102454
_cell_angle_beta                  89.640904
_cell_angle_gamma                 90.182423
_cell_volume                      3795.53199101

loop_
_atom_site_label
_atom_site_type_symbol
_atom_type_description
_atom_site_fract_x
_atom_site_fract_y
_atom_site_fract_z
_atom_type_partial_charge
C1    C     C_R   0.506159 0.365639 0.499060 0.965634
C2    C     C_R   0.494395 0.634440 0.500972 0.990468
C3    C     C_R   0.872176 0.499524 0.500315 -0.108671
C4    C     C_R   0.127832 0.500542 0.499734 -0.124774
C5    C     C_R   0.935434 0.448079 0.539004 -0.044265
C6    C     C_R   0.064585 0.552006 0.461071 -0.047237
C7    C     C_R   0.537600 0.744263 0.443022 -0.284627
C8    C     C_R   0.464095 0.255394 0.556163 -0.265878
C9    C     C_R   0.543438 0.815598 0.442536 -0.035040
C10   C     C_R   0.462007 0.184015 0.556818 -0.048786
C11   C     C_R   0.510494 0.853569 0.505496 -0.159875
C12   C     C_R   0.500984 0.146393 0.494746 -0.136926
C13   C     C_R   0.469418 0.820197 0.569142 0.334012
C14   C     C_R   0.545243 0.180276 0.432101 0.345403
C15   C     C_R   0.446239 0.748048 0.565577 0.316583
C16   C     C_R   0.564318 0.252795 0.435959 0.183004
C17   C     C_R   0.490478 0.709966 0.503580 -0.236293
C18   C     C_R   0.513344 0.290253 0.496581 -0.219339
C19   C     C_R   0.393519 0.962630 0.500841 -0.103646
C20   C     C_R   0.618499 0.037259 0.499262 -0.102646
C21   C     C_R   0.390694 0.034250 0.498776 -0.072584
C22   C     C_R   0.621321 0.965596 0.501082 -0.087253
C23   C     C_R   0.260190 0.500937 0.500035 0.931902
C24   C     C_R   0.739815 0.499069 0.499970 0.925577
C25   C     C_R   0.503241 0.071324 0.497593 0.171310
C26   C     C_R   0.508746 0.928588 0.502375 0.164155
C27   C     C_R   0.586915 0.538088 0.726633 0.066243
C28   C     C_R   0.412578 0.462372 0.273261 0.028900
C29   C     C_R   0.588209 0.538895 0.802912 -0.198693
C30   C     C_R   0.411477 0.461626 0.196972 -0.211667
C31   C     C_R   0.498662 0.500631 0.841456 0.186351
C32   C     C_R   0.501521 0.499629 0.158517 0.180870
C33   C     C_R   0.411603 0.460815 0.801780 -0.184451
C34   C     C_R   0.588827 0.539163 0.198309 -0.179925
C35   C     C_R   0.413672 0.461386 0.725552 0.006785
C36   C     C_R   0.586714 0.538432 0.274534 0.045911
C37   C     C_R   0.396765 0.529087 0.964173 0.492726
C38   C     C_R   0.603616 0.471264 0.035748 0.486430
C39   C     C_R   0.400114 0.526757 0.040601 -0.317499
C40   C     C_R   0.600238 0.473641 0.959324 -0.312015
C41   C     C_R   0.502722 0.498850 0.077266 -0.108530
C42   C     C_R   0.497618 0.501518 0.922683 -0.104464
C43   C     C_R   0.211034 0.725046 0.414499 -0.125397
C44   C     C_R   0.790607 0.274659 0.585657 -0.129011
C45   C     C_R   0.145960 0.673678 0.451846 -0.093592
C46   C     C_R   0.855004 0.326236 0.548242 -0.099148
C47   C     C_R   0.132907 0.606985 0.420997 0.103826
C48   C     C_R   0.867197 0.393014 0.579000 0.099205
C49   C     C_R   0.181076 0.593252 0.350999 -0.083367
C50   C     C_R   0.818701 0.406669 0.648939 -0.085303
C51   C     C_R   0.246884 0.644573 0.314002 -0.119175
C52   C     C_R   0.753428 0.355161 0.685962 -0.114640
C53   C     C_R   0.262278 0.710352 0.345863 -0.100029
C54   C     C_R   0.738991 0.289266 0.654216 -0.096206
C55   C     C_R   0.935020 0.551698 0.462161 -0.059806
C56   C     C_R   0.064994 0.448414 0.537946 -0.065365
H1    H     H_    0.313493 0.750016 0.317290 0.148375
H2    H     H_    0.688241 0.249445 0.682822 0.150175
H3    H     H_    0.306567 0.933625 0.501418 0.149312
H4    H     H_    0.705448 0.066265 0.498948 0.152596
H5    H     H_    0.301647 0.060835 0.497436 0.150796
H6    H     H_    0.710314 0.938955 0.502354 0.153011
H7    H     H_    0.655180 0.568155 0.697050 0.138458
H8    H     H_    0.343798 0.432585 0.302759 0.123644
H9    H     H_    0.657497 0.569744 0.831650 0.170732
H10   H     H_    0.341873 0.431064 0.168162 0.167072
H11   H     H_    0.342955 0.429403 0.829556 0.179855
H12   H     H_    0.657629 0.570537 0.170629 0.185189
H13   H     H_    0.346267 0.430887 0.695154 0.146576
H14   H     H_    0.654348 0.568709 0.305001 0.140364
H15   H     H_    0.322783 0.547834 0.072186 0.205608
H16   H     H_    0.677527 0.452582 0.927693 0.207459
H17   H     H_    0.222290 0.776144 0.438915 0.146534
H18   H     H_    0.780109 0.223472 0.561332 0.148727
H19   H     H_    0.105565 0.685828 0.504637 0.181484
H20   H     H_    0.895576 0.314186 0.495470 0.184780
H21   H     H_    0.169117 0.542561 0.325685 0.134123
H22   H     H_    0.830069 0.457422 0.674208 0.132273
H23   H     H_    0.285930 0.633323 0.260663 0.139935
H24   H     H_    0.714126 0.366343 0.739252 0.140562
H25   H     H_    0.568585 0.715315 0.395130 0.196659
H26   H     H_    0.428480 0.283995 0.603184 0.192950
N1    N     N_R   0.500020 0.499980 0.689440 -0.098517
N2    N     N_R   0.499980 0.500020 0.310560 -0.090223
O1    O     O_R   0.500010 0.398180 0.560840 -0.635328
O2    O     O_R   0.499990 0.601820 0.439160 -0.644120
O3    O     O_R   0.499950 0.398180 0.439210 -0.585804
O4    O     O_R   0.500050 0.601820 0.560790 -0.554290
O5    O     O_R   0.316790 0.500010 0.560810 -0.603011
O6    O     O_R   0.683210 0.499990 0.439190 -0.581294
O7    O     O_R   0.316730 0.500000 0.439190 -0.649881
O8    O     O_R   0.683270 0.500000 0.560810 -0.656025
Zn1   Zn    Zn3+2 0.500040 0.500000 0.581210 0.997447
Zn2   Zn    Zn3+2 0.499960 0.500000 0.418790 1.003547
S1    S     S_3+6 0.351315 0.707508 0.633337 0.073464
O9    O     O_2   0.434359 0.680022 0.691689 -0.228559
O10   O     O_2   0.259864 0.757965 0.666720 -0.219637
O11   O     O_3   0.268280 0.641527 0.597168 -0.603097
H27   H     H_    0.224121 0.620530 0.638844 0.381820
S2    S     S_3+6 0.662271 0.294650 0.370298 0.112601
O12   O     O_2   0.727424 0.356492 0.403380 -0.312523
O13   O     O_2   0.761326 0.245852 0.342218 -0.172778
O14   O     O_3   0.576019 0.321065 0.299861 -0.425511
H28   H     H_    0.487734 0.316315 0.315662 0.337219
S3    S     S_3+6 0.267148 0.569059 0.922736 0.046923
O15   O     O_2   0.176792 0.513841 0.897839 -0.304926
O16   O     O_2   0.202204 0.616786 0.976226 -0.256537
O17   O     O_3   0.314980 0.614934 0.850802 -0.503119
H29   H     H_    0.237530 0.625912 0.824136 0.400813
S4    S     S_3+6 0.733400 0.431200 0.076996 0.061638
O18   O     O_2   0.690596 0.389305 0.140605 -0.219600
O19   O     O_2   0.799327 0.384397 0.023009 -0.258183
O20   O     O_3   0.833690 0.492907 0.105945 -0.554854
H30   H     H_    0.899013 0.467763 0.132707 0.393656
C57   C     C_1   0.866982 0.606249 0.426060 0.178273
N3    N     N_1   0.813243 0.649824 0.397416 -0.212488
C58   C     C_1   0.133036 0.393912 0.574128 0.179005
N4    N     N_1   0.186760 0.350374 0.602839 -0.213163
C59   C     C_1   0.583933 0.848897 0.376617 0.206494
N5    N     N_1   0.616257 0.875588 0.323912 -0.155491
C60   C     C_1   0.418982 0.150345 0.621997 0.210013
N6    N     N_1   0.384636 0.123367 0.674115 -0.123633
S5    S     S_3+6 0.454523 0.869065 0.652512 0.088664
O21   O     O_2   0.547134 0.927815 0.654767 -0.292489
O22   O     O_2   0.324600 0.898396 0.657784 -0.259692
O23   O     O_3   0.481420 0.819353 0.724769 -0.447113
H31   H     H_    0.458199 0.848579 0.767556 0.400027
S6    S     S_3+6 0.569147 0.131436 0.349409 0.081617
O24   O     O_2   0.548752 0.175411 0.284089 -0.187853
O25   O     O_2   0.700682 0.104070 0.347892 -0.264930
O26   O     O_3   0.468814 0.064214 0.344112 -0.560242
H32   H     H_    0.504161 0.032758 0.306155 0.395268

loop_
_geom_bond_atom_site_label_1
_geom_bond_atom_site_label_2
_ccdc_geom_bond_type
C1    O3    A    
C38   C40   A    
C43   H17   S    
O23   H31   S    
C31   C42   S    
C27   C29   A    
C56   C58   S    
C5    C56   A    
S1    O9    D    
C6    C55   A    
C10   C60   S    
S6    O24   D    
C46   H20   S    
S1    O11   S    
S5    O21   D    
C39   C41   A    
S3    O16   D    
C1    C18   S    
C24   O6    A    
C8    H26   S    
C19   C21   A    
C15   S1    S    
C13   S5    S    
S5    O22   D    
C28   N2    A    
C20   C25   A    
C57   N3    T    
N1    Zn1   S    
O3    Zn2   S    
C50   H22   S    
C14   S6    S    
O17   H29   S    
C7    C9    A    
C37   C42   A    
C19   C26   A    
S4    O18   D    
S2    O12   D    
O2    Zn2   S    
C3    C55   A    
C43   C53   A    
C44   C46   A    
C49   C51   A    
C50   C52   A    
C32   C41   S    
C23   O5    A    
C2    O4    A    
C14   C16   A    
C38   S4    S    
C21   H5    S    
C52   C54   A    
C40   C42   A    
C4    C56   A    
C2    C17   S    
C3    C24   S    
O1    Zn1   S    
C24   O8    A    
C5    C48   S    
C36   H14   S    
O6    Zn2   S    
C51   H23   S    
C45   C47   A    
C1    O1    A    
S3    O17   S    
C46   C48   A    
C6    C47   S    
C38   C41   A    
C4    C6    A    
C34   H12   S    
C4    C23   S    
C53   H1    S    
C16   S2    S    
S5    O23   S    
C11   C26   S    
C19   H3    S    
S2    O14   S    
C8    C18   A    
S6    O25   D    
C51   C53   A    
C32   C34   A    
C37   S3    S    
C22   H6    S    
C43   C45   A    
C29   C31   A    
S2    O13   D    
N2    Zn2   S    
C44   H18   S    
C9    C11   A    
S4    O20   S    
C60   N6    T    
C30   H10   S    
C10   C12   A    
C29   H9    S    
C28   H8    S    
C16   C18   A    
C7    H25   S    
C12   C14   A    
C13   C15   A    
C9    C59   S    
C23   O7    A    
C20   H4    S    
O26   H32   S    
S6    O26   S    
C33   H11   S    
O20   H30   S    
C54   H2    S    
C15   C17   A    
C21   C25   A    
O4    Zn1   S    
C31   C33   A    
C35   N1    A    
C40   H16   S    
C20   C22   A    
C3    C5    A    
C7    C17   A    
C59   N5    T    
S1    O10   D    
C47   C49   A    
S3    O15   D    
C12   C25   S    
C45   H19   S    
C28   C30   A    
C37   C39   A    
C58   N4    T    
O7    Zn2   S    
C30   C32   A    
C11   C13   A    
C55   C57   S    
C36   N2    A    
C48   C50   A    
O8    Zn1   S    
C33   C35   A    
C49   H21   S    
C2    O2    A    
C34   C36   A    
O5    Zn1   S    
S4    O19   D    
C27   N1    A    
C44   C54   A    
C35   H13   S    
C8    C10   A    
O11   H27   S    
C22   C26   A    
O14   H28   S    
C39   H15   S    
C27   H7    S    
C52   H24   S    
