data_mof_unit_33634.cif
_audit_creation_date              2013-03-05T15:55:11-0500
_audit_creation_method            fapswitch 2.2
_symmetry_space_group_name_H-M    P1
_symmetry_Int_Tables_number       1
_space_group_crystal_system       triclinic
_cell_length_a                    12.422629
_cell_length_b                    13.248335
_cell_length_c                    14.337219
_cell_angle_alpha                 77.212413
_cell_angle_beta                  101.21398
_cell_angle_gamma                 116.684215
_cell_volume                      2043.72973005

loop_
_atom_site_label
_atom_site_type_symbol
_atom_site_description
_atom_site_fract_x
_atom_site_fract_y
_atom_site_fract_z
_atom_type_partial_charge
O1    O     O_R   0.972510 0.318130 0.525390 -0.577701
O2    O     O_R   0.806530 0.359650 0.491290 -0.605618
C1    C     C_R   0.854808 0.286775 0.507676 0.756357
O3    O     O_R   0.083010 0.479240 0.641000 -0.565809
O4    O     O_R   0.917030 0.520750 0.606900 -0.577736
C2    C     C_R   0.000310 0.499437 0.668753 0.780833
Cu1   Cu    Cu3+1 0.098280 0.475420 0.520190 1.006181
Cu2   Cu    Cu3+1 0.901720 0.524580 0.479810 0.962783
O5    O     O_R   0.193470 0.640350 0.508710 -0.529027
O6    O     O_R   0.027490 0.681870 0.474610 -0.563212
O7    O     O_R   0.082970 0.479250 0.393100 -0.514058
O8    O     O_R   0.916990 0.520760 0.359000 -0.568420
C3    C     C_R   0.144976 0.713381 0.491279 0.833682
C4    C     C_R   0.999593 0.500416 0.331268 0.831847
C5    C     C_1   0.001213 0.499215 0.771385 -0.176940
C6    C     C_1   0.001012 0.499352 0.856817 0.012216
C7    C     C_1   0.000240 0.499725 0.957372 0.035770
C8    C     C_1   0.999476 0.500089 0.042661 0.045373
C9    C     C_1   0.998747 0.500456 0.143217 0.052503
C10   C     C_1   0.998622 0.500589 0.228652 -0.101190
C11   C     C_R   0.267794 0.026121 0.395620 -0.001661
H1    H     H_    0.090978 0.894218 0.418341 0.233042
C12   C     C_R   0.227514 0.836075 0.481671 -0.090111
C13   C     C_R   0.813592 0.086033 0.573546 -0.165870
C14   C     C_R   0.732893 0.974421 0.601772 -0.123735
C15   C     C_R   0.609311 0.939352 0.574468 -0.110460
C16   C     C_R   0.563256 0.013605 0.511552 0.094986
C17   C     C_R   0.647411 0.124968 0.477389 0.058807
C18   C     C_R   0.436846 0.981212 0.482277 0.063911
C19   C     C_R   0.395288 0.061590 0.421837 0.014873
C20   C     C_R   0.482827 0.172280 0.388925 -0.032535
C21   C     C_R   0.605380 0.196318 0.408385 -0.227020
C22   C     C_R   0.350605 0.869399 0.509925 -0.152595
C23   C     C_R   0.186770 0.917830 0.434022 -0.235743
C24   C     C_R   0.771850 0.163852 0.515230 -0.082713
H2    H     H_    0.376171 0.804358 0.551936 0.177850
H3    H     H_    0.908084 0.112959 0.601989 0.157281
H4    H     H_    0.553349 0.853853 0.605520 0.154649
H5    H     H_    0.765754 0.915900 0.649175 0.155368
H6    H     H_    0.668243 0.275266 0.371408 0.197557
C25   C     C_R   0.336710 0.317207 0.645114 -0.272364
H7    H     H_    0.156930 0.296024 0.653404 0.142295
H8    H     H_    0.539770 0.286298 0.684868 0.154252
H9    H     H_    0.330220 0.245921 0.701678 0.155406
N1    N     N_R   0.246290 0.438200 0.550780 -0.224365
C26   C     C_R   0.748339 0.633421 0.364321 0.035834
C27   C     C_R   0.641121 0.646044 0.327330 0.241726
C28   C     C_R   0.541015 0.584793 0.376779 -0.164990
C29   C     C_R   0.547806 0.522899 0.468369 -0.036405
C30   C     C_R   0.653689 0.503411 0.500724 0.257160
C31   C     C_R   0.446454 0.470082 0.523080 -0.060800
C32   C     C_R   0.441701 0.380129 0.598424 0.156786
C33   C     C_R   0.542039 0.354555 0.626233 -0.233920
C34   C     C_R   0.647470 0.417542 0.580500 -0.152010
C35   C     C_R   0.349496 0.503982 0.505880 0.453111
C36   C     C_R   0.238572 0.345797 0.618163 0.028258
N2    N     N_R   0.754310 0.561180 0.449760 -0.256660
H10   H     H_    0.456220 0.582453 0.339894 0.221095
H11   H     H_    0.719795 0.392555 0.607218 0.193879
N3    N     N_R   0.367616 0.615535 0.454752 0.109669
O9    O     O_R   0.303144 0.627230 0.373480 -0.345952
O10   O     O_R   0.463779 0.704161 0.479568 -0.404627
C37   C     C_2   0.841910 0.681785 0.297459 0.988758
O11   O     O_2   0.822178 0.639580 0.224624 -0.566290
O12   O     O_R   0.944474 0.782690 0.310067 -0.757252
H12   H     H_    0.999229 0.809016 0.257225 0.332935
N4    N     N_R   0.631070 0.717140 0.237036 0.150754
O13   O     O_R   0.717772 0.818201 0.216326 -0.304312
O14   O     O_R   0.529470 0.687412 0.180897 -0.305305
C38   C     C_2   0.453744 0.270598 0.343761 0.870521
O15   O     O_2   0.504432 0.335869 0.274787 -0.550867
O16   O     O_R   0.372278 0.291444 0.382804 -0.769307
H13   H     H_    0.356429 0.358139 0.343788 0.336922
C39   C     C_2   0.213608 0.087778 0.316387 0.891325
O17   O     O_2   0.126590 0.101743 0.328247 -0.548465
O18   O     O_R   0.257841 0.124275 0.226561 -0.739319
H14   H     H_    0.212592 0.163978 0.178060 0.348803

loop_
_geom_bond_atom_site_label_1
_geom_bond_atom_site_label_2
_geom_bond_distance
_ccdc_geom_bond_type
C37   O12   1.389511 S    
C16   C18   1.429835 A    
C9    C10   1.225588 T    
Cu1   Cu2   2.726404 S    
C33   C34   1.397097 A    
Cu1   O7    1.786563 S    
C15   C16   1.421507 A    
C30   C34   1.409895 A    
C39   O18   1.398301 S    
Cu1   N1    2.054544 S    
C19   C20   1.420109 A    
O7    C4    1.315676 A    
C5    C6    1.225745 T    
C18   C22   1.406810 A    
C22   H2    1.071369 S    
C3    C12   1.473577 S    
N3    O10   1.300819 A    
C8    C9    1.444582 S    
O5    C3    1.311261 A    
H7    C36   1.081613 S    
C2    C5    1.468683 S    
H8    C33   1.083994 S    
C20   C38   1.484841 S    
C27   C28   1.374590 A    
N1    C36   1.359492 A    
C6    C7    1.444695 S    
C12   C22   1.388915 A    
C38   O15   1.223425 D    
C25   C32   1.400060 A    
C35   N3    1.434560 S    
O3    Cu1   1.792725 S    
C27   N4    1.442798 S    
C7    C8    1.225776 T    
C34   H11   1.068027 S    
H1    C23   1.075734 S    
C13   C24   1.400281 A    
C39   O17   1.223406 D    
N4    O13   1.301564 A    
C4    C10   1.468426 S    
C17   C21   1.404743 A    
O18   H14   1.013801 S    
C17   C24   1.425380 A    
O3    C2    1.318480 A    
C15   H4    1.074458 S    
C11   C23   1.394069 A    
C29   C31   1.428297 A    
C14   C15   1.390008 A    
C11   C39   1.482054 S    
C31   C32   1.407943 A    
N3    O9    1.300676 A    
O1    C1    1.315952 A    
C25   C36   1.394914 A    
C18   C19   1.436187 A    
Cu2   N2    2.042610 S    
C20   C21   1.391304 A    
C1    C24   1.477793 S    
Cu2   O8    1.792725 S    
C12   C23   1.387941 A    
C13   H3    1.083317 S    
C13   C14   1.384469 A    
C28   C29   1.395080 A    
O8    C4    1.318426 A    
O12   H12   1.014242 S    
C26   N2    1.389768 A    
C25   H9    1.083563 S    
C32   C33   1.397720 A    
Cu1   O5    1.948252 S    
C26   C27   1.403322 A    
O1    Cu1   1.959939 S    
C30   N2    1.389441 A    
O2    Cu2   1.948253 S    
O16   H13   1.013434 S    
O6    C3    1.312541 A    
O4    Cu2   1.786563 S    
C28   H10   1.073076 S    
C11   C19   1.431351 A    
C26   C37   1.474176 S    
O2    C1    1.308380 A    
C14   H5    1.082925 S    
O4    C2    1.315728 A    
C31   C35   1.426391 A    
C21   H6    1.080204 S    
C37   O11   1.224352 D    
N1    C35   1.373612 A    
Cu2   O6    1.959939 S    
C29   C30   1.423599 A    
C16   C17   1.415458 A    
C38   O16   1.397707 S    
N4    O14   1.301803 A    
