data_mof_unit_53090.cif
_audit_creation_date              2012-10-26T20:13:49-0400
_audit_creation_method            fapswitch 2.2
_symmetry_space_group_name_H-M    P1
_symmetry_Int_Tables_number       1
_space_group_crystal_system       triclinic
_cell_length_a                    8.725402
_cell_length_b                    10.860527
_cell_length_c                    9.564936
_cell_angle_alpha                 90.876336
_cell_angle_beta                  96.662786
_cell_angle_gamma                 90.741597
_cell_volume                      900.071146432

loop_
_atom_site_label
_atom_site_type_symbol
_atom_type_description
_atom_site_fract_x
_atom_site_fract_y
_atom_site_fract_z
_atom_type_partial_charge
C1    C     C_R   0.495080 0.262128 0.497831 0.543825
C2    C     C_R   0.578049 0.589841 0.935555 0.092042
C3    C     C_3   0.746597 0.617526 0.946351 0.265922
C4    C     C_R   0.204816 0.493343 0.465383 0.562949
C5    C     C_3   0.748126 0.616496 0.104391 0.290048
C6    C     C_R   0.493837 0.737387 0.499986 0.557732
C7    C     C_R   0.795815 0.499904 0.535079 0.564999
C8    C     C_2   0.041711 0.471841 0.450596 0.394465
C9    C     C_2   0.960884 0.509837 0.552612 -0.093117
C10   C     C_R   0.487825 0.065748 0.619526 0.080661
C11   C     C_R   0.476378 0.128343 0.492425 -0.104998
C12   C     C_R   0.430557 0.930152 0.369883 0.382160
C13   C     C_R   0.435374 0.059254 0.365163 -0.016005
C14   C     C_2   0.408354 0.115532 0.224582 0.356422
C15   C     C_R   0.471626 0.869690 0.497795 -0.021529
C16   C     C_R   0.486980 0.939137 0.622205 -0.089940
C17   C     C_3   0.607614 0.936528 0.746039 -0.156036
C18   C     C_3   0.607785 0.076124 0.744038 0.291191
C19   C     C_R   0.578791 0.589409 0.082948 0.143174
C20   C     C_R   0.407586 0.421453 0.063390 0.064339
C21   C     C_R   0.407890 0.420959 0.914706 0.533752
Cu1   Cu    Cu3+1 0.499990 0.499980 0.640670 1.100470
Cu2   Cu    Cu3+1 0.500010 0.500020 0.359330 1.113242
F1    F     F_    0.977859 0.399398 0.341613 -0.533678
F2    F     F_    0.316124 0.339116 0.834673 -0.555222
F3    F     F_    0.777793 0.733280 0.898386 -0.663051
F4    F     F_    0.830951 0.518247 0.159361 -0.562206
F5    F     F_    0.397276 0.864477 0.247563 -0.568920
F6    F     F_    0.548792 0.126923 0.859808 -0.553800
H1    H     H_    0.815563 0.543498 0.903673 0.188190
H2    H     H_    0.778806 0.706049 0.158994 0.164166
H3    H     H_    0.016202 0.555306 0.647776 0.098454
H4    H     H_    0.562379 0.897574 0.840223 0.243691
H5    H     H_    0.717495 0.897146 0.718737 0.165148
H6    H     H_    0.718207 0.119110 0.720817 0.127900
H7    H     H_    0.333884 0.357141 0.110301 0.165178
H8    H     H_    0.492747 0.178355 0.189292 0.147365
N1    N     N_R   0.500980 0.500930 0.148050 -0.267419
N2    N     N_R   0.500990 0.500890 0.852140 -0.263209
O1    O     O_R   0.500000 0.319640 0.618810 -0.413346
O2    O     O_R   0.500020 0.319680 0.381230 -0.543114
O3    O     O_R   0.274830 0.499980 0.591380 -0.511340
O4    O     O_R   0.274850 0.500020 0.353800 -0.466304
O5    O     O_R   0.499980 0.680320 0.618770 -0.501881
O6    O     O_R   0.500000 0.680360 0.381190 -0.453802
O7    O     O_R   0.725150 0.499980 0.646200 -0.527618
O8    O     O_R   0.725170 0.500020 0.408620 -0.399901
O9    O     O_2   0.293310 0.088087 0.144436 -0.371049

loop_
_geom_bond_atom_site_label_1
_geom_bond_atom_site_label_2
_ccdc_geom_bond_type
C5    H2    S    
C3    H1    S    
C14   O9    D    
C5    C19   S    
C6    O6    A    
Cu2   N1    S    
C20   N1    A    
C18   H6    S    
Cu2   O2    S    
C12   C15   A    
C4    C8    S    
Cu1   O1    S    
C4    O3    A    
C2    C3    S    
C2    C19   A    
C18   F6    S    
C10   C16   A    
C13   C14   S    
C20   C21   A    
C14   H8    S    
C11   C13   A    
Cu1   O3    S    
C17   H4    S    
C10   C18   S    
Cu2   O6    S    
Cu1   N2    S    
C1    O2    A    
Cu1   O7    S    
C4    O4    A    
C12   F5    S    
C17   C18   S    
C9    H3    S    
Cu2   O8    S    
C10   C11   A    
C15   C16   A    
C20   H7    S    
C7    O7    A    
C19   N1    A    
Cu2   O4    S    
C12   C13   A    
C17   H5    S    
C7    C9    S    
C21   F2    S    
Cu1   Cu2   S    
C16   C17   S    
C6    O5    A    
C1    C11   S    
C1    O1    A    
C8    F1    S    
C6    C15   S    
C5    F4    S    
C2    N2    A    
C3    F3    S    
Cu1   O5    S    
C7    O8    A    
C8    C9    D    
C3    C5    S    
C21   N2    A    
