data_mof_unit_67408.cif
_audit_creation_date              2013-03-05T15:39:48-0500
_audit_creation_method            fapswitch 2.2
_symmetry_space_group_name_H-M    P1
_symmetry_Int_Tables_number       1
_space_group_crystal_system       triclinic
_cell_length_a                    11.794482
_cell_length_b                    12.964229
_cell_length_c                    7.602563
_cell_angle_alpha                 89.99997
_cell_angle_beta                  110.218054
_cell_angle_gamma                 90.000183
_cell_volume                      1090.85309274

loop_
_atom_site_label
_atom_site_type_symbol
_atom_site_description
_atom_site_fract_x
_atom_site_fract_y
_atom_site_fract_z
_atom_type_partial_charge
O1    O     O_R   0.398880 0.887420 0.621600 -0.560642
O2    O     O_R   0.601120 0.112580 0.378400 -0.560642
O3    O     O_R   0.601120 0.887420 0.378400 -0.560643
O4    O     O_R   0.398880 0.112580 0.621600 -0.560643
O5    O     O_R   0.898880 0.387420 0.621600 -0.560642
O6    O     O_R   0.101120 0.612580 0.378400 -0.560642
O7    O     O_R   0.101120 0.387420 0.378400 -0.560643
O8    O     O_R   0.898880 0.612580 0.621600 -0.560643
O9    O     O_R   0.369080 0.887420 0.305440 -0.572276
O10   O     O_R   0.630920 0.112580 0.694560 -0.572276
O11   O     O_R   0.630920 0.887420 0.694560 -0.572279
O12   O     O_R   0.369080 0.112580 0.305440 -0.572280
O13   O     O_R   0.869080 0.387420 0.305440 -0.572276
O14   O     O_R   0.130920 0.612580 0.694560 -0.572276
O15   O     O_R   0.130920 0.387420 0.694560 -0.572279
O16   O     O_R   0.869080 0.612580 0.305440 -0.572280
C1    C     C_R   0.345969 0.854140 0.452507 0.880351
C2    C     C_R   0.654031 0.145860 0.547493 0.880350
C3    C     C_R   0.654031 0.854139 0.547493 0.880351
C4    C     C_R   0.345969 0.145861 0.452507 0.880352
C5    C     C_R   0.845969 0.354139 0.452507 0.880351
C6    C     C_R   0.154031 0.645860 0.547493 0.880350
C7    C     C_R   0.154030 0.354139 0.547493 0.880351
C8    C     C_R   0.845969 0.645861 0.452507 0.880352
Cu1   Cu    Cu3+1 0.517640 0.000000 0.687200 0.988692
Cu2   Cu    Cu3+1 0.482360 0.000000 0.312800 0.988692
Cu3   Cu    Cu3+1 0.017640 0.500000 0.687200 0.988692
Cu4   Cu    Cu3+1 0.982360 0.500000 0.312800 0.988692
C9    C     C_2   0.247598 0.216564 0.429099 -0.021584
C10   C     C_2   0.752402 0.783435 0.570901 -0.021584
C11   C     C_2   0.752404 0.216563 0.570900 -0.021583
C12   C     C_2   0.247596 0.783437 0.429100 -0.021583
C13   C     C_2   0.747598 0.716564 0.429099 -0.021584
C14   C     C_2   0.252402 0.283435 0.570901 -0.021584
C15   C     C_2   0.252404 0.716563 0.570900 -0.021583
C16   C     C_2   0.747596 0.283437 0.429100 -0.021583
N1    N     N_2   0.455760 0.000000 0.031460 -0.224822
N2    N     N_2   0.544240 0.000000 0.968540 -0.224822
N3    N     N_2   0.955760 0.500000 0.031460 -0.224822
N4    N     N_2   0.044240 0.500000 0.968540 -0.224822
C17   C     C_3   0.635959 0.700131 0.255693 -0.816758
H1    H     H_    0.640259 0.626067 0.184916 0.255217
H2    H     H_    0.553378 0.696320 0.294267 0.219264
H3    H     H_    0.627795 0.762744 0.152394 0.254868
C18   C     C_3   0.364041 0.299869 0.744307 -0.816758
H4    H     H_    0.359741 0.373932 0.815083 0.255217
H5    H     H_    0.372204 0.237255 0.847606 0.254868
H6    H     H_    0.446622 0.303680 0.705733 0.219264
C19   C     C_3   0.364049 0.700122 0.744296 -0.816744
H7    H     H_    0.359751 0.626055 0.815064 0.255212
H8    H     H_    0.446626 0.696313 0.705709 0.219257
H9    H     H_    0.372220 0.762732 0.847607 0.254867
C20   C     C_3   0.635951 0.299877 0.255704 -0.816744
H10   H     H_    0.640249 0.373945 0.184936 0.255212
H11   H     H_    0.627780 0.237268 0.152393 0.254867
H12   H     H_    0.553374 0.303686 0.294291 0.219257
C21   C     C_3   0.135959 0.200131 0.255693 -0.816758
H13   H     H_    0.140259 0.126067 0.184916 0.255217
H14   H     H_    0.053378 0.196320 0.294267 0.219264
H15   H     H_    0.127795 0.262744 0.152394 0.254868
C22   C     C_3   0.864041 0.799869 0.744307 -0.816758
H16   H     H_    0.859741 0.873932 0.815083 0.255217
H17   H     H_    0.872205 0.737255 0.847606 0.254868
H18   H     H_    0.946622 0.803680 0.705733 0.219264
C23   C     C_3   0.864049 0.200122 0.744296 -0.816744
H19   H     H_    0.859751 0.126055 0.815064 0.255212
H20   H     H_    0.946626 0.196313 0.705709 0.219257
H21   H     H_    0.872220 0.262732 0.847607 0.254867
C24   C     C_3   0.135951 0.799877 0.255704 -0.816744
H22   H     H_    0.140249 0.873945 0.184936 0.255212
H23   H     H_    0.127780 0.737268 0.152393 0.254867
H24   H     H_    0.053374 0.803686 0.294291 0.219257
C25   C     C_2   0.328220 0.999999 0.923778 1.032952
O17   O     O_2   0.257711 0.999998 0.009238 -0.621336
O18   O     O_R   0.278502 0.999999 0.730219 -0.747417
H25   H     H_    0.186810 0.999999 0.680713 0.295055
C26   C     C_2   0.671780 0.000001 0.076222 1.032952
O19   O     O_2   0.742289 0.000002 0.990761 -0.621336
O20   O     O_R   0.721498 0.000001 0.269781 -0.747417
H26   H     H_    0.813190 0.000001 0.319287 0.295055
C27   C     C_2   0.828220 0.499999 0.923778 1.032952
O21   O     O_2   0.757711 0.499998 0.009238 -0.621336
O22   O     O_R   0.778502 0.499999 0.730219 -0.747417
H27   H     H_    0.686810 0.499999 0.680713 0.295055
C28   C     C_2   0.171780 0.500001 0.076222 1.032952
O23   O     O_2   0.242289 0.500002 0.990761 -0.621336
O24   O     O_R   0.221498 0.500001 0.269781 -0.747417
H28   H     H_    0.313190 0.500001 0.319287 0.295055

loop_
_geom_bond_atom_site_label_1
_geom_bond_atom_site_label_2
_geom_bond_distance
_ccdc_geom_bond_type
O16   Cu4   1.966408 S    
O24   H28   1.014826 S    
O2    C2    1.293718 A    
C17   H2    1.111108 S    
C17   H1    1.110364 S    
C20   H11   1.110267 S    
O4    Cu1   1.964197 S    
C5    C16   1.440598 S    
C26   O19   1.219506 D    
C6    C15   1.440598 S    
O11   C3    1.311954 A    
C18   H6    1.111108 S    
O11   Cu1   1.966407 S    
O6    C6    1.293718 A    
C22   H17   1.110254 S    
C25   O17   1.219506 D    
C18   H5    1.110254 S    
C24   H23   1.110267 S    
C16   C20   1.522288 S    
O5    Cu3   1.964192 S    
O6    Cu4   1.964190 S    
C19   H8    1.111117 S    
C15   C19   1.522288 S    
O13   Cu4   1.966402 S    
O3    C3    1.293720 A    
O14   Cu3   1.966400 S    
C19   H9    1.110267 S    
O15   C7    1.311954 A    
O16   C8    1.311953 A    
O1    Cu1   1.964192 S    
C25   O18   1.383068 S    
C22   H16   1.110364 S    
C27   O22   1.383068 S    
O9    Cu2   1.966402 S    
C27   O21   1.219506 D    
C4    C9    1.440598 S    
C26   O20   1.383068 S    
C28   O24   1.383068 S    
C12   C15   1.369222 D    
N3    C27   1.442855 S    
N3    N4    1.289538 D    
C21   H15   1.110254 S    
Cu4   N3    2.051713 S    
C23   H20   1.111117 S    
Cu1   Cu2   2.730657 S    
C28   O23   1.219506 D    
C9    C14   1.369223 D    
O7    Cu4   1.964197 S    
O12   Cu2   1.966408 S    
N4    C28   1.442855 S    
C24   H24   1.111117 S    
O18   H25   1.014826 S    
N1    N2    1.289538 D    
Cu1   N2    2.051713 S    
O15   Cu3   1.966407 S    
O22   H27   1.014826 S    
Cu3   N4    2.051713 S    
C23   H21   1.110267 S    
O12   C4    1.311953 A    
O13   C5    1.311953 A    
O2    Cu2   1.964190 S    
C14   C18   1.522274 S    
O10   Cu1   1.966400 S    
O9    C1    1.311953 A    
C9    C21   1.522274 S    
C23   H19   1.110374 S    
C1    C12   1.440598 S    
C17   H3    1.110254 S    
C20   H12   1.111117 S    
C11   C23   1.522288 S    
N1    C25   1.442855 S    
C7    C14   1.440598 S    
C10   C13   1.369223 D    
O3    Cu2   1.964197 S    
Cu2   N1    2.051713 S    
C20   H10   1.110374 S    
C12   C24   1.522288 S    
N2    C26   1.442855 S    
O1    C1    1.293717 A    
C8    C13   1.440598 S    
C13   C17   1.522274 S    
O14   C6    1.311953 A    
C22   H18   1.111108 S    
C21   H13   1.110364 S    
O10   C2    1.311953 A    
O7    C7    1.293720 A    
O8    C8    1.293719 A    
C24   H22   1.110374 S    
C21   H14   1.111108 S    
O20   H26   1.014826 S    
O4    C4    1.293719 A    
C18   H4    1.110364 S    
O5    C5    1.293717 A    
C19   H7    1.110374 S    
C10   C22   1.522274 S    
Cu3   Cu4   2.730657 S    
O8    Cu3   1.964197 S    
C11   C16   1.369222 D    
C2    C11   1.440598 S    
C3    C10   1.440598 S    
