data_mof_unit_39973.cif
_audit_creation_date              2012-12-11T15:54:53-0500
_audit_creation_method            fapswitch 2.2
_symmetry_space_group_name_H-M    P1
_symmetry_Int_Tables_number       1
_space_group_crystal_system       monoclinic
_cell_length_a                    17.513301
_cell_length_b                    24.333029
_cell_length_c                    15.036521
_cell_angle_alpha                 90.0
_cell_angle_beta                  125.942637
_cell_angle_gamma                 90.0
_cell_volume                      5187.81841712

loop_
_atom_site_label
_atom_site_type_symbol
_atom_type_description
_atom_site_fract_x
_atom_site_fract_y
_atom_site_fract_z
_atom_type_partial_charge
C1    C     C_R   0.901729 0.876365 0.091743 -0.138338
C2    C     C_R   0.146914 0.847183 0.090865 -0.152828
C3    C     C_R   0.315874 0.642153 0.998083 -0.009455
C4    C     C_R   0.698211 0.000000 0.631853 -0.008115
C5    C     C_R   0.198648 0.500000 0.631530 -0.007304
C6    C     C_R   0.064010 0.000000 0.366725 -0.008367
C7    C     C_R   0.483120 0.500000 0.308062 -0.000943
C8    C     C_R   0.267854 0.953903 0.246578 -0.139470
C9    C     C_R   0.267854 0.046097 0.246578 -0.139470
C10   C     C_R   0.767972 0.453919 0.246925 -0.140560
C11   C     C_R   0.767972 0.546081 0.246925 -0.140559
C12   C     C_R   0.018773 0.046147 0.750698 -0.139722
C13   C     C_R   0.649660 0.652098 0.091003 -0.151654
C14   C     C_R   0.018773 0.953853 0.750698 -0.139722
C15   C     C_R   0.449282 0.545865 0.695760 -0.143281
C16   C     C_R   0.449282 0.454135 0.695760 -0.143281
C17   C     C_R   0.649660 0.347902 0.091003 -0.151654
C18   C     C_R   0.324199 0.000000 0.272513 -0.011418
C19   C     C_R   0.824335 0.500000 0.272834 -0.010087
C20   C     C_R   0.047891 1.000000 0.723464 -0.011174
C21   C     C_R   0.431673 0.500000 0.632681 -0.007364
C22   C     C_R   0.114780 0.815611 0.999008 -0.007178
C23   C     C_R   0.114780 0.184388 0.999008 -0.007178
C24   C     C_R   0.620408 0.317097 0.999029 -0.008487
C25   C     C_R   0.901729 0.123635 0.091743 -0.138338
C26   C     C_R   0.620407 0.682903 0.999029 -0.008488
C27   C     C_3   0.118591 0.051648 0.539065 -0.407203
C28   C     C_3   0.963878 0.999999 0.427552 -0.397087
C29   C     C_3   0.405533 0.551629 0.376808 -0.401283
C30   C     C_3   0.405533 0.448371 0.376808 -0.401283
C31   C     C_3   0.114652 0.051546 0.638654 -0.403572
C32   C     C_3   0.959525 1.000000 0.525671 -0.395794
C33   C     C_3   0.390150 0.551613 0.467040 -0.417628
C34   C     C_3   0.390150 0.448387 0.467039 -0.417627
C35   C     C_3   0.118593 0.948353 0.539067 -0.407201
C36   C     C_R   0.405183 0.370290 0.090609 -0.131708
C37   C     C_3   0.559735 0.500000 0.502357 -0.421513
C38   C     C_3   0.067603 0.000000 0.466879 0.408920
C39   C     C_3   0.463469 0.500000 0.388977 0.414074
C40   C     C_3   0.060314 1.000000 0.634707 0.405495
C41   C     C_3   0.437558 0.500000 0.540532 0.415366
C42   C     C_R   0.809473 0.123663 0.907411 -0.139165
C43   C     C_R   0.809473 0.876337 0.907411 -0.139165
C44   C     C_R   0.311181 0.626435 0.906454 -0.143942
C45   C     C_R   0.311181 0.373565 0.906454 -0.143942
C46   C     C_3   0.114653 0.948454 0.638655 -0.403573
C47   C     C_R   0.405183 0.629710 0.090609 -0.131708
C48   C     C_3   0.544606 0.500000 0.591835 -0.386244
C49   C     C_3   0.651913 0.180503 0.895402 -0.405281
C50   C     C_3   0.651913 0.819497 0.895402 -0.405282
C51   C     C_3   0.154486 0.683910 0.890906 -0.407031
C52   C     C_3   0.154485 0.316090 0.890906 -0.407032
C53   C     C_3   0.098040 0.731816 0.892129 -0.410246
C54   C     C_3   0.098040 0.268184 0.892129 -0.410247
C55   C     C_3   0.598613 0.230704 0.895600 -0.406915
C56   C     C_3   0.598613 0.769296 0.895600 -0.406913
C57   C     C_3   0.304195 0.740357 0.003702 -0.405168
C58   C     C_R   0.055139 0.847564 0.908063 -0.151608
C59   C     C_3   0.304195 0.259643 0.003702 -0.405168
C60   C     C_3   0.803561 0.235717 0.000348 -0.394444
C61   C     C_3   0.803561 0.764283 0.000348 -0.394444
C62   C     C_3   0.754447 0.179842 0.101415 -0.404560
C63   C     C_3   0.754447 0.820158 0.101415 -0.404560
C64   C     C_3   0.252022 0.679863 0.096717 -0.400200
C65   C     C_3   0.252022 0.320137 0.096717 -0.400200
C66   C     C_3   0.755912 0.181639 0.999095 0.406578
C67   C     C_3   0.755912 0.818361 0.999095 0.406577
C68   C     C_3   0.257122 0.685154 0.997174 0.408965
C69   C     C_R   0.055139 0.152436 0.908063 -0.151608
C70   C     C_3   0.257122 0.314846 0.997174 0.408965
C71   C     C_3   0.162594 0.766646 0.998096 0.412575
C72   C     C_3   0.162594 0.233354 0.998096 0.412575
C73   C     C_3   0.666039 0.266551 0.999035 0.410140
C74   C     C_3   0.666039 0.733449 0.999035 0.410139
C75   C     C_3   0.248057 0.788145 0.002774 -0.393378
C76   C     C_3   0.248057 0.211855 0.002774 -0.393378
C77   C     C_3   0.750475 0.285356 0.999474 -0.400183
C78   C     C_3   0.750475 0.714644 0.999475 -0.400183
C79   C     C_3   0.197624 0.728900 0.098481 -0.412234
C80   C     C_R   0.559376 0.348780 0.907639 -0.146294
C81   C     C_3   0.197624 0.271100 0.098481 -0.412235
C82   C     C_3   0.702326 0.230528 0.102101 -0.407670
C83   C     C_3   0.702326 0.769472 0.102101 -0.407668
C84   C     C_3   0.476606 0.948457 0.358472 -0.404540
C85   C     C_3   0.476606 0.051543 0.358472 -0.404541
C86   C     C_3   0.976798 0.448458 0.358332 -0.403720
C87   C     C_3   0.976798 0.551543 0.358333 -0.403721
C88   C     C_R   0.744763 0.954263 0.695167 -0.150770
C89   C     C_R   0.744763 0.045737 0.695167 -0.150770
C90   C     C_R   0.244955 0.454269 0.695029 -0.143279
C91   C     C_R   0.559376 0.651220 0.907639 -0.146294
C92   C     C_R   0.244955 0.545731 0.695029 -0.143279
C93   C     C_3   0.580555 0.948348 0.458953 -0.407580
C94   C     C_3   0.580555 0.051652 0.458953 -0.407580
C95   C     C_3   0.080879 0.448364 0.458594 -0.406517
C96   C     C_3   0.080879 0.551636 0.458594 -0.406517
C97   C     C_3   0.433795 0.000000 0.470076 -0.395203
C98   C     C_3   0.934353 0.500000 0.470274 -0.394330
C99   C     C_3   0.425849 0.000000 0.361702 0.406504
C100  C     C_3   0.926110 0.500000 0.361749 0.405181
C101  C     C_3   0.601547 0.000000 0.530872 0.410056
C102  C     C_R   0.146914 0.152817 0.090865 -0.152828
C103  C     C_3   0.101978 0.500000 0.530582 0.407700
C104  C     C_3   0.536556 0.000000 0.568914 -0.398481
C105  C     C_3   0.037163 0.500000 0.568877 -0.399119
C106  C     C_R   0.048433 0.045764 0.304053 -0.150748
C107  C     C_R   0.048433 0.954236 0.304053 -0.150749
C108  C     C_R   0.505251 0.546031 0.274263 -0.144501
C109  C     C_R   0.505251 0.453969 0.274263 -0.144501
C110  C     C_R   0.812343 0.863185 0.999301 -0.011505
C111  C     C_R   0.812343 0.136815 0.999301 -0.011505
C112  C     C_R   0.315874 0.357847 0.998083 -0.009455
H1    H     H_    0.931107 0.868460 0.176660 0.087422
H2    H     H_    0.919621 0.036862 0.521059 0.152154
H3    H     H_    0.898910 0.536864 0.474555 0.152743
H4    H     H_    0.550427 0.963109 0.620319 0.153104
H5    H     H_    0.550427 0.036890 0.620319 0.153104
H6    H     H_    0.051122 0.463110 0.620320 0.153184
H7    H     H_    0.051122 0.536890 0.620320 0.153183
H8    H     H_    0.061476 0.088193 0.329982 0.082149
H9    H     H_    0.061475 0.911807 0.329982 0.082149
H10   H     H_    0.514404 0.587463 0.303969 0.080139
H11   H     H_    0.514404 0.412536 0.303969 0.080139
H12   H     H_    0.288858 0.911334 0.261733 0.087867
H13   H     H_    0.313351 0.551933 0.429884 0.150479
H14   H     H_    0.288858 0.088666 0.261733 0.087867
H15   H     H_    0.789130 0.411389 0.262489 0.088625
H16   H     H_    0.789130 0.588611 0.262489 0.088625
H17   H     H_    0.023898 0.088713 0.734938 0.087358
H18   H     H_    0.023899 0.911286 0.734938 0.087358
H19   H     H_    0.438875 0.588582 0.671884 0.082876
H20   H     H_    0.438875 0.411418 0.671884 0.082876
H21   H     H_    0.011763 0.835095 0.822975 0.082498
H22   H     H_    0.011763 0.164905 0.822975 0.082498
H23   H     H_    0.518691 0.336919 0.822227 0.083763
H24   H     H_    0.313351 0.448067 0.429884 0.150479
H25   H     H_    0.518692 0.663081 0.822227 0.083763
H26   H     H_    0.189711 0.165889 0.175638 0.082603
H27   H     H_    0.189711 0.834111 0.175638 0.082603
H28   H     H_    0.691608 0.665462 0.175566 0.082856
H29   H     H_    0.691608 0.334538 0.175566 0.082856
H30   H     H_    0.193259 0.052370 0.567358 0.150738
H31   H     H_    0.926272 0.963111 0.375951 0.152770
H32   H     H_    0.442875 0.590222 0.384614 0.142670
H33   H     H_    0.442875 0.409778 0.384614 0.142669
H34   H     H_    0.187371 0.051849 0.716192 0.152041
H35   H     H_    0.919621 0.963137 0.521060 0.152154
H36   H     H_    0.421082 0.590113 0.515009 0.145691
H37   H     H_    0.421081 0.409886 0.515009 0.145691
H38   H     H_    0.193261 0.947632 0.567360 0.150738
H39   H     H_    0.084245 0.910045 0.491782 0.143595
H40   H     H_    0.601455 0.536938 0.511643 0.153666
H41   H     H_    0.931107 0.131540 0.176660 0.087422
H42   H     H_    0.601455 0.463062 0.511643 0.153666
H43   H     H_    0.187372 0.948152 0.716193 0.152041
H44   H     H_    0.079437 0.909950 0.636128 0.142867
H45   H     H_    0.579504 0.536889 0.644755 0.154807
H46   H     H_    0.579504 0.463110 0.644755 0.154807
H47   H     H_    0.647763 0.181943 0.818885 0.143342
H48   H     H_    0.647763 0.818057 0.818885 0.143343
H49   H     H_    0.153206 0.688344 0.816528 0.144125
H50   H     H_    0.153205 0.311655 0.816528 0.144125
H51   H     H_    0.616838 0.141957 0.893590 0.152011
H52   H     H_    0.437302 0.355765 0.172854 0.079337
H53   H     H_    0.616838 0.858043 0.893590 0.152011
H54   H     H_    0.120147 0.644140 0.884364 0.152522
H55   H     H_    0.120147 0.355860 0.884364 0.152523
H56   H     H_    0.537362 0.216993 0.894330 0.151027
H57   H     H_    0.537362 0.783007 0.894330 0.151026
H58   H     H_    0.036533 0.715830 0.888078 0.151700
H59   H     H_    0.036533 0.284170 0.888078 0.151700
H60   H     H_    0.070494 0.756737 0.817149 0.143924
H61   H     H_    0.070494 0.243263 0.817149 0.143924
H62   H     H_    0.570725 0.254323 0.819052 0.143475
H63   H     H_    0.437302 0.644235 0.172854 0.079337
H64   H     H_    0.570725 0.745677 0.819052 0.143475
H65   H     H_    0.308537 0.744450 0.932980 0.153248
H66   H     H_    0.308537 0.255550 0.932980 0.153248
H67   H     H_    0.805258 0.237758 0.927513 0.152403
H68   H     H_    0.805258 0.762242 0.927514 0.152403
H69   H     H_    0.753597 0.131462 0.822290 0.087767
H70   H     H_    0.753597 0.868538 0.822290 0.087767
H71   H     H_    0.255470 0.633673 0.821033 0.088524
H72   H     H_    0.255470 0.366327 0.821033 0.088524
H73   H     H_    0.223828 0.814808 0.930452 0.154174
H74   H     H_    0.084242 0.089955 0.491780 0.143596
H75   H     H_    0.223828 0.185192 0.930452 0.154174
H76   H     H_    0.725608 0.310839 0.925546 0.153912
H77   H     H_    0.725608 0.689161 0.925546 0.153912
H78   H     H_    0.826832 0.180057 0.178964 0.142714
H79   H     H_    0.826832 0.819943 0.178964 0.142714
H80   H     H_    0.323232 0.679276 0.176022 0.142553
H81   H     H_    0.323232 0.320724 0.176022 0.142553
H82   H     H_    0.719122 0.141619 0.100520 0.152569
H83   H     H_    0.719122 0.858381 0.100520 0.152569
H84   H     H_    0.216474 0.640744 0.091046 0.152320
H85   H     H_    0.926270 0.036887 0.375949 0.152770
H86   H     H_    0.216475 0.359256 0.091046 0.152320
H87   H     H_    0.642284 0.217389 0.103708 0.150727
H88   H     H_    0.642284 0.782610 0.103708 0.150726
H89   H     H_    0.136790 0.713992 0.096946 0.151113
H90   H     H_    0.136790 0.286008 0.096946 0.151113
H91   H     H_    0.245766 0.751490 0.176806 0.145033
H92   H     H_    0.245766 0.248510 0.176806 0.145033
H93   H     H_    0.752442 0.253894 0.178753 0.144079
H94   H     H_    0.752442 0.746106 0.178753 0.144079
H95   H     H_    0.377552 0.742347 0.080172 0.151777
H96   H     H_    0.336287 0.551963 0.294571 0.153556
H97   H     H_    0.377552 0.257653 0.080172 0.151777
H98   H     H_    0.877951 0.237554 0.074850 0.152599
H99   H     H_    0.877951 0.762446 0.074850 0.152598
H100  H     H_    0.294942 0.813538 0.077834 0.152565
H101  H     H_    0.294942 0.186462 0.077834 0.152565
H102  H     H_    0.799455 0.311230 0.073038 0.152857
H103  H     H_    0.799455 0.688770 0.073038 0.152857
H104  H     H_    0.443684 0.909924 0.360386 0.142923
H105  H     H_    0.443684 0.090076 0.360386 0.142923
H106  H     H_    0.943962 0.409923 0.360399 0.142832
H107  H     H_    0.336287 0.448037 0.294571 0.153556
H108  H     H_    0.943962 0.590077 0.360399 0.142832
H109  H     H_    0.472065 0.948206 0.281492 0.152168
H110  H     H_    0.472065 0.051794 0.281492 0.152168
H111  H     H_    0.972023 0.448204 0.281207 0.151912
H112  H     H_    0.972023 0.551797 0.281207 0.151912
H113  H     H_    0.627455 0.947651 0.431691 0.150773
H114  H     H_    0.627455 0.052348 0.431691 0.150773
H115  H     H_    0.127620 0.447719 0.431095 0.148796
H116  H     H_    0.127620 0.552281 0.431096 0.148796
H117  H     H_    0.732064 0.911817 0.669337 0.082109
H118  H     H_    0.079436 0.090051 0.636127 0.142867
H119  H     H_    0.732064 0.088183 0.669337 0.082109
H120  H     H_    0.232384 0.411835 0.669157 0.080352
H121  H     H_    0.232384 0.588165 0.669157 0.080352
H122  H     H_    0.593382 0.910024 0.506004 0.143677
H123  H     H_    0.593382 0.089976 0.506004 0.143677
H124  H     H_    0.093877 0.410025 0.505664 0.143491
H125  H     H_    0.093877 0.589975 0.505664 0.143491
H126  H     H_    0.398261 0.963140 0.474209 0.152548
H127  H     H_    0.398261 0.036860 0.474209 0.152548
H128  H     H_    0.898910 0.463136 0.474555 0.152743
N1    N     N_R   0.950530 0.896220 0.057200 -0.035398
N2    N     N_R   0.818150 0.028600 0.792440 -0.031384
N3    N     N_R   0.318150 0.471400 0.792440 -0.030436
N4    N     N_R   0.318150 0.528600 0.792440 -0.030436
N5    N     N_R   0.025710 0.028600 0.207560 -0.031275
N6    N     N_R   0.025710 0.971400 0.207560 -0.031274
N7    N     N_R   0.525710 0.528600 0.207560 -0.033313
N8    N     N_R   0.525710 0.471400 0.207560 -0.033312
N9    N     N_R   0.181850 0.971400 0.207560 -0.035772
N10   N     N_R   0.181850 0.028600 0.207560 -0.035772
N11   N     N_R   0.681850 0.471400 0.207560 -0.038703
N12   N     N_R   0.950530 0.103780 0.057200 -0.035398
N13   N     N_R   0.681850 0.528600 0.207560 -0.038703
N14   N     N_R   0.974290 0.028600 0.792440 -0.035160
N15   N     N_R   0.974290 0.971400 0.792440 -0.035160
N16   N     N_R   0.474290 0.528600 0.792440 -0.033644
N17   N     N_R   0.474290 0.471400 0.792440 -0.033644
N18   N     N_R   0.049470 0.896220 0.942800 -0.031466
N19   N     N_R   0.049470 0.103780 0.942800 -0.031466
N20   N     N_R   0.549470 0.396220 0.942800 -0.033983
N21   N     N_R   0.549470 0.603780 0.942800 -0.033983
N22   N     N_R   0.106670 0.103780 0.057200 -0.031489
N23   N     N_R   0.450530 0.396220 0.057200 -0.033670
N24   N     N_R   0.106670 0.896220 0.057200 -0.031489
N25   N     N_R   0.606670 0.603780 0.057200 -0.032506
N26   N     N_R   0.606670 0.396220 0.057200 -0.032506
N27   N     N_R   0.450530 0.603780 0.057200 -0.033670
N28   N     N_R   0.893330 0.103780 0.942800 -0.035368
N29   N     N_R   0.893330 0.896220 0.942800 -0.035369
N30   N     N_R   0.393330 0.603780 0.942800 -0.034855
N31   N     N_R   0.393330 0.396220 0.942800 -0.034855
N32   N     N_R   0.818150 0.971400 0.792440 -0.031384
Ni1   Ni    Ni4+2 0.065600 0.934400 0.131190 0.204753
Ni2   Ni    Ni4+2 0.065600 0.065600 0.131190 0.204753
Ni3   Ni    Ni4+2 0.565600 0.434400 0.131190 0.203285
Ni4   Ni    Ni4+2 0.565600 0.565600 0.131190 0.203285
Ni5   Ni    Ni4+2 0.934400 0.065600 0.868810 0.204740
Ni6   Ni    Ni4+2 0.934400 0.934400 0.868810 0.204740
Ni7   Ni    Ni4+2 0.434400 0.565600 0.868810 0.204663
Ni8   Ni    Ni4+2 0.434400 0.434400 0.868810 0.204663

loop_
_geom_bond_atom_site_label_1
_geom_bond_atom_site_label_2
_ccdc_geom_bond_type
N27   Ni4   S    
C57   H65   S    
N29   Ni6   S    
C5    C103  S    
C16   C21   A    
C56   H57   S    
C96   H125  S    
C23   C69   A    
N16   Ni7   S    
C3    C68   S    
C74   C83   S    
C72   C76   S    
N19   N22   A    
C71   C79   S    
C45   C112  A    
C62   H78   S    
C32   H35   S    
C60   H67   S    
C40   C46   S    
C46   H43   S    
C34   C41   S    
C108  N7    A    
C11   C19   A    
N9    N10   A    
C69   H22   S    
C29   H96   S    
C1    H1    S    
C12   C20   A    
C58   N18   A    
C2    H27   S    
C64   C68   S    
C54   H61   S    
C51   C68   S    
C10   C19   A    
N11   Ni3   S    
C104  H5    S    
C83   H94   S    
C84   H109  S    
C52   H55   S    
C61   H99   S    
C20   C40   S    
N27   N30   A    
C94   H123  S    
N11   N13   A    
C23   C102  A    
C98   H128  S    
C13   C26   A    
C27   C38   S    
N3    N4    A    
C31   H118  S    
C29   C33   S    
C92   H121  S    
C27   H30   S    
C31   C40   S    
C17   H29   S    
C10   N11   A    
C86   H106  S    
N1    Ni1   S    
C49   H47   S    
C85   H105  S    
C23   C72   S    
C107  N6    A    
C53   H60   S    
C97   C99   S    
C104  H4    S    
C31   H34   S    
C43   N29   A    
C76   H101  S    
C88   N32   A    
C2    N24   A    
C14   N15   A    
C109  N8    A    
C95   C103  S    
C79   H89   S    
C2    C22   A    
C6    C107  A    
C6    C38   S    
C51   H49   S    
C80   N20   A    
C43   C110  A    
C34   H24   S    
C66   C111  S    
C86   C100  S    
C50   C67   S    
N26   Ni3   S    
C74   C78   S    
C72   C81   S    
C91   N21   A    
C69   N19   A    
N22   Ni2   S    
C52   C54   S    
N23   N31   A    
C88   H117  S    
C62   C82   S    
C60   C66   S    
C25   N12   A    
C58   H21   S    
C59   C76   S    
C91   H25   S    
N5    N6    A    
C87   C96   S    
C102  H26   S    
C9    H14   S    
C90   H120  S    
C75   H73   S    
C78   H77   S    
C35   H39   S    
C55   H56   S    
C97   H127  S    
C54   H59   S    
C59   H97   S    
C64   H80   S    
C34   H37   S    
C24   C80   A    
C77   H102  S    
C81   H92   S    
C65   H81   S    
N14   Ni5   S    
C59   H66   S    
C42   H69   S    
C75   H100  S    
C63   C67   S    
C8    N9    A    
C17   C24   A    
C12   N14   A    
C49   C66   S    
C30   C34   S    
C27   C31   S    
C5    C92   A    
C36   N23   A    
C14   C20   A    
C28   C32   S    
C35   C38   S    
C56   C74   S    
C94   C101  S    
N8    Ni3   S    
C67   C110  S    
C93   C101  S    
C60   C77   S    
C62   C66   S    
C8    H12   S    
C107  H9    S    
C50   H48   S    
C26   C91   A    
C49   C55   S    
C29   H32   S    
C48   H46   S    
N28   Ni5   S    
N4    Ni7   S    
C50   C56   S    
C7    C109  A    
C24   C73   S    
C63   C83   S    
N5    Ni2   S    
C51   C53   S    
C27   H74   S    
N2    N32   A    
N30   Ni7   S    
N3    Ni8   S    
C42   C111  A    
C13   H28   S    
C55   H62   S    
N21   N25   A    
C17   N26   A    
C85   C99   S    
C33   H36   S    
C1    C110  A    
C85   C94   S    
C61   C67   S    
N25   Ni4   S    
C65   C81   S    
N21   Ni7   S    
C28   C38   S    
C61   C78   S    
N7    N8    A    
C4    C101  S    
C29   C39   S    
C50   H53   S    
C33   H13   S    
C6    C106  A    
C54   C72   S    
C103  C105  S    
C28   H31   S    
C87   H108  S    
C89   H119  S    
C37   C48   S    
C80   H23   S    
C44   H71   S    
N12   N28   A    
C76   H75   S    
C70   C112  S    
C53   H58   S    
C61   H68   S    
C21   C41   S    
C98   C105  S    
N16   N17   A    
N31   Ni8   S    
C35   H38   S    
C56   H64   S    
C101  C104  S    
C79   H91   S    
C3    C44   A    
C83   H88   S    
N15   Ni6   S    
C102  N22   A    
N18   Ni6   S    
C93   H122  S    
C64   C79   S    
C63   H83   S    
C105  H6    S    
N19   Ni5   S    
C86   H111  S    
C62   H82   S    
C37   H40   S    
C42   N28   A    
C10   H15   S    
C53   C71   S    
C96   H116  S    
C22   C71   S    
C32   C40   S    
C30   H33   S    
C44   N30   A    
C87   C100  S    
C85   H110  S    
C47   N27   A    
C30   C39   S    
C45   N31   A    
C14   H18   S    
N32   Ni6   S    
C106  H8    S    
C78   H103  S    
C84   C99   S    
C37   H42   S    
N6    Ni1   S    
N18   N24   A    
C11   N13   A    
C5    C90   A    
C108  H10   S    
N13   Ni4   S    
C13   N25   A    
C18   C99   S    
C22   C58   A    
C19   C100  S    
N20   Ni8   S    
C81   H90   S    
C4    C88   A    
C32   H2    S    
C4    C89   A    
C8    C18   A    
C46   H44   S    
C48   H45   S    
C57   H95   S    
C43   H70   S    
N23   Ni3   S    
N24   Ni1   S    
C7    C39   S    
C33   C41   S    
C87   H112  S    
C57   C75   S    
N14   N15   A    
C97   H126  S    
C9    N10   A    
N7    Ni4   S    
C82   H87   S    
C37   C39   S    
C25   H41   S    
C1    N1    A    
C28   H85   S    
C71   C75   S    
C16   N17   A    
C92   N4    A    
C98   H3    S    
N12   Ni2   S    
C63   H79   S    
C64   H84   S    
C3    C47   A    
C26   C74   S    
C41   C48   S    
N1    N29   A    
C73   C82   S    
C11   H16   S    
N9    Ni1   S    
C84   C93   S    
N10   Ni2   S    
C106  N5    A    
C16   H20   S    
C98   C100  S    
C95   H115  S    
C12   H17   S    
C49   H51   S    
C97   C104  S    
C52   C70   S    
C86   C95   S    
C25   C111  A    
C59   C70   S    
C65   H86   S    
C55   C73   S    
C36   C112  A    
C93   H113  S    
C9    C18   A    
C15   C21   A    
C15   H19   S    
N17   Ni8   S    
C95   H124  S    
C96   C103  S    
C36   H52   S    
C77   H76   S    
C73   C77   S    
C89   N2    A    
C105  H7    S    
C51   H54   S    
C109  H11   S    
C94   H114  S    
C57   C68   S    
N2    Ni5   S    
N20   N26   A    
C65   C70   S    
C90   N3    A    
C35   C46   S    
C60   H98   S    
C15   N16   A    
C7    C108  A    
C82   H93   S    
C47   H63   S    
C84   H104  S    
C45   H72   S    
C52   H50   S    
C30   H107  S    
