data_mof_unit_48643.cif
_audit_creation_date              2012-12-10T20:15:57-0500
_audit_creation_method            fapswitch 2.2
_symmetry_space_group_name_H-M    P1
_symmetry_Int_Tables_number       1
_space_group_crystal_system       triclinic
_cell_length_a                    16.766514
_cell_length_b                    18.406405
_cell_length_c                    18.81918
_cell_angle_alpha                 90.09135
_cell_angle_beta                  89.757014
_cell_angle_gamma                 83.194851
_cell_volume                      5766.82907265

loop_
_atom_site_label
_atom_site_type_symbol
_atom_type_description
_atom_site_fract_x
_atom_site_fract_y
_atom_site_fract_z
_atom_type_partial_charge
C1    C     C_R   0.501943 0.499763 0.635118 0.951910
C2    C     C_R   0.508909 0.539335 0.830233 -0.186302
C3    C     C_R   0.464594 0.477451 0.239668 0.357101
C4    C     C_R   0.483932 0.543861 0.759888 0.362185
C5    C     C_R   0.519074 0.497232 0.290242 -0.175412
C6    C     C_R   0.524465 0.496991 0.709393 -0.163899
C7    C     C_R   0.584063 0.415452 0.035223 0.346815
C8    C     C_R   0.611784 0.544400 0.964196 0.338260
C9    C     C_R   0.582583 0.417496 0.961117 0.333615
C10   C     C_R   0.602561 0.545158 0.037881 0.331674
C11   C     C_R   0.594824 0.482523 0.925524 -0.212791
C12   C     C_R   0.499797 0.499951 0.364968 0.972906
C13   C     C_R   0.587683 0.480933 0.073355 -0.221117
C14   C     C_R   0.506358 0.272143 0.438041 -0.076018
C15   C     C_R   0.549498 0.721175 0.455287 -0.060369
C16   C     C_R   0.653321 0.488525 0.499984 0.904145
C17   C     C_R   0.347048 0.511427 0.500541 0.960191
C18   C     C_R   0.505836 0.196053 0.437719 0.299170
C19   C     C_R   0.549823 0.797286 0.454701 0.274890
C20   C     C_R   0.499947 0.158394 0.502357 -0.044845
C21   C     C_R   0.497975 0.841603 0.500576 -0.004129
C22   C     C_R   0.496154 0.198273 0.566659 0.349160
C23   C     C_R   0.597052 0.508866 0.270575 -0.355278
C24   C     C_R   0.444274 0.808189 0.544418 0.389901
C25   C     C_R   0.493805 0.275639 0.563227 -0.168948
C26   C     C_R   0.448826 0.730641 0.544459 -0.127170
C27   C     C_R   0.562658 0.031352 0.532225 -0.316214
C28   C     C_R   0.433553 0.968852 0.474285 -0.286756
C29   C     C_R   0.564345 0.954251 0.530764 0.529637
C30   C     C_R   0.431759 0.045399 0.476137 0.543079
C31   C     C_R   0.498695 0.922852 0.502109 0.072552
C32   C     C_R   0.498045 0.077248 0.503271 0.052643
C33   C     C_R   0.739631 0.477824 0.505522 -0.134784
C34   C     C_R   0.592371 0.449211 0.728667 -0.402228
C35   C     C_R   0.262782 0.521896 0.515175 -0.153629
C36   C     C_R   0.784993 0.527332 0.473780 -0.346671
C37   C     C_R   0.208524 0.514919 0.461006 -0.355056
C38   C     C_R   0.867657 0.521895 0.485448 0.477446
C39   C     C_R   0.126675 0.518766 0.476856 0.496734
C40   C     C_R   0.904115 0.463976 0.528320 -0.063928
C41   C     C_R   0.100854 0.533024 0.547899 -0.073083
C42   C     C_R   0.859265 0.409863 0.554343 0.424188
C43   C     C_R   0.155717 0.548411 0.600531 0.415903
C44   C     C_R   0.776307 0.418707 0.544521 -0.334887
C45   C     C_R   0.622386 0.499470 0.199982 0.560907
C46   C     C_R   0.237137 0.539864 0.584215 -0.284820
C47   C     C_2   0.988864 0.461128 0.548672 0.396534
C48   C     C_2   0.018259 0.523950 0.568466 0.400722
C49   C     C_3   0.641595 0.319568 0.102396 0.112782
C50   C     C_3   0.693728 0.271082 0.049666 -0.315628
C51   C     C_3   0.768247 0.232354 0.085733 -0.954425
C52   C     C_3   0.707952 0.600813 0.906814 0.091514
C53   C     C_3   0.764404 0.615011 0.968082 -0.305882
C54   C     C_3   0.850615 0.615732 0.942283 -0.972419
C55   C     C_3   0.521443 0.190363 0.690469 0.134004
C56   C     C_R   0.620412 0.447635 0.798606 0.540234
C57   C     C_3   0.612994 0.190907 0.685150 -0.457883
C58   C     C_3   0.646009 0.221878 0.752787 -0.824319
C59   C     C_3   0.314869 0.830970 0.594799 0.089501
C60   C     C_3   0.270259 0.833835 0.523320 -0.402680
C61   C     C_3   0.184802 0.814537 0.532452 -0.928316
C62   C     C_3   0.702330 0.920539 0.536409 0.145407
C63   C     C_3   0.754810 0.944187 0.596597 -0.405785
C64   C     C_3   0.771948 0.884259 0.652431 -0.761255
C65   C     C_3   0.314001 0.117045 0.502458 0.078903
C66   C     C_3   0.254327 0.063232 0.522049 -0.376090
C67   C     C_R   0.566218 0.483949 0.148733 0.055013
C68   C     C_3   0.190572 0.097504 0.574052 -0.936626
C69   C     C_3   0.929243 0.573273 0.654516 0.016152
C70   C     C_3   0.881082 0.644868 0.678379 -0.304803
C71   C     C_3   0.830690 0.633732 0.744130 -0.993063
C72   C     C_3   0.084341 0.368582 0.588057 0.063364
C73   C     C_3   0.164298 0.329616 0.560852 -0.356362
C74   C     C_3   0.216370 0.296209 0.621525 -0.925121
C75   C     C_3   0.881684 0.284483 0.572689 0.106464
C76   C     C_3   0.838516 0.245444 0.630466 -0.360888
C77   C     C_3   0.824552 0.168511 0.607123 -0.978216
C78   C     C_R   0.575758 0.490461 0.849931 0.077053
C79   C     C_3   0.114313 0.638698 0.680719 0.084306
C80   C     C_3   0.189113 0.671704 0.705807 -0.322839
C81   C     C_3   0.168219 0.750804 0.730160 -0.947839
C82   C     C_3   0.088681 0.450565 0.380673 0.135366
C83   C     C_3   0.103997 0.473522 0.304161 -0.377606
C84   C     C_3   0.121953 0.407079 0.255635 -0.866322
C85   C     C_3   0.885922 0.642727 0.457662 0.165447
C86   C     C_3   0.861955 0.675043 0.384923 -0.401435
C87   C     C_3   0.833157 0.756629 0.390604 -0.877720
C88   C     C_3   0.758152 0.462295 0.215292 0.041059
C89   C     C_R   0.488063 0.472123 0.168712 -0.177336
C90   C     C_3   0.811337 0.506872 0.259496 -0.299374
C91   C     C_3   0.875095 0.457406 0.299744 -0.964070
C92   C     C_3   0.755773 0.415996 0.779973 0.048525
C93   C     C_3   0.830897 0.388658 0.822292 -0.304955
C94   C     C_3   0.906998 0.407784 0.785631 -0.974294
Cl1   Cl    Cl    0.556995 0.340004 0.914694 -0.567593
Cl2   Cl    Cl    0.601962 0.629227 0.083607 -0.508516
Cl3   Cl    Cl    0.515208 0.149528 0.355748 -0.544212
Cl4   Cl    Cl    0.612784 0.835447 0.393605 -0.628640
Cl5   Cl    Cl    0.366597 0.461037 0.263454 -0.634496
Cl6   Cl    Cl    0.399807 0.606015 0.737528 -0.678397
H1    H     H_    0.755673 0.570132 0.440357 0.159495
H2    H     H_    0.740102 0.380933 0.569550 0.165700
H3    H     H_    0.733140 0.420837 0.249564 0.116608
H4    H     H_    0.841318 0.543574 0.223945 0.236752
H5    H     H_    0.773873 0.541326 0.298310 0.212490
H6    H     H_    0.846434 0.422319 0.337847 0.268278
H7    H     H_    0.913237 0.491725 0.329898 0.302880
H8    H     H_    0.913780 0.422343 0.262143 0.260447
H9    H     H_    0.755958 0.475768 0.770230 0.122589
H10   H     H_    0.757916 0.386756 0.728119 0.155092
H11   H     H_    0.826735 0.414064 0.876040 0.221950
H12   H     H_    0.834588 0.328298 0.828518 0.228731
H13   H     H_    0.638591 0.523423 0.310617 0.154252
H14   H     H_    0.913030 0.382576 0.732027 0.299020
H15   H     H_    0.960276 0.386678 0.817531 0.271761
H16   H     H_    0.905406 0.468035 0.780788 0.258387
H17   H     H_    0.624101 0.413905 0.689036 0.161078
H18   H     H_    0.445359 0.459220 0.128905 0.209590
H19   H     H_    0.475247 0.572933 0.870054 0.209550
H20   H     H_    0.624128 0.284847 0.146723 0.184940
H21   H     H_    0.677315 0.360454 0.126611 0.103637
H22   H     H_    0.658094 0.229496 0.026937 0.268978
H23   H     H_    0.713162 0.305110 0.005569 0.230550
H24   H     H_    0.805317 0.273090 0.107923 0.257079
H25   H     H_    0.230291 0.504987 0.407234 0.184300
H26   H     H_    0.804888 0.197951 0.046252 0.277265
H27   H     H_    0.750701 0.196622 0.129206 0.279371
H28   H     H_    0.712835 0.642603 0.865056 0.181454
H29   H     H_    0.727443 0.546701 0.881735 0.122916
H30   H     H_    0.743509 0.668592 0.993252 0.275263
H31   H     H_    0.763693 0.571456 0.008806 0.231036
H32   H     H_    0.872261 0.563356 0.915205 0.264721
H33   H     H_    0.890130 0.622681 0.988391 0.281844
H34   H     H_    0.854359 0.662096 0.905233 0.272666
H35   H     H_    0.509621 0.155042 0.736219 0.188202
H36   H     H_    0.511670 0.300606 0.388374 0.190144
H37   H     H_    0.489423 0.244826 0.704171 0.138015
H38   H     H_    0.642139 0.134101 0.676659 0.232062
H39   H     H_    0.628737 0.224786 0.639589 0.220573
H40   H     H_    0.618791 0.279260 0.761088 0.303964
H41   H     H_    0.712105 0.221175 0.748171 0.254417
H42   H     H_    0.632674 0.188521 0.799538 0.279981
H43   H     H_    0.280073 0.870328 0.631394 0.181328
H44   H     H_    0.315402 0.776961 0.620923 0.152897
H45   H     H_    0.267805 0.889707 0.500684 0.222696
H46   H     H_    0.302211 0.794631 0.484930 0.225329
H47   H     H_    0.588854 0.687066 0.419843 0.174629
H48   H     H_    0.185766 0.758173 0.553725 0.264983
H49   H     H_    0.154201 0.817186 0.480154 0.273499
H50   H     H_    0.150227 0.853889 0.569168 0.257533
H51   H     H_    0.701164 0.961067 0.492254 0.113883
H52   H     H_    0.731302 0.868101 0.513853 0.176967
H53   H     H_    0.812804 0.957107 0.573940 0.182077
H54   H     H_    0.724697 0.994526 0.622376 0.218605
H55   H     H_    0.715163 0.871665 0.677608 0.294081
H56   H     H_    0.811186 0.903081 0.694354 0.232453
H57   H     H_    0.803123 0.833712 0.627816 0.231827
H58   H     H_    0.486576 0.308674 0.610442 0.166783
H59   H     H_    0.279875 0.168217 0.482237 0.179847
H60   H     H_    0.346055 0.132698 0.550918 0.148698
H61   H     H_    0.224453 0.046154 0.473192 0.240470
H62   H     H_    0.286953 0.013887 0.547159 0.227265
H63   H     H_    0.219225 0.114291 0.623603 0.274241
H64   H     H_    0.148977 0.056935 0.587756 0.265370
H65   H     H_    0.155298 0.146016 0.549815 0.263107
H66   H     H_    0.973156 0.554066 0.696641 0.173211
H67   H     H_    0.886715 0.531985 0.647553 0.144350
H68   H     H_    0.922824 0.685845 0.690308 0.210690
H69   H     H_    0.412401 0.702232 0.579841 0.175458
H70   H     H_    0.840520 0.666667 0.634832 0.223807
H71   H     H_    0.784016 0.597725 0.731439 0.261882
H72   H     H_    0.800551 0.687370 0.762790 0.272818
H73   H     H_    0.869564 0.608540 0.787159 0.266397
H74   H     H_    0.050494 0.327946 0.614758 0.191998
H75   H     H_    0.097025 0.409758 0.628668 0.138591
H76   H     H_    0.152629 0.285666 0.523058 0.221263
H77   H     H_    0.197576 0.369312 0.532055 0.234537
H78   H     H_    0.231286 0.339737 0.658438 0.279936
H79   H     H_    0.273188 0.267427 0.599673 0.263323
H80   H     H_    0.611965 0.055746 0.555771 0.160413
H81   H     H_    0.184471 0.256204 0.651257 0.263337
H82   H     H_    0.941046 0.252555 0.562141 0.163468
H83   H     H_    0.847471 0.284720 0.521858 0.135598
H84   H     H_    0.875201 0.241798 0.679682 0.232203
H85   H     H_    0.779649 0.277320 0.642778 0.213421
H86   H     H_    0.784671 0.171170 0.559975 0.265485
H87   H     H_    0.795433 0.140899 0.650899 0.267879
H88   H     H_    0.882576 0.135571 0.593884 0.267740
H89   H     H_    0.067975 0.647262 0.723210 0.169082
H90   H     H_    0.088188 0.668471 0.632953 0.149579
H91   H     H_    0.383479 0.945175 0.451232 0.171081
H92   H     H_    0.216936 0.638913 0.750728 0.282870
H93   H     H_    0.233450 0.670529 0.661725 0.225074
H94   H     H_    0.139094 0.784568 0.686524 0.254686
H95   H     H_    0.223928 0.773752 0.745817 0.287172
H96   H     H_    0.126968 0.753443 0.776676 0.271497
H97   H     H_    0.035493 0.419879 0.381147 0.186379
H98   H     H_    0.139844 0.411396 0.400104 0.135029
H99   H     H_    0.050260 0.508451 0.284037 0.235195
H100  H     H_    0.155594 0.506122 0.302416 0.252312
H101  H     H_    0.176875 0.372440 0.273696 0.289362
H102  H     H_    0.280595 0.545705 0.625687 0.195599
H103  H     H_    0.132038 0.425534 0.200526 0.280379
H104  H     H_    0.070591 0.374104 0.255587 0.246454
H105  H     H_    0.935816 0.671366 0.478254 0.190960
H106  H     H_    0.835529 0.654310 0.496520 0.115831
H107  H     H_    0.914445 0.666780 0.348285 0.245327
H108  H     H_    0.813115 0.646799 0.362043 0.222527
H109  H     H_    0.780452 0.765789 0.426796 0.280624
H110  H     H_    0.815241 0.778458 0.337311 0.298165
H111  H     H_    0.881904 0.786694 0.411221 0.247969
H112  H     H_    0.796215 0.430924 0.174577 0.157195
N1    N     N_R   0.499990 0.310560 0.500020 -0.127314
N2    N     N_R   0.500010 0.689440 0.499980 -0.133617
O1    O     O_R   0.500000 0.439160 0.601820 -0.637123
O2    O     O_3   0.626813 0.607844 0.929751 -0.580198
O3    O     O_3   0.488911 0.159412 0.629642 -0.647493
O4    O     O_3   0.392973 0.852917 0.589014 -0.630257
O5    O     O_3   0.625637 0.908847 0.563083 -0.613916
O6    O     O_3   0.366472 0.088292 0.447420 -0.604214
O7    O     O_3   0.969172 0.586207 0.590335 -0.674082
O8    O     O_3   0.039413 0.398657 0.529264 -0.665178
O9    O     O_3   0.895679 0.354637 0.597443 -0.673477
O10   O     O_3   0.131372 0.562214 0.670035 -0.646092
O11   O     O_3   0.070224 0.513664 0.423756 -0.597953
O12   O     O_R   0.500000 0.560840 0.398180 -0.608390
O13   O     O_3   0.915275 0.567578 0.450409 -0.599853
O14   O     O_3   0.699600 0.510303 0.179147 -0.617096
O15   O     O_3   0.687414 0.400982 0.819060 -0.626950
O16   O     O_R   0.500030 0.560790 0.601820 -0.578698
O17   O     O_R   0.499970 0.439210 0.398180 -0.608312
O18   O     O_R   0.615780 0.432000 0.500010 -0.622358
O19   O     O_R   0.384220 0.568000 0.499990 -0.611954
O20   O     O_R   0.615820 0.553620 0.500010 -0.620365
O21   O     O_R   0.384180 0.446380 0.499990 -0.594445
O22   O     O_3   0.570045 0.351674 0.069708 -0.576444
Zn1   Zn    Zn3+2 0.499980 0.418790 0.500000 0.954146
Zn2   Zn    Zn3+2 0.500020 0.581210 0.500000 0.973262

loop_
_geom_bond_atom_site_label_1
_geom_bond_atom_site_label_2
_ccdc_geom_bond_type
C84   H101  S    
C40   C47   S    
C66   C68   S    
C75   C76   S    
C34   C56   A    
C93   C94   S    
C23   C45   A    
C27   C29   A    
C41   C43   A    
C73   C74   S    
C14   C18   A    
C56   O15   S    
C50   H22   S    
C67   C89   A    
C65   H59   S    
C75   H83   S    
C69   H67   S    
C94   H14   S    
C85   H105  S    
C79   O10   S    
C55   O3    S    
C74   H81   S    
C53   C54   S    
C15   C19   A    
C80   H93   S    
C21   C31   S    
C64   H55   S    
C66   H62   S    
C62   H52   S    
C25   N1    A    
O12   Zn2   S    
C52   H29   S    
C61   H49   S    
C35   C37   A    
C61   H48   S    
C24   C26   A    
C82   H98   S    
C49   O22   S    
N1    Zn1   S    
C15   N2    A    
C20   C32   S    
C8    C10   A    
C92   H9    S    
C49   H20   S    
C81   H95   S    
C48   O7    S    
C87   H109  S    
C54   H34   S    
C52   O2    S    
C33   C36   A    
C56   C78   A    
C57   H39   S    
O20   Zn2   S    
C72   H75   S    
C69   H66   S    
C81   H94   S    
C1    O16   A    
C59   O4    S    
C74   H79   S    
C47   C48   D    
C26   H69   S    
C63   H54   S    
C79   H90   S    
C5    C23   A    
C64   H57   S    
C45   C67   A    
C70   C71   S    
C85   O13   S    
C18   Cl3   S    
C16   O20   A    
C61   H50   S    
C9    Cl1   S    
C51   H24   S    
C90   C91   S    
C73   H77   S    
C68   H65   S    
C84   H104  S    
C34   H17   S    
C40   C42   A    
C46   H102  S    
C75   O9    S    
C59   C60   S    
C38   C40   A    
C72   O8    S    
C77   H86   S    
O21   Zn1   S    
C91   H6    S    
C42   C44   A    
C65   H60   S    
C43   C46   A    
C19   Cl4   S    
C85   H106  S    
C37   H25   S    
C17   O21   A    
C52   H28   S    
C82   O11   S    
C62   H51   S    
C50   H23   S    
C63   C64   S    
C1    C6    S    
C91   H7    S    
C76   C77   S    
C63   H53   S    
C82   H97   S    
C39   C41   A    
C86   H108  S    
C44   H2    S    
C86   C87   S    
C72   C73   S    
C8    O2    S    
C85   C86   S    
C54   H33   S    
C16   O18   A    
C71   H73   S    
C14   N1    A    
C60   C61   S    
C15   H47   S    
C45   O14   S    
C2    C4    A    
O19   Zn2   S    
C60   H46   S    
C1    O1    A    
C62   C63   S    
C2    C78   A    
C11   C78   S    
C70   H68   S    
C16   C33   S    
C23   H13   S    
C58   H42   S    
C12   O12   A    
C83   C84   S    
C74   H78   S    
C10   Cl2   S    
C2    H19   S    
C49   H21   S    
C50   C51   S    
C27   H80   S    
C9    C11   A    
C90   H4    S    
C93   H11   S    
O1    Zn1   S    
C84   H103  S    
C4    C6    A    
C47   O8    S    
C88   C90   S    
C59   H44   S    
C65   C66   S    
C72   H74   S    
C55   C57   S    
C79   H89   S    
O18   Zn1   S    
C77   H87   S    
C87   H110  S    
C71   H71   S    
O16   Zn2   S    
C6    C34   A    
C60   H45   S    
C83   H99   S    
C42   O9    S    
C28   H91   S    
C3    C5    A    
C88   H3    S    
C52   C53   S    
C12   O17   A    
C30   O6    S    
C13   C67   S    
C68   H63   S    
C58   H40   S    
C22   C25   A    
C7    C9    A    
C7    O22   S    
C94   H16   S    
C19   C21   A    
C27   C32   A    
C33   C44   A    
C87   H111  S    
C91   H8    S    
C22   O3    S    
C28   C31   A    
C53   H31   S    
C90   H5    S    
C20   C22   A    
C80   C81   S    
C51   H26   S    
C10   C13   A    
C86   H107  S    
C65   O6    S    
C94   H15   S    
C17   O19   A    
C54   H32   S    
C64   H56   S    
C55   H37   S    
C26   N2    A    
O17   Zn1   S    
C51   H27   S    
C62   O5    S    
C73   H76   S    
C4    Cl6   S    
C43   O10   S    
C70   H70   S    
C68   H64   S    
C28   C30   A    
C29   C31   A    
C81   H96   S    
C30   C32   A    
C75   H82   S    
C58   H41   S    
C92   H10   S    
C57   C58   S    
C88   O14   S    
C14   H36   S    
C92   O15   S    
C8    C11   A    
C55   H35   S    
C36   C38   A    
C92   C93   S    
N2    Zn2   S    
C41   C48   S    
C57   H38   S    
C18   C20   A    
C69   C70   S    
C29   O5    S    
C39   O11   S    
C5    C12   S    
C80   H92   S    
C93   H12   S    
C59   H43   S    
C79   C80   S    
C3    Cl5   S    
C7    C13   A    
C89   H18   S    
C66   H61   S    
C37   C39   A    
C49   C50   S    
C88   H112  S    
C21   C24   A    
C25   H58   S    
C77   H88   S    
C71   H72   S    
C36   H1    S    
C53   H30   S    
C17   C35   S    
C69   O7    S    
C82   C83   S    
C83   H100  S    
C76   H84   S    
C35   C46   A    
C3    C89   A    
C76   H85   S    
C38   O13   S    
C24   O4    S    
