data_mof_unit_27576.cif
_audit_creation_date              2012-12-10T18:49:03-0500
_audit_creation_method            fapswitch 2.2
_symmetry_space_group_name_H-M    P1
_symmetry_Int_Tables_number       1
_space_group_crystal_system       triclinic
_cell_length_a                    10.71603
_cell_length_b                    10.025001
_cell_length_c                    14.096726
_cell_angle_alpha                 89.999441
_cell_angle_beta                  89.977987
_cell_angle_gamma                 90.000477
_cell_volume                      1514.38594981

loop_
_atom_site_label
_atom_site_type_symbol
_atom_type_description
_atom_site_fract_x
_atom_site_fract_y
_atom_site_fract_z
_atom_type_partial_charge
C1    C     C_R   0.260395 0.499998 0.499978 0.866412
C2    C     C_1   0.500052 0.498882 0.957303 0.059373
C3    C     C_R   0.063899 0.378349 0.500103 -0.146059
C4    C     C_R   0.936103 0.621626 0.499987 -0.133009
C5    C     C_R   0.936101 0.378351 0.500054 -0.146134
C6    C     C_R   0.063899 0.621626 0.499850 -0.133030
C7    C     C_R   0.872359 0.499991 0.500034 -0.038097
C8    C     C_R   0.127641 0.499989 0.499964 -0.038038
C9    C     C_R   0.513070 0.068852 0.582203 0.306544
C10   C     C_R   0.518216 0.930973 0.418392 0.306863
C11   C     C_R   0.486929 0.068854 0.417797 0.306492
C12   C     C_R   0.739605 0.499999 0.500022 0.866474
C13   C     C_R   0.481783 0.930971 0.581608 0.306866
C14   C     C_R   0.499957 0.499937 0.329617 0.892654
C15   C     C_R   0.500041 0.499936 0.670383 0.892705
C16   C     C_1   0.499839 0.499537 0.228055 -0.061923
C17   C     C_1   0.500151 0.499537 0.771945 -0.061504
C18   C     C_1   0.499823 0.499099 0.142660 0.044122
C19   C     C_1   0.500161 0.499102 0.857340 0.044311
C20   C     C_1   0.499929 0.498880 0.042697 0.059431
H1    H     H_    0.112183 0.283396 0.500248 0.203432
H2    H     H_    0.887824 0.716582 0.500033 0.198627
H3    H     H_    0.887816 0.283398 0.500039 0.203496
H4    H     H_    0.112180 0.716581 0.499673 0.198545
H5    H     H_    0.735746 0.274160 0.716213 0.368593
H6    H     H_    0.560195 0.797372 0.179846 0.379930
H7    H     H_    0.264379 0.274317 0.283817 0.368576
H8    H     H_    0.440017 0.797972 0.820296 0.380113
N1    N     N_R   0.500000 0.857200 0.500000 -0.225005
N2    N     N_R   0.500000 0.142800 0.500000 -0.215075
O1    O     O_R   0.316770 0.614620 0.499990 -0.589435
O2    O     O_2   0.658485 0.012940 0.731621 -0.232114
O3    O     O_3   0.703977 0.239852 0.654907 -0.553855
O4    O     O_2   0.674690 0.985903 0.275688 -0.251153
O5    O     O_2   0.699267 0.768719 0.349507 -0.298858
O6    O     O_3   0.508681 0.806482 0.237844 -0.501042
O7    O     O_2   0.496827 0.188159 0.246921 -0.252049
O8    O     O_2   0.341508 0.012933 0.268382 -0.231898
O9    O     O_3   0.295996 0.239825 0.345112 -0.553775
O10   O     O_2   0.325333 0.985885 0.724324 -0.251378
O11   O     O_2   0.300733 0.768712 0.650503 -0.298561
O12   O     O_R   0.683230 0.385380 0.500010 -0.580482
O13   O     O_3   0.491343 0.806444 0.762143 -0.501224
O14   O     O_R   0.683230 0.614620 0.500010 -0.589421
O15   O     O_R   0.316770 0.385380 0.499990 -0.580512
O16   O     O_R   0.500000 0.614690 0.373720 -0.534019
O17   O     O_R   0.500000 0.385310 0.626280 -0.540822
O18   O     O_R   0.500000 0.614690 0.626280 -0.533920
O19   O     O_R   0.500000 0.385310 0.373720 -0.540845
O20   O     O_2   0.503143 0.188145 0.753082 -0.252074
S1    S     S_3+6 0.593934 0.127943 0.684014 0.105914
S2    S     S_3+6 0.605217 0.871265 0.319749 0.104071
S3    S     S_3+6 0.406049 0.127939 0.315991 0.106036
S4    S     S_3+6 0.394795 0.871250 0.680255 0.104065
Zn1   Zn    Zn3+2 0.500000 0.653120 0.500000 1.099324
Zn2   Zn    Zn3+2 0.500000 0.346880 0.500000 1.092341

loop_
_geom_bond_atom_site_label_1
_geom_bond_atom_site_label_2
_ccdc_geom_bond_type
O16   Zn1   S    
O6    S2    S    
O18   Zn1   S    
C6    C8    A    
O7    S3    D    
C5    C7    A    
O2    S1    D    
O3    S1    S    
O19   Zn2   S    
C4    H2    S    
N1    Zn1   S    
O13   S4    S    
C18   C20   S    
C5    H3    S    
C15   O17   A    
C6    H4    S    
O20   S1    D    
C10   S2    S    
C14   O16   A    
O14   Zn1   S    
C1    O15   A    
C11   S3    S    
O9    S3    S    
O8    S3    D    
C9    N2    A    
C4    C7    A    
O1    Zn1   S    
C15   O18   A    
H6    O6    S    
C17   C19   T    
C3    C8    A    
O10   S4    D    
C7    C12   S    
C14   C16   S    
O11   S4    D    
C3    H1    S    
C14   O19   A    
H5    O3    S    
C10   C11   A    
C2    C20   T    
C1    C8    S    
C10   N1    A    
C1    O1    A    
O15   Zn2   S    
C16   C18   T    
C13   S4    S    
C13   N1    A    
O5    S2    D    
C15   C17   S    
C9    C13   A    
C12   O14   A    
C12   O12   A    
O4    S2    D    
H8    O13   S    
O12   Zn2   S    
C2    C19   S    
C4    C6    A    
N2    Zn2   S    
C11   N2    A    
H7    O9    S    
O17   Zn2   S    
C3    C5    A    
C9    S1    S    
