data_mof_unit_5128.cif
_audit_creation_date              2013-03-05T16:43:53-0500
_audit_creation_method            fapswitch 2.2
_symmetry_space_group_name_H-M    P1
_symmetry_Int_Tables_number       1
_space_group_crystal_system       triclinic
_cell_length_a                    9.879274
_cell_length_b                    10.68066
_cell_length_c                    16.666369
_cell_angle_alpha                 90.256483
_cell_angle_beta                  84.505133
_cell_angle_gamma                 89.983605
_cell_volume                      1750.48894753

loop_
_atom_site_label
_atom_site_type_symbol
_atom_site_description
_atom_site_fract_x
_atom_site_fract_y
_atom_site_fract_z
_atom_type_partial_charge
O1    O     O_R   0.385310 0.683210 0.499990 -0.609237
O2    O     O_R   0.614650 0.683240 0.500000 -0.626508
C1    C     C_R   0.499497 0.739907 0.501952 0.927010
O3    O     O_R   0.371780 0.500000 0.615800 -0.597269
O4    O     O_R   0.601120 0.500040 0.615800 -0.627723
C2    C     C_R   0.480396 0.498275 0.653507 0.864703
Zn1   Zn    Zn3+2 0.346870 0.499980 0.499990 0.992357
Zn2   Zn    Zn3+2 0.653130 0.500020 0.500010 1.012938
O5    O     O_R   0.385350 0.316760 0.500000 -0.632624
O6    O     O_R   0.614690 0.316790 0.500010 -0.579968
O7    O     O_R   0.398880 0.499960 0.384200 -0.606134
O8    O     O_R   0.628220 0.500000 0.384200 -0.575687
C3    C     C_R   0.499609 0.260139 0.501699 0.885202
C4    C     C_R   0.519499 0.493796 0.346795 0.919449
C5    C     C_R   0.467762 0.476977 0.739978 -0.038193
C6    C     C_R   0.581398 0.493868 0.782899 -0.187849
C7    C     C_R   0.577266 0.455463 0.862281 -0.127305
C8    C     C_R   0.459678 0.398164 0.899514 0.177757
C9    C     C_R   0.343817 0.386923 0.857935 -0.151410
C10   C     C_R   0.347840 0.425704 0.778240 -0.117024
C11   C     C_R   0.446415 0.324776 0.159612 -0.112901
C12   C     C_R   0.431674 0.374018 0.236932 -0.168740
C13   C     C_R   0.650741 0.477149 0.212751 -0.089926
C14   C     C_R   0.665030 0.428511 0.134833 -0.130241
C15   C     C_R   0.560897 0.355617 0.107330 0.173117
C16   C     C_2   0.451362 0.362025 0.984285 -0.206830
C17   C     C_2   0.562310 0.333502 0.020875 -0.217838
C18   C     C_R   0.532394 0.452545 0.263302 -0.041506
H1    H     H_    0.674307 0.534842 0.754726 0.169925
H2    H     H_    0.730214 0.535905 0.232930 0.189983
H3    H     H_    0.251206 0.346271 0.886749 0.146962
H4    H     H_    0.366332 0.266430 0.139678 0.152091
H5    H     H_    0.259187 0.411159 0.745838 0.188538
C19   C     C_R   0.377275 0.936450 0.500409 0.023712
C20   C     C_R   0.495953 0.871591 0.512162 -0.046458
C21   C     C_R   0.608511 0.935641 0.537163 -0.189719
H6    H     H_    0.698208 0.886670 0.552425 0.156846
C22   C     C_R   0.608792 0.065151 0.536907 -0.169151
H7    H     H_    0.698992 0.114529 0.551680 0.173980
C23   C     C_R   0.496041 0.128752 0.512088 -0.051210
C24   C     C_R   0.377051 0.064108 0.500880 0.067837
C25   C     C_3   0.285786 0.073006 0.434410 -0.507922
C26   C     C_3   0.285975 0.930575 0.433468 0.145480
H8    H     H_    0.185028 0.113442 0.455918 0.190842
H9    H     H_    0.336177 0.117547 0.379165 0.228949
H10   H     H_    0.184988 0.888495 0.452234 0.107613
C27   C     C_R   0.918215 0.542765 0.565534 0.121776
N1    N     N_R   0.857140 0.500860 0.500530 -0.160617
C28   C     C_R   0.939477 0.447425 0.437918 0.330017
C29   C     C_R   0.083057 0.448531 0.438256 -0.168540
H11   H     H_    0.146472 0.407861 0.388342 0.181133
N2    N     N_R   0.142780 0.500820 0.500530 -0.151969
C30   C     C_R   0.060762 0.541758 0.565788 0.141155
C31   C     C_3   0.060914 0.670267 0.601151 0.126462
C32   C     C_3   0.906944 0.671652 0.600446 -0.554597
H12   H     H_    0.114701 0.740263 0.560485 0.110049
H13   H     H_    0.849227 0.673355 0.661056 0.229725
H14   H     H_    0.872079 0.740426 0.557140 0.184560
H15   H     H_    0.753529 0.453549 0.094638 0.144656
N3    N     N_R   0.352359 0.876987 0.358699 0.230763
O9    O     O_R   0.471085 0.916420 0.328417 -0.377006
O10   O     O_R   0.293127 0.786887 0.322666 -0.367028
N4    N     N_R   0.883097 0.391587 0.370494 0.216004
O11   O     O_R   0.808702 0.291659 0.381069 -0.365790
O12   O     O_R   0.935345 0.418317 0.297967 -0.420940
N5    N     N_R   0.105511 0.670648 0.682376 0.239535
O13   O     O_R   0.054257 0.592660 0.736937 -0.411760
O14   O     O_R   0.200365 0.747716 0.699881 -0.387475
H16   H     H_    0.342112 0.349442 0.276354 0.157364
H17   H     H_    0.660228 0.321074 0.986221 0.158148
H18   H     H_    0.353639 0.375201 0.019153 0.164613
H19   H     H_    0.665669 0.472573 0.894347 0.143844

loop_
_geom_bond_atom_site_label_1
_geom_bond_atom_site_label_2
_geom_bond_distance
_ccdc_geom_bond_type
O4    Zn2   1.948905 S    
N5    O14   1.300565 A    
C13   C14   1.391033 A    
Zn2   N1    2.016342 S    
C23   C24   1.390984 A    
C31   N5    1.463162 S    
C15   C17   1.457817 S    
O3    Zn1   1.968992 S    
C24   C25   1.497125 S    
C12   H16   1.083416 S    
C29   N2    1.359966 A    
C27   N1    1.363487 A    
C8    C16   1.460985 S    
C1    C20   1.415990 S    
Zn2   O8    1.968992 S    
C4    C18   1.451621 S    
C28   C29   1.419075 A    
C9    C10   1.390018 A    
N4    O12   1.301049 A    
C7    C8    1.405294 A    
C6    H1    1.083526 S    
C27   C32   1.492086 S    
C9    H3    1.083595 S    
N3    O9    1.302562 A    
C12   C18   1.402723 A    
C11   C12   1.384334 A    
C14   C15   1.400778 A    
C22   C23   1.401301 A    
C16   H18   1.086888 S    
C19   C24   1.363461 A    
C16   C17   1.339996 D    
C5    C10   1.403206 A    
C17   H17   1.085915 S    
C25   H8    1.111721 S    
C26   N3    1.465411 S    
O1    Zn1   1.993629 S    
C14   H15   1.083635 S    
C28   N4    1.429224 S    
C27   C30   1.408710 A    
O6    C3    1.286040 A    
C21   C22   1.383289 A    
N1    C28   1.381364 A    
C26   H10   1.112181 S    
O8    C4    1.294059 A    
Zn1   N2    2.015436 S    
O2    C1    1.286049 A    
O1    C1    1.283602 A    
C32   H13   1.111479 S    
C22   H7    1.083499 S    
C19   C20   1.391983 A    
C11   H4    1.083246 S    
C31   H12   1.111943 S    
O3    C2    1.294580 A    
C25   C26   1.521259 S    
C10   H5    1.082927 S    
C5    C6    1.399052 A    
C13   H2    1.082743 S    
Zn1   O5    1.993390 S    
N5    O13   1.302291 A    
N2    C30   1.362868 A    
C7    H19   1.081821 S    
N3    O10   1.300617 A    
C8    C9    1.398584 A    
C32   H14   1.109653 S    
O7    C4    1.292393 A    
O4    C2    1.293953 A    
O5    C3    1.283200 A    
C31   C32   1.522350 S    
C21   H6    1.080570 S    
Zn1   O7    1.948905 S    
C11   C15   1.400352 A    
C29   H11   1.081659 S    
C2    C5    1.453533 S    
C13   C18   1.399775 A    
C25   H9    1.112735 S    
Zn2   O6    1.993631 S    
O2    Zn2   1.993389 S    
C19   C26   1.501442 S    
N4    O11   1.299111 A    
C30   C31   1.491391 S    
C6    C7    1.383765 A    
C3    C23   1.414745 S    
C20   C21   1.401686 A    
