data_mof_unit_64795.cif
_audit_creation_date              2012-12-11T16:24:40-0500
_audit_creation_method            fapswitch 2.2
_symmetry_space_group_name_H-M    P1
_symmetry_Int_Tables_number       1
_space_group_crystal_system       triclinic
_cell_length_a                    8.406693
_cell_length_b                    17.354729
_cell_length_c                    17.378011
_cell_angle_alpha                 97.188982
_cell_angle_beta                  96.012342
_cell_angle_gamma                 97.401166
_cell_volume                      2475.59831631

loop_
_atom_site_label
_atom_site_type_symbol
_atom_type_description
_atom_site_fract_x
_atom_site_fract_y
_atom_site_fract_z
_atom_type_partial_charge
Ba1   Ba    Ba6+2 0.160000 0.538340 0.465920 1.665341
Ba2   Ba    Ba6+2 0.650170 0.461650 0.534010 1.657914
C1    C     C_3   0.293529 0.787439 0.209147 0.119578
C2    C     C_3   0.661200 0.775541 0.429097 -0.037967
C3    C     C_2   0.718622 0.861852 0.449529 0.086311
C4    C     C_3   0.857322 0.738868 0.263646 0.388033
C5    C     C_2   0.853939 0.887198 0.501358 0.013675
C6    C     C_2   0.935900 0.826891 0.540603 -0.171715
C7    C     C_1   0.885347 0.749704 0.522562 0.140736
C8    C     C_R   0.098329 0.145333 0.551275 -0.112824
C9    C     C_R   0.168082 0.221731 0.547747 0.041351
C10   C     C_R   0.919180 0.248834 0.478555 0.063115
C11   C     C_R   0.850432 0.169851 0.479122 -0.140278
C12   C     C_3   0.366029 0.747040 0.275544 0.414750
C13   C     C_R   0.940940 0.117056 0.515022 -0.009773
C14   C     C_2   0.943111 0.968873 0.506279 0.166368
C15   C     C_2   0.867512 0.034074 0.518011 -0.108138
C16   C     C_3   0.786974 0.778553 0.195905 -0.117361
C17   C     C_R   0.077777 0.273395 0.513569 -0.289925
C18   C     C_R   0.604693 0.517506 0.274534 -0.328694
C19   C     C_R   0.446242 0.482155 0.249454 0.050278
C20   C     C_R   0.392146 0.468578 0.168448 0.060571
C21   C     C_R   0.495781 0.493794 0.115010 -0.006664
C22   C     C_R   0.659985 0.525610 0.140832 -0.121017
C23   C     C_3   0.567363 0.700049 0.649006 0.277418
C24   C     C_R   0.710908 0.541648 0.222594 -0.031959
C25   C     C_R   0.413450 0.515456 0.835017 -0.110486
C26   C     C_R   0.358910 0.512985 0.756043 0.085492
C27   C     C_R   0.096138 0.445324 0.775409 0.053654
C28   C     C_3   0.724413 0.354080 0.290070 0.278896
C29   C     C_R   0.152123 0.446434 0.855061 0.060208
C30   C     C_R   0.312846 0.480749 0.884442 -0.034830
C31   C     C_1   0.375517 0.483429 0.965612 0.033810
C32   C     C_1   0.430288 0.487229 0.033322 0.109265
C33   C     C_R   0.203004 0.475758 0.726024 -0.132186
C34   C     C_3   0.590597 0.789005 0.667512 -0.334419
C35   C     C_3   0.689253 0.326202 0.201945 -0.102563
C36   C     C_3   0.015440 0.658319 0.723126 0.294976
C37   C     C_3   0.941581 0.685478 0.798485 -0.148762
C38   C     C_3   0.240789 0.300670 0.360881 0.274539
C39   C     C_3   0.232598 0.211599 0.341216 -0.275891
C40   C     C_2   0.006283 0.770165 0.832596 0.878210
C41   C     C_2   0.964166 0.630832 0.858837 0.830225
C42   C     C_2   0.105627 0.178058 0.273233 0.934110
C43   C     C_2   0.961180 0.798944 0.324738 0.800164
C44   C     C_2   0.778040 0.531777 0.082258 0.858492
C45   C     C_3   0.822961 0.248897 0.684916 0.326022
C46   C     C_3   0.795213 0.165467 0.704103 -0.335523
C47   C     C_3   0.394522 0.280382 0.738201 0.437100
C48   C     C_3   0.474046 0.263760 0.816590 -0.306521
C49   C     C_2   0.754254 0.722076 0.472118 -0.081100
H1    H     H_    0.308407 0.684691 0.267697 0.031269
H2    H     H_    0.497603 0.749176 0.272509 -0.033958
H3    H     H_    0.682951 0.681164 0.634516 -0.001354
H4    H     H_    0.473860 0.682616 0.597615 0.077476
H5    H     H_    0.679925 0.808827 0.720104 0.167226
H6    H     H_    0.634785 0.815694 0.617551 0.060532
H7    H     H_    0.473794 0.809100 0.678600 0.130972
H8    H     H_    0.165082 0.790712 0.215486 0.125973
H9    H     H_    0.727014 0.827828 0.220425 0.097665
H10   H     H_    0.714513 0.260314 0.649095 0.115210
H11   H     H_    0.924961 0.253974 0.649759 -0.008134
H12   H     H_    0.633158 0.263620 0.191297 0.156933
H13   H     H_    0.757567 0.123818 0.649554 0.080622
H14   H     H_    0.908392 0.150728 0.734018 0.129865
H15   H     H_    0.698517 0.159065 0.742626 0.140720
H16   H     H_    0.440941 0.342270 0.732519 0.045202
H17   H     H_    0.444134 0.305164 0.865304 0.080217
H18   H     H_    0.607023 0.271701 0.818283 0.159191
H19   H     H_    0.431601 0.202659 0.825779 0.126524
H20   H     H_    0.741864 0.026133 0.528222 0.063872
H21   H     H_    0.044991 0.847184 0.581091 0.109826
H22   H     H_    0.167089 0.109161 0.583804 0.083039
H23   H     H_    0.601184 0.360117 0.174962 0.061628
H24   H     H_    0.728621 0.149349 0.451013 0.108179
H25   H     H_    0.134515 0.332168 0.510603 0.058631
H26   H     H_    0.533612 0.544724 0.858003 0.149268
H27   H     H_    0.755024 0.710891 0.290830 -0.142855
H28   H     H_    0.651601 0.518263 0.334745 0.070249
H29   H     H_    0.885351 0.803475 0.164077 0.115625
H30   H     H_    0.608503 0.361827 0.312698 0.014880
H31   H     H_    0.808107 0.410398 0.301493 0.014004
H32   H     H_    0.879860 0.394774 0.169107 0.169928
H33   H     H_    0.923735 0.307844 0.192726 0.241902
H34   H     H_    0.946254 0.600852 0.695886 0.039265
H35   H     H_    0.247758 0.704360 0.768070 0.217980
H36   H     H_    0.224964 0.638073 0.688267 0.170479
H37   H     H_    0.024549 0.884290 0.817550 0.314094
H38   H     H_    0.117441 0.594173 0.939113 0.297529
H39   H     H_    0.248078 0.770348 0.089663 0.218610
H40   H     H_    0.233873 0.687366 0.129609 0.201645
H41   H     H_    0.968419 0.113183 0.337566 0.265419
H42   H     H_    0.485419 0.866405 0.190224 0.194398
H43   H     H_    0.306038 0.898426 0.179340 0.198385
H44   H     H_    0.174228 0.304682 0.698090 0.092000
H45   H     H_    0.809919 0.683295 0.781899 0.047872
H46   H     H_    0.189279 0.293016 0.791728 0.162791
H47   H     H_    0.113006 0.818266 0.424102 0.346177
H48   H     H_    0.186563 0.989383 0.539387 0.167554
H49   H     H_    0.127266 0.014107 0.448926 0.205609
H50   H     H_    0.578134 0.947464 0.434768 0.184059
H51   H     H_    0.731762 0.946670 0.377044 0.215133
H52   H     H_    0.626337 0.618119 0.481065 0.189781
H53   H     H_    0.659743 0.633413 0.389005 0.136481
H54   H     H_    0.982746 0.586445 0.050785 0.307202
H55   H     H_    0.100222 0.366990 0.927796 0.184339
H56   H     H_    0.119546 0.315478 0.370033 -0.005808
H57   H     H_    0.035867 0.454363 0.951359 0.213971
H58   H     H_    0.147310 0.448209 0.159982 0.219036
H59   H     H_    0.238182 0.366369 0.155966 0.211398
H60   H     H_    0.059227 0.500345 0.632902 0.199987
H61   H     H_    0.130395 0.410324 0.620747 0.163353
H62   H     H_    0.607113 0.756400 0.105130 0.208855
H63   H     H_    0.730543 0.689598 0.105047 0.231421
H64   H     H_    0.326535 0.320114 0.414983 0.072944
H65   H     H_    0.206919 0.183614 0.393313 -0.023307
H66   H     H_    0.352294 0.197541 0.326758 0.100552
N1    N     N_3   0.835884 0.334984 0.163697 -0.453485
N2    N     N_3   0.240106 0.421702 0.138078 -0.499639
N3    N     N_3   0.155343 0.469325 0.644116 -0.453336
N4    N     N_3   0.668250 0.723552 0.141761 -0.500759
N5    N     N_3   0.183638 0.650023 0.742165 -0.499534
N6    N     N_3   0.303326 0.742502 0.133077 -0.519942
N7    N     N_3   0.376911 0.867683 0.214218 -0.445591
N8    N     N_3   0.219005 0.269844 0.737524 -0.485314
N9    N     N_3   0.106666 0.973807 0.488024 -0.474155
N10   N     N_3   0.644268 0.912159 0.401309 -0.475256
N11   N     N_3   0.711676 0.640065 0.446768 -0.428205
N12   N     N_3   0.046557 0.411667 0.904887 -0.435416
O1    O     O_2   0.169780 0.691990 0.551040 -0.448313
O2    O     O_2   0.756919 0.438464 0.769900 -0.433162
O3    O     O_3   0.855135 0.301730 0.754642 -0.602192
O4    O     O_3   0.896620 0.594010 0.545570 -0.489578
O5    O     O_3   0.420600 0.460050 0.406370 -0.489105
O6    O     O_2   0.650040 0.537900 0.687840 -0.470396
O7    O     O_3   0.519615 0.667682 0.714513 -0.639971
O8    O     O_2   0.490633 0.216636 0.531009 -0.499065
O9    O     O_3   0.437150 0.227412 0.677955 -0.602537
O10   O     O_3   0.384860 0.644020 0.410190 -0.495535
O11   O     O_2   0.377305 0.781578 0.498788 -0.483378
O12   O     O_3   0.293897 0.336000 0.298543 -0.634239
O13   O     O_3   0.007664 0.715249 0.673053 -0.626582
O14   O     O_3   0.336193 0.785573 0.347561 -0.556207
O15   O     O_2   0.160250 0.462050 0.312130 -0.465835
O16   O     O_3   0.957280 0.604490 0.369120 -0.417935
O17   O     O_2   0.046338 0.551411 0.232728 -0.473459
O18   O     O_2   0.082512 0.786399 0.897888 -0.585421
O19   O     O_R   0.976258 0.830418 0.789105 -0.745769
O20   O     O_2   0.847079 0.590397 0.876398 -0.595682
O21   O     O_R   0.118708 0.628741 0.896369 -0.726638
O22   O     O_2   0.122342 0.195781 0.208455 -0.550317
O23   O     O_3   0.956564 0.685319 0.234724 -0.587616
O24   O     O_R   0.969959 0.125820 0.282330 -0.704634
O25   O     O_2   0.977863 0.868941 0.318469 -0.626885
O26   O     O_R   0.043445 0.773320 0.388126 -0.711981
O27   O     O_2   0.759327 0.483533 0.023188 -0.589659
O28   O     O_R   0.911545 0.590573 0.094204 -0.734626
O29   O     O_2   0.640500 0.307960 0.448930 -0.470021
O30   O     O_3   0.913680 0.405980 0.454370 -0.489841
O31   O     O_3   0.425430 0.355970 0.589750 -0.483189
O32   O     O_3   0.794399 0.296764 0.325382 -0.626912
O33   O     O_3   0.389690 0.539950 0.593560 -0.459330
O34   O     O_3   0.853010 0.395500 0.630820 -0.520852
P1    P     P_3+3 0.996700 0.679700 0.572930 1.017388
P2    P     P_3+3 0.328720 0.438370 0.322170 0.979741
P3    P     P_3+3 0.913701 0.593677 0.266431 1.034508
P4    P     P_3+3 0.813590 0.320290 0.427010 0.990262
P5    P     P_3+3 0.889376 0.397836 0.732619 0.981156
P6    P     P_3+3 0.438676 0.746542 0.423064 0.978529
P7    P     P_3+3 0.480524 0.565417 0.690933 0.980443
P8    P     P_3+3 0.380490 0.254789 0.586025 0.933924

loop_
_geom_bond_atom_site_label_1
_geom_bond_atom_site_label_2
_ccdc_geom_bond_type
H55   N12   S    
C35   H23   S    
C9    P8    S    
O11   P6    D    
C4    C43   S    
H39   N6    S    
Ba1   O16   S    
C7    C49   D    
H42   N7    S    
C40   O19   S    
Ba2   O33   S    
C45   H11   S    
C5    C6    S    
C16   H29   S    
C9    C17   A    
Ba2   O5    S    
H49   N9    S    
C42   O24   S    
H32   N1    S    
C17   H25   S    
C48   H18   S    
C22   C24   A    
C34   H7    S    
C8    C13   A    
O13   P1    S    
C36   C37   S    
C8    H22   S    
C46   H13   S    
C38   H64   S    
O1    P1    D    
C19   P2    S    
C13   C15   S    
Ba1   Ba2   S    
O6    P7    D    
C23   O7    S    
C48   H17   S    
H47   O26   S    
H63   N4    S    
C12   H1    S    
C35   N1    S    
C11   H24   S    
Ba1   P1    S    
Ba2   O30   S    
O33   P7    S    
H35   N5    S    
C21   C22   A    
H41   O24   S    
C43   O26   S    
C46   H14   S    
H48   N9    S    
Ba1   O10   S    
C4    O23   S    
O17   P3    D    
H40   N6    S    
C19   C20   A    
C36   O13   S    
C33   N3    S    
C10   P4    S    
Ba1   O4    S    
C40   O18   D    
C29   N12   S    
C35   H12   S    
C1    N6    S    
O29   P4    D    
C37   C40   S    
O16   P3    S    
C20   N2    S    
C4    C16   S    
H54   O28   S    
C6    H21   S    
C42   O22   D    
C2    P6    S    
C2    C49   S    
Ba2   O4    S    
C23   H4    S    
Ba1   O30   S    
C23   H3    S    
O14   P6    S    
H46   N8    S    
C34   H6    S    
C3    C5    D    
C6    C7    D    
C37   C41   S    
C36   H34   S    
C44   O28   S    
C28   C35   S    
H60   N3    S    
C28   H31   S    
C7    P1    S    
C45   H10   S    
C34   H5    S    
H44   N8    S    
C45   C46   S    
H53   N11   S    
Ba1   P2    S    
Ba2   O29   S    
C21   C32   S    
C3    N10   S    
C31   C32   T    
H37   O19   S    
O5    P2    S    
C36   N5    S    
C10   C11   A    
H52   N11   S    
Ba1   O1    S    
H57   N12   S    
O32   P4    S    
C41   O21   S    
C38   H56   S    
C47   O9    S    
C16   H9    S    
C5    C14   S    
O7    P7    S    
Ba1   O33   S    
H51   N10   S    
C11   C13   A    
H33   N1    S    
C39   C42   S    
C49   N11   S    
C39   H65   S    
Ba1   O5    S    
O4    P1    S    
H38   O21   S    
C47   N8    S    
C1    N7    S    
H58   N2    S    
H61   N3    S    
O15   P2    D    
C26   P7    S    
C26   C33   A    
C12   O14   S    
C24   P3    S    
C47   H16   S    
C18   H28   S    
C25   C30   A    
O9    P8    S    
Ba2   O34   S    
C29   C30   A    
O3    P5    S    
C2    C3    S    
C25   H26   S    
C41   O20   D    
H59   N2    S    
O2    P5    D    
H36   N5    S    
O23   P3    S    
C15   H20   S    
C1    C12   S    
C44   O27   D    
C27   C33   A    
O12   P2    S    
Ba2   O6    S    
C45   O3    S    
C22   C44   S    
C30   C31   S    
C28   H30   S    
O34   P5    S    
C48   H19   S    
C27   P5    S    
C27   C29   A    
Ba1   O15   S    
C23   C34   S    
C14   C15   D    
C18   C24   A    
C10   C17   A    
H50   N10   S    
O31   P8    S    
O30   P4    S    
O10   P6    S    
C37   H45   S    
O8    P8    D    
C4    H27   S    
C8    C9    A    
C16   N4    S    
C12   H2    S    
H62   N4    S    
C18   C19   A    
Ba2   O31   S    
C47   C48   S    
C25   C26   A    
C39   H66   S    
C20   C21   A    
C38   C39   S    
C43   O25   D    
C28   O32   S    
C46   H15   S    
C38   O12   S    
C14   N9    S    
Ba2   P4    S    
C1    H8    S    
H43   N7    S    
