data_mof_unit_67910.cif
_audit_creation_date              2012-12-10T18:42:31-0500
_audit_creation_method            fapswitch 2.2
_symmetry_space_group_name_H-M    P1
_symmetry_Int_Tables_number       1
_space_group_crystal_system       triclinic
_cell_length_a                    8.805859
_cell_length_b                    10.841544
_cell_length_c                    10.027241
_cell_angle_alpha                 90.625583
_cell_angle_beta                  97.540453
_cell_angle_gamma                 92.639155
_cell_volume                      947.867898995

loop_
_atom_site_label
_atom_site_type_symbol
_atom_type_description
_atom_site_fract_x
_atom_site_fract_y
_atom_site_fract_z
_atom_type_partial_charge
C1    C     C_R   0.502432 0.261063 0.499316 0.964946
C2    C     C_R   0.488089 0.739483 0.499254 0.937563
C3    C     C_R   0.202883 0.507390 0.466740 0.847211
C4    C     C_R   0.797088 0.502260 0.535164 0.897064
C5    C     C_2   0.042591 0.534415 0.457154 -0.366626
C6    C     C_2   0.960459 0.503112 0.557226 -0.324848
C7    C     C_R   0.388131 0.065537 0.403818 0.480377
C8    C     C_R   0.543930 0.941402 0.611582 0.442330
C9    C     C_R   0.387964 0.936847 0.393075 -0.192742
C10   C     C_R   0.583414 0.065213 0.599525 -0.236136
C11   C     C_R   0.471900 0.873288 0.499479 -0.305311
C12   C     C_R   0.499227 0.128680 0.496379 -0.343442
C13   C     C_R   0.599760 0.575626 0.083584 0.371636
C14   C     C_R   0.401200 0.422008 0.915588 0.311341
C15   C     C_R   0.613562 0.562819 0.943306 0.283157
C16   C     C_R   0.398164 0.424867 0.060138 0.265179
N1    N     N_R   0.499960 0.499970 0.857200 -0.184850
N2    N     N_R   0.500040 0.500030 0.142800 -0.187058
O1    O     O_R   0.499990 0.316750 0.614620 -0.606464
O2    O     O_R   0.500010 0.683250 0.385380 -0.586523
O3    O     O_R   0.499990 0.316780 0.385290 -0.557610
O4    O     O_R   0.500010 0.683220 0.614710 -0.615144
O5    O     O_R   0.271750 0.499990 0.587840 -0.578656
O6    O     O_R   0.728250 0.500010 0.412160 -0.588898
O7    O     O_R   0.271750 0.500010 0.358510 -0.556958
O8    O     O_R   0.728250 0.499990 0.641490 -0.584894
Zn1   Zn    Zn3+2 0.500000 0.499980 0.653120 1.032552
Zn2   Zn    Zn3+2 0.500000 0.500020 0.346880 1.067994
C17   C     C_2   0.985338 0.626542 0.358347 1.110675
O9    O     O_2   0.936824 0.722298 0.397846 -0.658746
O10   O     O_R   0.991285 0.606859 0.222373 -0.776331
H1    H     H_    0.968186 0.683345 0.168628 0.374611
C18   C     C_2   0.026628 0.481235 0.697241 1.109088
O11   O     O_2   0.997507 0.383886 0.749985 -0.582712
O12   O     O_R   0.110259 0.577488 0.770621 -0.818538
H2    H     H_    0.145816 0.556735 0.867024 0.303605
O13   O     O_3   0.264839 0.127487 0.341190 -0.544512
C19   C     C_3   0.158924 0.144277 0.434903 0.127567
H3    H     H_    0.130460 0.242505 0.436259 0.156494
H4    H     H_    0.203035 0.123346 0.541303 0.099291
C20   C     C_3   0.012646 0.065026 0.394754 -0.828402
H5    H     H_    0.037631 0.965890 0.403121 0.274806
H6    H     H_    0.926878 0.085630 0.462745 0.236516
H7    H     H_    0.963441 0.084010 0.290008 0.256909
O14   O     O_3   0.549763 0.893225 0.737589 -0.609008
C21   C     C_3   0.415205 0.920436 0.793395 0.065038
H8    H     H_    0.336301 0.980043 0.729557 0.121438
H9    H     H_    0.449939 0.968036 0.892031 0.186402
C22   C     C_3   0.323332 0.802762 0.816106 -0.768724
H10   H     H_    0.396216 0.735843 0.873274 0.219765
H11   H     H_    0.229282 0.824514 0.874131 0.202714
H12   H     H_    0.272563 0.761986 0.717515 0.301716
C23   C     C_2   0.287254 0.875271 0.278970 0.932311
O15   O     O_2   0.240149 0.768691 0.286867 -0.661837
O16   O     O_R   0.245533 0.940260 0.161091 -0.779047
H13   H     H_    0.173871 0.889642 0.091999 0.318124
C24   C     C_2   0.704694 0.126386 0.698740 0.968972
O17   O     O_2   0.786159 0.210203 0.662474 -0.617351
O18   O     O_R   0.729847 0.086269 0.831569 -0.799234
H14   H     H_    0.814895 0.136462 0.888563 0.335502
O19   O     O_3   0.687951 0.665144 0.160973 -0.548764
C25   C     C_3   0.614949 0.778721 0.142834 0.107713
H15   H     H_    0.494484 0.769814 0.162920 0.163244
H16   H     H_    0.611599 0.811921 0.039444 0.121700
C26   C     C_3   0.701543 0.878983 0.233846 -0.743457
H17   H     H_    0.705014 0.854478 0.340927 0.277351
H18   H     H_    0.820734 0.891559 0.210597 0.252124
H19   H     H_    0.644233 0.967723 0.217567 0.203983
O20   O     O_3   0.301545 0.343600 0.832099 -0.568766
C27   C     C_3   0.324993 0.218169 0.863034 0.155736
H20   H     H_    0.388477 0.201730 0.964353 0.168180
H21   H     H_    0.394061 0.180309 0.789196 0.141455
C28   C     C_3   0.170462 0.145854 0.850970 -0.766365
H22   H     H_    0.112572 0.146061 0.745970 0.261473
H23   H     H_    0.185699 0.049447 0.883186 0.197320
H24   H     H_    0.094162 0.185745 0.916945 0.272669
O21   O     O_3   0.758374 0.584876 0.904527 -0.576584
C29   C     C_3   0.773631 0.702989 0.848842 0.272896
H25   H     H_    0.674761 0.756497 0.856332 0.184164
H26   H     H_    0.787157 0.694954 0.741207 0.178398
C30   C     C_3   0.913846 0.776483 0.917726 -0.876243
H27   H     H_    0.010227 0.715777 0.944801 0.269484
H28   H     H_    0.949209 0.849385 0.849529 0.236224
H29   H     H_    0.886779 0.823156 0.009560 0.241161
O22   O     O_3   0.292257 0.351916 0.118455 -0.544532
C31   C     C_3   0.145535 0.397770 0.081637 0.163433
H30   H     H_    0.108282 0.383396 0.974325 0.194445
H31   H     H_    0.146790 0.498031 0.102924 0.189571
C32   C     C_3   0.025555 0.328745 0.151923 -0.687902
H32   H     H_    0.041717 0.351872 0.260172 0.246587
H33   H     H_    0.909215 0.355686 0.109034 0.222113
H34   H     H_    0.033004 0.227886 0.137059 0.248893

loop_
_geom_bond_atom_site_label_1
_geom_bond_atom_site_label_2
_ccdc_geom_bond_type
O16   H13   S    
C1    O3    A    
C28   H23   S    
C20   H5    S    
C3    O5    A    
O12   H2    S    
C30   H27   S    
O21   C29   S    
O7    Zn2   S    
C21   C22   S    
O8    Zn1   S    
C17   O9    D    
C13   N2    A    
C5    C6    D    
C19   H3    S    
C4    O6    A    
C29   H26   S    
C24   O18   S    
C15   N1    A    
C28   H22   S    
C8    O14   S    
C25   H16   S    
C26   H18   S    
C2    O4    A    
C27   H20   S    
O5    Zn1   S    
C32   H33   S    
O1    Zn1   S    
C26   H19   S    
O18   H14   S    
C20   H6    S    
C14   N1    A    
O20   C27   S    
C1    C12   S    
C27   C28   S    
C2    C11   S    
C30   H28   S    
C5    C17   S    
C23   O16   S    
C7    C12   A    
C21   H9    S    
C1    O1    A    
C2    O2    A    
N1    Zn1   S    
C3    O7    A    
C10   C24   S    
N2    Zn2   S    
C19   C20   S    
C4    C6    S    
C31   H30   S    
O2    Zn2   S    
C22   H11   S    
O22   C31   S    
O13   C19   S    
O10   H1    S    
C22   H12   S    
C25   H15   S    
C18   O11   D    
C7    O13   S    
C32   H34   S    
C9    C11   A    
C10   C12   A    
C8    C10   A    
C14   O20   S    
O3    Zn2   S    
C22   H10   S    
O4    Zn1   S    
C13   C15   A    
C16   O22   S    
C20   H7    S    
C14   C16   A    
C9    C23   S    
C30   H29   S    
C7    C9    A    
C21   H8    S    
C25   C26   S    
C29   H25   S    
O6    Zn2   S    
C3    C5    S    
C31   C32   S    
C4    O8    A    
C23   O15   D    
C6    C18   S    
C17   O10   S    
C19   H4    S    
C29   C30   S    
C24   O17   D    
C15   O21   S    
C8    C11   A    
C18   O12   S    
C31   H31   S    
O19   C25   S    
O14   C21   S    
C13   O19   S    
C28   H24   S    
C16   N2    A    
C26   H17   S    
C27   H21   S    
C32   H32   S    
