data_mof_unit_20448.cif
_audit_creation_date              2012-12-10T20:42:38-0500
_audit_creation_method            fapswitch 2.2
_symmetry_space_group_name_H-M    P1
_symmetry_Int_Tables_number       1
_space_group_crystal_system       triclinic
_cell_length_a                    8.908582
_cell_length_b                    10.701406
_cell_length_c                    9.876374
_cell_angle_alpha                 90.373893
_cell_angle_beta                  90.013121
_cell_angle_gamma                 90.045099
_cell_volume                      941.537358761

loop_
_atom_site_label
_atom_site_type_symbol
_atom_type_description
_atom_site_fract_x
_atom_site_fract_y
_atom_site_fract_z
_atom_type_partial_charge
C1    C     C_R   0.502079 0.260051 0.499360 0.878053
C2    C     C_R   0.496127 0.934546 0.375558 -0.205627
C3    C     C_R   0.527172 0.871599 0.496869 -0.117542
C4    C     C_R   0.585381 0.938047 0.607471 0.065222
C5    C     C_3   0.555272 0.933723 0.757345 0.025909
C6    C     C_3   0.539240 0.075330 0.753911 -0.509921
C7    C     C_R   0.369904 0.516412 0.071202 0.224104
C8    C     C_R   0.625462 0.467525 0.071686 -0.133242
C9    C     C_R   0.625302 0.467039 0.927843 -0.161397
C10   C     C_R   0.369679 0.515809 0.928937 0.228245
C11   C     C_3   0.268431 0.626478 0.923491 -0.521566
C12   C     C_R   0.218735 0.500241 0.499980 0.939146
C13   C     C_3   0.270176 0.628073 0.077433 -0.514340
C14   C     C_R   0.505864 0.739971 0.500162 0.873252
C15   C     C_R   0.781271 0.500175 0.500041 0.935449
C16   C     C_1   0.065406 0.500371 0.500009 -0.214975
C17   C     C_1   0.934597 0.500346 0.500062 -0.213040
C18   C     C_R   0.576869 0.065743 0.607262 0.067698
C19   C     C_R   0.520779 0.128598 0.495515 -0.083415
C20   C     C_R   0.493804 0.063255 0.374733 -0.222287
H1    H     H_    0.459761 0.110319 0.282897 0.173074
H2    H     H_    0.156688 0.602385 0.880460 0.207396
H3    H     H_    0.327417 0.711421 0.121235 0.209840
H4    H     H_    0.159139 0.606053 0.122771 0.208143
H5    H     H_    0.462363 0.885417 0.284211 0.169662
H6    H     H_    0.450248 0.884609 0.786474 0.152451
H7    H     H_    0.422066 0.107388 0.771424 0.190872
H8    H     H_    0.626219 0.127550 0.812067 0.208710
H9    H     H_    0.727670 0.445161 0.125311 0.157004
H10   H     H_    0.727450 0.444563 0.873906 0.158914
H11   H     H_    0.322737 0.709356 0.877615 0.204806
N1    N     N_R   0.499010 0.499140 0.142800 -0.108415
N2    N     N_R   0.499010 0.499180 0.857150 -0.110493
O1    O     O_R   0.500020 0.316790 0.614690 -0.613410
O2    O     O_R   0.500000 0.316760 0.385350 -0.624352
O3    O     O_R   0.285350 0.500020 0.614650 -0.614854
O4    O     O_R   0.285340 0.499980 0.385310 -0.615540
O5    O     O_R   0.500000 0.683240 0.614650 -0.627831
O6    O     O_R   0.499980 0.683210 0.385310 -0.620638
O7    O     O_R   0.714660 0.500020 0.614690 -0.634945
O8    O     O_R   0.714650 0.499980 0.385350 -0.620466
Zn1   Zn    Zn3+2 0.500010 0.500020 0.653130 0.926486
Zn2   Zn    Zn3+2 0.499990 0.499980 0.346870 0.941335
N3    N     N_2   0.687251 0.898075 0.834855 -0.292950
H12   H     H_    0.787782 0.934990 0.801709 0.233874
C21   C     C_3   0.696945 0.768819 0.874217 -0.733421
H13   H     H_    0.792257 0.756737 0.945383 0.223980
H14   H     H_    0.716906 0.708848 0.784045 0.265184
H15   H     H_    0.592722 0.740180 0.927062 0.245861

loop_
_geom_bond_atom_site_label_1
_geom_bond_atom_site_label_2
_ccdc_geom_bond_type
O4    Zn2   S    
C7    C10   A    
C14   O5    A    
O8    Zn2   S    
C11   H2    S    
O3    Zn1   S    
C19   C20   A    
O1    Zn1   S    
C6    H7    S    
C4    C18   A    
O7    Zn1   S    
C2    C3    A    
C11   H11   S    
N3    H12   S    
C9    N2    A    
C4    C5    S    
C11   C13   S    
C21   H15   S    
C15   O8    A    
C2    H5    S    
C3    C14   S    
C9    H10   S    
N2    Zn1   S    
N1    Zn2   S    
N3    C21   S    
C1    O1    A    
O5    Zn1   S    
C10   N2    A    
C5    C6    S    
C6    C18   S    
C21   H14   S    
C15   O7    A    
C1    C19   S    
C12   O3    A    
C10   C11   S    
C8    H9    S    
C2    C20   A    
C5    H6    S    
C8    N1    A    
C7    C13   S    
O2    Zn2   S    
C20   H1    S    
C13   H3    S    
C18   C19   A    
C12   O4    A    
C15   C17   S    
C1    O2    A    
C21   H13   S    
C16   C17   T    
O6    Zn2   S    
C7    N1    A    
C14   O6    A    
C5    N3    S    
C6    H8    S    
C3    C4    A    
C12   C16   S    
C13   H4    S    
C8    C9    A    
