data_mof_unit_22822.cif
_audit_creation_date              2012-12-10T19:45:57-0500
_audit_creation_method            fapswitch 2.2
_symmetry_space_group_name_H-M    P1
_symmetry_Int_Tables_number       1
_space_group_crystal_system       triclinic
_cell_length_a                    10.739466
_cell_length_b                    14.881751
_cell_length_c                    14.141567
_cell_angle_alpha                 90.228834
_cell_angle_beta                  104.438324
_cell_angle_gamma                 89.977998
_cell_volume                      2188.73373472

loop_
_atom_site_label
_atom_site_type_symbol
_atom_type_description
_atom_site_fract_x
_atom_site_fract_y
_atom_site_fract_z
_atom_type_partial_charge
C1    C     C_R   0.500953 0.327600 0.500122 0.888365
C2    C     C_R   0.462726 0.424951 0.787804 -0.164532
C3    C     C_R   0.616813 0.512672 0.127387 0.383691
C4    C     C_R   0.468542 0.420912 0.888726 0.385299
C5    C     C_R   0.503146 0.498254 0.053665 -0.006225
C6    C     C_R   0.504122 0.498351 0.947270 -0.007170
C7    C     C_R   0.258297 0.496486 0.459214 0.949272
C8    C     C_R   0.741687 0.496566 0.540744 0.942531
C9    C     C_2   0.121132 0.482810 0.435849 -0.385976
C10   C     C_2   0.878835 0.483210 0.563982 -0.376246
C11   C     C_2   0.068365 0.459732 0.508140 -0.149452
C12   C     C_R   0.503355 0.672754 0.500944 0.901612
C13   C     C_2   0.931598 0.459462 0.491721 -0.158814
C14   C     C_R   0.472806 0.090224 0.567995 -0.166646
C15   C     C_R   0.522094 0.910468 0.425269 -0.183793
C16   C     C_R   0.453925 0.181852 0.561270 -0.229083
C17   C     C_R   0.503902 0.818563 0.419847 -0.219291
C18   C     C_R   0.516365 0.232118 0.503838 -0.088894
C19   C     C_R   0.522125 0.768829 0.505837 -0.099749
C20   C     C_R   0.601895 0.192081 0.456379 -0.278979
C21   C     C_R   0.564104 0.810693 0.597267 -0.291212
C22   C     C_R   0.626895 0.100833 0.467228 0.492507
C23   C     C_R   0.557702 0.049475 0.520202 0.016844
C24   C     C_R   0.585897 0.902716 0.603088 0.474175
C25   C     C_3   0.807229 0.446701 0.127183 0.067746
C26   C     C_3   0.930217 0.456690 0.092720 -0.318122
C27   C     C_3   0.015639 0.373839 0.118119 -0.964512
C28   C     C_3   0.514633 0.270314 0.919207 0.069298
C29   C     C_3   0.433537 0.195105 0.859800 -0.343631
C30   C     C_3   0.516992 0.116148 0.843938 -0.925248
C31   C     C_3   0.830669 0.045003 0.488102 0.082047
C32   C     C_3   0.919619 0.126923 0.497216 -0.354117
C33   C     C_3   0.053005 0.106919 0.562222 -0.962287
C34   C     C_R   0.560280 0.952601 0.516535 0.016990
C35   C     C_3   0.751842 0.927039 0.739013 0.055864
C36   C     C_3   0.760588 0.883803 0.838351 -0.321746
C37   C     C_3   0.900000 0.868280 0.893934 -0.960995
C38   C     C_3   0.204720 0.546126 0.989939 0.062663
C39   C     C_3   0.101689 0.532427 0.894635 -0.308031
C40   C     C_3   0.014714 0.614555 0.869725 -0.981970
C41   C     C_3   0.498839 0.725634 0.923773 0.061623
C42   C     C_3   0.530457 0.803131 0.996987 -0.300189
C43   C     C_3   0.449757 0.886059 0.959587 -0.987761
C44   C     C_R   0.387973 0.483948 0.082368 0.374430
C45   C     C_R   0.539065 0.576381 0.903393 0.370531
C46   C     C_R   0.389394 0.483535 0.182514 -0.152360
C47   C     C_R   0.540503 0.574018 0.803597 -0.159534
C48   C     C_R   0.611733 0.515878 0.226123 -0.161435
H1    H     H_    0.874386 0.448544 0.417426 0.174320
H2    H     H_    0.834238 0.436312 0.207719 0.124891
H3    H     H_    0.904570 0.466448 0.012363 0.230608
H4    H     H_    0.984127 0.516743 0.127971 0.220370
H5    H     H_    0.045747 0.364765 0.198555 0.261583
H6    H     H_    0.102929 0.382162 0.090526 0.301340
H7    H     H_    0.963466 0.312886 0.083761 0.263927
H8    H     H_    0.560250 0.244340 0.993313 0.156519
H9    H     H_    0.595205 0.288384 0.885779 0.117568
H10   H     H_    0.362121 0.171124 0.898947 0.235396
H11   H     H_    0.380236 0.221150 0.787560 0.210138
H12   H     H_    0.125572 0.449843 0.582547 0.186716
H13   H     H_    0.586773 0.138053 0.802388 0.278806
H14   H     H_    0.455076 0.062738 0.801429 0.275577
H15   H     H_    0.570094 0.087809 0.915146 0.259582
H16   H     H_    0.936436 0.494310 0.638068 0.152660
H17   H     H_    0.063582 0.492976 0.361659 0.150424
H18   H     H_    0.388429 0.213203 0.598642 0.149700
H19   H     H_    0.472471 0.786891 0.348762 0.168940
H20   H     H_    0.876738 0.987363 0.459957 0.172738
H21   H     H_    0.819982 0.024610 0.561550 0.112335
H22   H     H_    0.928909 0.146614 0.423544 0.234238
H23   H     H_    0.418290 0.050699 0.607880 0.175109
H24   H     H_    0.877731 0.184348 0.529137 0.213994
H25   H     H_    0.046129 0.088159 0.636712 0.260998
H26   H     H_    0.114617 0.167607 0.567766 0.264548
H27   H     H_    0.098826 0.051180 0.530759 0.265108
H28   H     H_    0.804226 0.992143 0.750435 0.160096
H29   H     H_    0.802158 0.883274 0.695759 0.118576
H30   H     H_    0.713350 0.928058 0.882523 0.234500
H31   H     H_    0.709695 0.818222 0.827604 0.216639
H32   H     H_    0.948936 0.823901 0.851171 0.265025
H33   H     H_    0.902702 0.835484 0.964815 0.272599
H34   H     H_    0.501343 0.949242 0.358462 0.176881
H35   H     H_    0.952216 0.933288 0.908388 0.262347
H36   H     H_    0.266834 0.603457 0.979547 0.121550
H37   H     H_    0.157992 0.563156 0.049617 0.140581
H38   H     H_    0.149000 0.519670 0.834311 0.219900
H39   H     H_    0.042234 0.472770 0.901015 0.231230
H40   H     H_    0.964660 0.627697 0.928318 0.281472
H41   H     H_    0.941263 0.602428 0.800204 0.269019
H42   H     H_    0.072241 0.674520 0.860854 0.259423
H43   H     H_    0.395541 0.707505 0.913195 0.122517
H44   H     H_    0.515001 0.748908 0.853190 0.132021
H45   H     H_    0.652309 0.231999 0.413747 0.162455
H46   H     H_    0.511758 0.781942 0.067485 0.223539
H47   H     H_    0.634007 0.820609 0.010011 0.231602
H48   H     H_    0.467724 0.908581 0.889372 0.275416
H49   H     H_    0.476034 0.941467 0.013714 0.271340
H50   H     H_    0.345855 0.870831 0.948604 0.267131
H51   H     H_    0.698585 0.530174 0.281675 0.162478
H52   H     H_    0.430289 0.367219 0.741785 0.158041
H53   H     H_    0.579903 0.772457 0.664181 0.155061
H54   H     H_    0.301357 0.470396 0.204056 0.163467
H55   H     H_    0.574472 0.631423 0.770745 0.146825
H56   H     H_    0.753736 0.386615 0.090537 0.129548
N1    N     N_R   0.500000 0.499980 0.252470 -0.122391
N2    N     N_R   0.500000 0.500020 0.747530 -0.120756
O1    O     O_R   0.500010 0.369070 0.579480 -0.626637
O2    O     O_3   0.434080 0.343273 0.929910 -0.602958
O3    O     O_3   0.711796 0.061686 0.420047 -0.657601
O4    O     O_3   0.621370 0.945268 0.693038 -0.664851
O5    O     O_3   0.275422 0.465755 0.012823 -0.610017
O6    O     O_3   0.579531 0.652032 0.960248 -0.603838
O7    O     O_R   0.499990 0.630930 0.420520 -0.608772
O8    O     O_R   0.500010 0.369060 0.420520 -0.608944
O9    O     O_R   0.499990 0.630940 0.579480 -0.626440
O10   O     O_R   0.317810 0.500010 0.549800 -0.607405
O11   O     O_R   0.682190 0.499990 0.450200 -0.624134
O12   O     O_R   0.317810 0.500000 0.390840 -0.619874
O13   O     O_R   0.682190 0.500000 0.609160 -0.606615
O14   O     O_3   0.732360 0.525233 0.102879 -0.601471
Zn1   Zn    Zn3+2 0.500000 0.500010 0.606140 0.935522
Zn2   Zn    Zn3+2 0.500000 0.499990 0.393860 0.940278

loop_
_geom_bond_atom_site_label_1
_geom_bond_atom_site_label_2
_ccdc_geom_bond_type
C7    O10   A    
C20   H45   S    
C41   C42   S    
O9    Zn1   S    
C6    C45   A    
C14   H23   S    
C35   C36   S    
C43   H50   S    
C39   H39   S    
C28   H8    S    
C45   O6    S    
C32   H24   S    
C28   H9    S    
C4    O2    S    
C26   C27   S    
C36   C37   S    
C19   C21   A    
C38   C39   S    
C27   H7    S    
C46   N1    A    
C3    C48   A    
C12   C19   S    
C15   C17   A    
O12   Zn2   S    
C25   H2    S    
C33   H27   S    
O7    Zn2   S    
C29   H11   S    
C41   O6    S    
C10   C13   D    
C40   H41   S    
C15   C34   A    
C12   O9    A    
C21   H53   S    
C23   C34   S    
C45   C47   A    
C2    H52   S    
C30   H15   S    
C7    O12   A    
C37   H33   S    
C44   C46   A    
C8    O11   A    
C15   H34   S    
O13   Zn1   S    
C31   O3    S    
C31   H20   S    
C37   H32   S    
C35   H28   S    
C27   H6    S    
C17   H19   S    
O10   Zn1   S    
C38   H37   S    
C42   H47   S    
C47   H55   S    
C4    C6    A    
C39   C40   S    
C32   H22   S    
C25   C26   S    
C2    N2    A    
C24   C34   A    
C14   C23   A    
C2    C4    A    
O11   Zn2   S    
C29   C30   S    
C26   H4    S    
C46   H54   S    
C48   N1    A    
C47   N2    A    
C43   H48   S    
C1    C18   S    
C24   O4    S    
C16   C18   A    
C9    C11   D    
C35   O4    S    
C1    O1    A    
C13   H1    S    
C33   H25   S    
C41   H43   S    
C5    C44   A    
C20   C22   A    
C30   H14   S    
C14   C16   A    
C30   H13   S    
C16   H18   S    
C1    O8    A    
O1    Zn1   S    
C11   H12   S    
C25   O14   S    
C12   O7    A    
C7    C9    S    
C48   H51   S    
C28   C29   S    
C38   H36   S    
C42   H46   S    
C31   C32   S    
C10   H16   S    
C43   H49   S    
C3    C5    A    
C36   H31   S    
C27   H5    S    
C25   H56   S    
C22   O3    S    
C32   C33   S    
C40   H40   S    
C36   H30   S    
C26   H3    S    
C11   C13   S    
C5    C6    S    
C28   O2    S    
N2    Zn1   S    
C17   C19   A    
C35   H29   S    
N1    Zn2   S    
C18   C20   A    
C9    H17   S    
C3    O14   S    
O8    Zn2   S    
C44   O5    S    
C33   H26   S    
C31   H21   S    
C41   H44   S    
C29   H10   S    
C8    C10   S    
C42   C43   S    
C21   C24   A    
C22   C23   A    
C37   H35   S    
C39   H38   S    
C40   H42   S    
C38   O5    S    
C8    O13   A    
