data_mof_unit_29692.cif
_audit_creation_date              2012-12-10T17:19:24-0500
_audit_creation_method            fapswitch 2.2
_symmetry_space_group_name_H-M    P1
_symmetry_Int_Tables_number       1
_space_group_crystal_system       triclinic
_cell_length_a                    15.080234
_cell_length_b                    10.865346
_cell_length_c                    9.567864
_cell_angle_alpha                 90.427562
_cell_angle_beta                  90.006776
_cell_angle_gamma                 92.585848
_cell_volume                      1566.07316921

loop_
_atom_site_label
_atom_site_type_symbol
_atom_type_description
_atom_site_fract_x
_atom_site_fract_y
_atom_site_fract_z
_atom_type_partial_charge
C1    C     C_R   0.507165 0.263107 0.500259 0.805821
C2    C     C_R   0.907127 0.503945 0.628129 0.109076
C3    C     C_R   0.953782 0.503780 0.245308 -0.210969
C4    C     C_R   0.046218 0.503161 0.245303 -0.212043
C5    C     C_R   0.092914 0.502669 0.372010 0.108933
C6    C     C_R   0.046508 0.503223 0.500064 0.062195
C7    C     C_R   0.092945 0.502923 0.628106 0.109277
C8    C     C_R   0.046276 0.503598 0.754828 -0.212141
C9    C     C_R   0.953833 0.504125 0.754842 -0.211295
C10   C     C_R   0.185277 0.501484 0.372894 -0.245858
C11   C     C_R   0.231699 0.500927 0.500027 -0.077008
C12   C     C_R   0.328628 0.499909 0.500011 0.822672
C13   C     C_R   0.185312 0.501782 0.627186 -0.246979
C14   C     C_R   0.559974 0.123352 0.753884 -0.156985
C15   C     C_R   0.550779 0.065772 0.882947 -0.157561
C16   C     C_R   0.507173 0.950867 0.891245 -0.139796
C17   C     C_R   0.481065 0.888332 0.769245 -0.161858
C18   C     C_R   0.499140 0.939928 0.635710 0.093881
C19   C     C_R   0.525605 0.065798 0.630537 0.096757
C20   C     C_R   0.515337 0.129383 0.502807 -0.120215
C21   C     C_R   0.500741 0.062905 0.378521 -0.211268
C22   C     C_R   0.493253 0.935729 0.380223 -0.212966
C23   C     C_R   0.495311 0.737677 0.501637 0.784013
C24   C     C_R   0.492174 0.872416 0.507279 -0.113380
C25   C     C_R   0.618519 0.663570 0.145568 -0.164320
C26   C     C_R   0.676568 0.743064 0.073725 -0.226863
C27   C     C_R   0.676657 0.742788 0.929758 -0.199115
C28   C     C_R   0.618556 0.663209 0.856829 -0.153583
C29   C     C_R   0.558264 0.580357 0.925724 0.192671
C30   C     C_R   0.558237 0.580413 0.075502 0.208745
C31   C     C_R   0.444813 0.423258 0.073333 -0.075866
C32   C     C_R   0.444832 0.423298 0.925222 -0.072260
C33   C     C_R   0.671365 0.500934 0.500009 0.791463
C34   C     C_R   0.814719 0.503480 0.627232 -0.254053
C35   C     C_R   0.768300 0.502639 0.500057 -0.071525
C36   C     C_R   0.814709 0.503409 0.372907 -0.250005
C37   C     C_R   0.907108 0.503810 0.372021 0.107870
C38   C     C_R   0.953551 0.503771 0.500073 0.062639
Cu1   Cu    Cu3+1 0.499990 0.499990 0.640660 0.919095
Cu2   Cu    Cu3+1 0.500010 0.500010 0.359340 0.928729
H1    H     H_    0.779097 0.503396 0.725687 0.160057
H2    H     H_    0.595702 0.211799 0.752059 0.162252
H3    H     H_    0.575127 0.111982 0.976942 0.136776
H4    H     H_    0.495158 0.908817 0.992138 0.138901
H5    H     H_    0.443903 0.802196 0.783002 0.169382
H6    H     H_    0.486669 0.887033 0.281269 0.164242
H7    H     H_    0.399636 0.360415 0.128279 0.136638
H8    H     H_    0.624195 0.671711 0.255722 0.203491
H9    H     H_    0.721773 0.805505 0.130517 0.156106
H10   H     H_    0.721735 0.805244 0.873819 0.156924
H11   H     H_    0.623567 0.671701 0.746776 0.204286
H12   H     H_    0.779086 0.503286 0.274440 0.161332
H13   H     H_    0.399689 0.360441 0.869147 0.144110
H14   H     H_    0.918809 0.503943 0.146343 0.139379
H15   H     H_    0.081162 0.502877 0.146330 0.136389
H16   H     H_    0.220864 0.500934 0.274435 0.154530
H17   H     H_    0.220930 0.501493 0.725636 0.154056
H18   H     H_    0.918880 0.504409 0.853816 0.139292
H19   H     H_    0.494935 0.109135 0.279205 0.161791
N1    N     N_R   0.500860 0.501210 0.147910 -0.198265
N2    N     N_R   0.500890 0.501290 0.852040 -0.204168
O1    O     O_R   0.499990 0.319640 0.618810 -0.587328
O2    O     O_R   0.500000 0.319660 0.381240 -0.580444
O3    O     O_R   0.370250 0.499960 0.618800 -0.585920
O4    O     O_R   0.370260 0.499980 0.381230 -0.583076
O5    O     O_R   0.500000 0.680340 0.618760 -0.613591
O6    O     O_R   0.500010 0.680360 0.381190 -0.599177
O7    O     O_R   0.629740 0.500020 0.618770 -0.608348
O8    O     O_R   0.629750 0.500040 0.381200 -0.601935
H20   H     H_    0.081246 0.503515 0.853795 0.136392

loop_
_geom_bond_atom_site_label_1
_geom_bond_atom_site_label_2
_ccdc_geom_bond_type
C31   N1    A    
C2    C9    A    
C22   H6    S    
C23   C24   S    
C6    C38   A    
Cu1   O7    S    
C34   H1    S    
C29   C30   A    
Cu2   N1    S    
C10   H16   S    
C12   O4    A    
C16   H4    S    
C8    H20   S    
C19   C20   A    
C36   H12   S    
C27   H10   S    
C33   O8    A    
C11   C12   S    
C1    O1    A    
C2    C34   A    
C17   C18   A    
C25   C26   A    
C15   H3    S    
C5    C10   A    
C21   H19   S    
C31   H7    S    
C21   C22   A    
Cu1   O3    S    
C11   C13   A    
C25   H8    S    
C26   C27   A    
C37   C38   A    
Cu2   O2    S    
C18   C24   A    
C4    C5    A    
C1    O2    A    
C23   O5    A    
C28   C29   A    
C3    H14   S    
C17   H5    S    
C32   N2    A    
C34   C35   A    
C6    C7    A    
C29   N2    A    
Cu2   O4    S    
C4    H15   S    
C5    C6    A    
C12   O3    A    
Cu1   O5    S    
C22   C24   A    
C7    C8    A    
C10   C11   A    
C15   C16   A    
Cu1   Cu2   S    
C16   C17   A    
C32   H13   S    
C7    C13   A    
Cu1   N2    S    
C13   H17   S    
C20   C21   A    
C3    C37   A    
C36   C37   A    
C9    H18   S    
Cu2   O8    S    
C26   H9    S    
C23   O6    A    
C25   C30   A    
Cu1   O1    S    
C2    C38   A    
C14   C15   A    
C18   C19   A    
C1    C20   S    
C33   C35   S    
C28   H11   S    
C14   H2    S    
C14   C19   A    
C31   C32   A    
C3    C4    A    
C35   C36   A    
C33   O7    A    
C8    C9    A    
C27   C28   A    
Cu2   O6    S    
C30   N1    A    
