data_mof_unit_34066.cif
_audit_creation_date              2012-12-11T13:59:59-0500
_audit_creation_method            fapswitch 2.2
_symmetry_space_group_name_H-M    P1
_symmetry_Int_Tables_number       1
_space_group_crystal_system       triclinic
_cell_length_a                    11.256929
_cell_length_b                    11.212784
_cell_length_c                    18.744342
_cell_angle_alpha                 89.482342
_cell_angle_beta                  90.065826
_cell_angle_gamma                 120.033439
_cell_volume                      2048.1735641

loop_
_atom_site_label
_atom_site_type_symbol
_atom_type_description
_atom_site_fract_x
_atom_site_fract_y
_atom_site_fract_z
_atom_type_partial_charge
C1    C     C_R   0.584785 0.446376 0.859976 0.574714
C2    C     C_R   0.476710 0.541990 0.351755 0.589618
C3    C     C_R   0.142372 0.553295 0.356968 0.591336
C4    C     C_R   0.459624 0.940150 0.350185 0.588621
C5    C     C_2   0.017246 0.514546 0.583457 0.302131
C6    C     C_2   0.531884 0.496174 0.574952 0.279254
C7    C     C_2   0.565006 0.147809 0.565198 0.283969
C8    C     C_2   0.511615 0.010055 0.417554 0.283773
C9    C     C_2   0.468798 0.501697 0.424579 0.286922
C10   C     C_2   0.152854 0.562710 0.434602 0.233852
C11   C     C_2   0.091668 0.448538 0.475200 -0.043445
C12   C     C_R   0.521386 0.063121 0.852304 0.595970
C13   C     C_2   0.478638 0.591460 0.474036 -0.055936
C14   C     C_2   0.450598 0.073314 0.448015 -0.003335
C15   C     C_2   0.451543 0.092517 0.525012 -0.015045
C16   C     C_2   0.463815 0.555441 0.549371 -0.089184
C17   C     C_2   0.076952 0.449599 0.552652 -0.077544
C18   C     C_2   0.007289 0.497179 0.920259 -0.095104
C19   C     C_2   0.571628 0.445512 0.937903 -0.127034
C20   C     C_2   0.493785 0.978022 0.915030 -0.102160
C21   C     C_2   0.460309 0.929538 0.066409 -0.105207
C22   C     C_2   0.509169 0.502628 0.079388 -0.093465
C23   C     C_R   0.938842 0.457933 0.851796 0.576845
C24   C     C_2   0.124059 0.555080 0.062285 -0.140736
C25   C     C_2   0.101780 0.645860 0.024054 0.191916
C26   C     C_2   0.451548 0.373656 0.054504 0.220579
C27   C     C_2   0.561206 0.927244 0.028651 0.200346
C28   C     C_2   0.595113 0.990024 0.958154 0.223180
C29   C     C_2   0.463187 0.351170 0.977446 0.204570
C30   C     C_2   0.069105 0.625065 0.946933 0.204393
C31   C     C_R   0.480896 0.541725 0.148270 0.588082
C32   C     C_R   0.137699 0.553467 0.139972 0.555207
C33   C     C_R   0.422959 0.876277 0.138381 0.548218
C34   C     C_R   0.543930 0.481936 0.649185 0.552150
C35   C     C_R   0.553646 0.141484 0.642686 0.586075
C36   C     C_R   0.941322 0.460306 0.649843 0.581722
Cl1   Cl    Cl    0.265846 0.723720 0.472128 -0.608169
Cl2   Cl    Cl    0.773173 0.092365 0.938932 -0.435862
Cl3   Cl    Cl    0.321782 0.204138 0.940272 -0.400993
Cl4   Cl    Cl    0.097501 0.768225 0.893562 -0.455094
Cl5   Cl    Cl    0.375659 0.322206 0.442944 -0.595302
Cl6   Cl    Cl    0.621497 0.964894 0.463885 -0.492740
Cl7   Cl    Cl    0.731194 0.244783 0.527995 -0.473166
Cl8   Cl    Cl    0.659991 0.486048 0.524782 -0.427451
Cl9   Cl    Cl    0.988501 0.638054 0.538833 -0.377730
Cl10  Cl    Cl    0.093220 0.784722 0.063095 -0.397040
Cl11  Cl    Cl    0.350003 0.229967 0.110472 -0.423255
Cl12  Cl    Cl    0.671199 0.870185 0.062038 -0.445365
Cr1   Cr    Cr6+3 0.464030 0.233680 0.750360 1.127329
Cr2   Cr    Cr6+3 0.766320 0.230350 0.750360 1.137412
Cr3   Cr    Cr6+3 0.769650 0.535970 0.750360 1.156475
Cr4   Cr    Cr6+3 0.233680 0.464030 0.249640 1.130964
Cr5   Cr    Cr6+3 0.230350 0.766320 0.249640 1.169256
Cr6   Cr    Cr6+3 0.535970 0.769650 0.249640 1.150665
H1    H     H_    0.039336 0.347415 0.450944 0.187288
H2    H     H_    0.386906 0.912640 0.929989 0.132669
H3    H     H_    0.660006 0.528443 0.964047 0.108524
H4    H     H_    0.990240 0.409855 0.952971 0.132390
H5    H     H_    0.500556 0.693536 0.458964 0.197867
H6    H     H_    0.371640 0.080930 0.418548 0.186254
H7    H     H_    0.350944 0.050640 0.549552 0.169571
H8    H     H_    0.408126 0.587393 0.584344 0.121291
H9    H     H_    0.082401 0.368260 0.581784 0.134700
H10   H     H_    0.136263 0.476751 0.035322 0.096650
H11   H     H_    0.572018 0.589546 0.044912 0.128543
H12   H     H_    0.403575 0.975618 0.043690 0.165437
O1    O     O_R   0.434100 0.092480 0.829780 -0.441479
O2    O     O_R   0.362730 0.477510 0.175360 -0.481209
O3    O     O_R   0.114780 0.637270 0.175360 -0.437370
O4    O     O_R   0.522490 0.885220 0.175360 -0.437236
O5    O     O_R   0.432250 0.092620 0.670380 -0.520449
O6    O     O_R   0.907380 0.339630 0.670380 -0.517694
O7    O     O_R   0.660370 0.567750 0.670380 -0.454980
O8    O     O_R   0.092620 0.432250 0.329620 -0.500267
O9    O     O_R   0.339630 0.907380 0.329620 -0.499557
O10   O     O_R   0.567750 0.660370 0.329620 -0.487750
O11   O     O_R   0.475790 0.362860 0.676880 -0.524300
O12   O     O_R   0.907520 0.341620 0.829780 -0.470001
O13   O     O_R   0.637140 0.112930 0.676880 -0.453030
O14   O     O_R   0.887070 0.524210 0.676880 -0.442864
O15   O     O_R   0.362860 0.475790 0.323120 -0.499337
O16   O     O_R   0.112930 0.637140 0.323120 -0.427700
O17   O     O_R   0.524210 0.887070 0.323120 -0.460353
O18   O     O_3   0.666667 0.333333 0.749450 -0.358372
O19   O     O_3   0.333333 0.666667 0.250550 -0.396148
O20   O     O_R   0.658380 0.565900 0.829780 -0.473101
O21   O     O_R   0.092480 0.434100 0.170220 -0.447815
O22   O     O_R   0.341620 0.907520 0.170220 -0.432905
O23   O     O_R   0.565900 0.658380 0.170220 -0.454271
O24   O     O_R   0.477510 0.362730 0.824640 -0.444130
O25   O     O_R   0.637270 0.114780 0.824640 -0.457976
O26   O     O_R   0.885220 0.522490 0.824640 -0.476071

loop_
_geom_bond_atom_site_label_1
_geom_bond_atom_site_label_2
_ccdc_geom_bond_type
C27   Cl12  S    
C1    O24   A    
C21   H12   S    
C12   O25   A    
Cr1   O24   S    
C20   H2    S    
C2    O10   A    
Cr5   O3    S    
Cr2   O13   S    
Cr2   O18   S    
C19   H3    S    
C10   Cl1   S    
Cr1   O18   S    
Cr4   O19   S    
C33   O22   A    
C8    Cl6   S    
Cr4   O8    S    
C34   O11   A    
C21   C33   S    
C5    C36   S    
C1    O20   A    
C3    O8    A    
C9    C13   D    
Cr3   O14   S    
C4    O9    A    
Cr2   O6    S    
C18   H4    S    
C31   O23   A    
C18   C30   D    
C7    Cl7   S    
Cr4   O2    S    
C4    C8    S    
C7    C15   D    
C21   C27   D    
C35   O5    A    
C24   H10   S    
C6    Cl8   S    
C29   Cl3   S    
Cr5   O9    S    
C16   H8    S    
Cr2   O12   S    
Cr3   O20   S    
Cr6   O17   S    
C31   O2    A    
C12   O1    A    
C1    C19   S    
C22   C31   S    
C18   C23   S    
C24   C25   D    
Cr6   O23   S    
C36   O14   A    
C20   C28   D    
C32   O21   A    
C5    Cl9   S    
C6    C34   S    
Cr5   O16   S    
C24   C32   S    
C22   H11   S    
Cr3   O26   S    
Cr6   O4    S    
C28   Cl2   S    
C12   C20   S    
C3    O16   A    
C15   H7    S    
C30   Cl4   S    
C33   O4    A    
Cr6   O10   S    
C26   Cl11  S    
Cr1   O5    S    
C19   C29   D    
C11   H1    S    
C25   C30   S    
C11   C17   S    
C8    C14   D    
Cr1   O1    S    
C14   C15   S    
C7    C35   S    
Cr4   O21   S    
Cr3   O7    S    
Cr6   O19   S    
C32   O3    A    
C13   H5    S    
C14   H6    S    
C9    Cl5   S    
C3    C10   S    
C17   H9    S    
C4    O17   A    
Cr3   O18   S    
C35   O13   A    
Cr1   O11   S    
Cr5   O22   S    
C23   O12   A    
Cr4   O15   S    
C10   C11   D    
C34   O7    A    
C6    C16   D    
Cr2   O25   S    
C5    C17   D    
C26   C29   S    
C22   C26   D    
C13   C16   S    
C27   C28   S    
C23   O26   A    
C2    O15   A    
Cr5   O19   S    
C2    C9    S    
C25   Cl10  S    
C36   O6    A    
