data_mof_unit_30494.cif
_audit_creation_date              2012-12-10T18:42:58-0500
_audit_creation_method            fapswitch 2.2
_symmetry_space_group_name_H-M    P1
_symmetry_Int_Tables_number       1
_space_group_crystal_system       triclinic
_cell_length_a                    18.075058
_cell_length_b                    18.056401
_cell_length_c                    18.091225
_cell_angle_alpha                 119.906591
_cell_angle_beta                  89.997247
_cell_angle_gamma                 60.012974
_cell_volume                      4181.67356997

loop_
_atom_site_label
_atom_site_type_symbol
_atom_type_description
_atom_site_fract_x
_atom_site_fract_y
_atom_site_fract_z
_atom_type_partial_charge
C1    C     C_R   0.891670 0.216672 0.608508 0.775320
C2    C     C_3   0.551397 0.897942 0.948896 0.059110
C3    C     C_3   0.412727 0.033851 0.016741 -0.132604
C4    C     C_3   0.587218 0.966164 0.983143 -0.133732
C5    C     C_3   0.044811 0.403258 0.483041 -0.339321
C6    C     C_3   0.955811 0.596187 0.516819 -0.330787
C7    C     C_3   0.076501 0.475949 0.517819 0.562981
C8    C     C_3   0.924221 0.523488 0.482046 0.577213
C9    C     C_3   0.050843 0.499653 0.448062 -0.064412
C10   C     C_3   0.949661 0.499870 0.551866 -0.069470
C11   C     C_3   0.018448 0.427344 0.412145 -0.285986
C12   C     C_R   0.108406 0.783324 0.391499 0.775673
C13   C     C_3   0.982212 0.572152 0.587785 -0.291952
C14   C     C_3   0.921833 0.035056 0.482649 -0.175127
C15   C     C_3   0.078405 0.964919 0.517402 -0.175541
C16   C     C_R   0.608455 0.783319 0.891619 0.774446
C17   C     C_R   0.391536 0.216684 0.108341 0.774756
C18   C     C_3   0.956980 0.964720 0.517231 -0.185125
C19   C     C_3   0.043248 0.035272 0.482828 -0.184589
C20   C     C_3   0.051160 0.897936 0.448505 0.058922
C21   C     C_3   0.949057 0.102052 0.551541 0.058325
C22   C     C_3   0.016907 0.966499 0.412981 -0.132091
C23   C     C_3   0.553823 0.426350 0.412350 -0.281098
C24   C     C_3   0.983322 0.033492 0.587074 -0.132803
C25   C     C_3   0.983022 0.429645 0.983092 -0.133258
C26   C     C_3   0.017022 0.570328 0.016883 -0.133609
C27   C     C_3   0.956727 0.525740 0.078073 -0.183337
C28   C     C_3   0.043316 0.474237 0.921902 -0.183757
C29   C     C_3   0.051018 0.500389 0.051040 0.060880
C30   C     C_3   0.949022 0.499584 0.948933 0.060754
C31   C     C_3   0.078207 0.404364 0.956954 -0.178755
C32   C     C_3   0.921838 0.595608 0.043019 -0.179064
C33   C     C_3   0.587234 0.429621 0.983060 -0.133477
C34   C     C_3   0.445875 0.573692 0.587932 -0.291461
C35   C     C_3   0.412742 0.570271 0.016809 -0.132098
C36   C     C_3   0.517310 0.404319 0.956917 -0.181933
C37   C     C_3   0.482663 0.595575 0.042953 -0.181977
C38   C     C_3   0.448574 0.500356 0.050987 0.057917
C39   C     C_3   0.551406 0.499541 0.948888 0.057783
C40   C     C_R   0.608425 0.499850 0.891618 0.777625
C41   C     C_R   0.391572 0.500108 0.108336 0.778301
C42   C     C_3   0.517536 0.525722 0.078019 -0.178955
C43   C     C_3   0.482442 0.474171 0.921845 -0.178415
C44   C     C_R   0.891790 0.499988 0.608574 0.837738
C45   C     C_3   0.482494 0.965301 0.921806 -0.182004
C46   C     C_R   0.108347 0.499887 0.391400 0.840940
C47   C     C_R   0.891725 0.499836 0.891638 0.772191
C48   C     C_R   0.108288 0.500154 0.108353 0.772579
C49   C     C_R   0.608270 0.500110 0.608563 0.847409
C50   C     C_R   0.391691 0.499857 0.391469 0.848859
C51   C     C_3   0.555394 0.521873 0.479575 -0.332985
C52   C     C_3   0.444261 0.478255 0.520636 -0.328078
C53   C     C_3   0.451061 0.592715 0.514643 0.557765
C54   C     C_3   0.548593 0.407469 0.485668 0.573321
C55   C     C_3   0.449206 0.499090 0.448377 -0.068755
C56   C     C_3   0.517450 0.034706 0.078074 -0.181904
C57   C     C_3   0.550571 0.500985 0.551831 -0.072921
C58   C     C_3   0.411462 0.761066 0.590004 0.076139
C59   C     C_3   0.348855 0.866224 0.603547 -0.308676
C60   C     C_3   0.362603 0.947616 0.673329 -0.995421
C61   C     C_3   0.582513 0.240844 0.417192 0.074720
C62   C     C_3   0.536671 0.224666 0.473345 -0.342135
C63   C     C_3   0.510619 0.150991 0.415232 -0.990121
C64   C     C_3   0.167373 0.433608 0.599133 0.077347
C65   C     C_3   0.260064 0.403248 0.609965 -0.314742
C66   C     C_3   0.272221 0.382555 0.682717 -0.993734
C67   C     C_3   0.517363 0.035306 0.956948 -0.178675
C68   C     C_3   0.833754 0.566817 0.399460 0.072637
C69   C     C_3   0.757413 0.681308 0.441424 -0.338318
C70   C     C_3   0.745572 0.704922 0.370471 -0.985082
C71   C     C_3   0.482579 0.964708 0.042935 -0.178853
C72   C     C_3   0.448558 0.102066 0.050991 0.059601
H1    H     H_    0.922739 0.933610 0.530195 0.131663
H2    H     H_    0.031865 0.628071 0.031635 0.144025
H3    H     H_    0.143355 0.326033 0.922802 0.132149
H4    H     H_    0.856688 0.673932 0.077167 0.130858
H5    H     H_    0.530379 0.325995 0.922787 0.130465
H6    H     H_    0.469589 0.673902 0.077083 0.130775
H7    H     H_    0.659738 0.371890 0.968323 0.144853
H8    H     H_    0.340237 0.627997 0.031541 0.145235
H9    H     H_    0.530795 0.546848 0.143092 0.134775
H10   H     H_    0.469173 0.453045 0.856774 0.133898
H11   H     H_    0.600900 0.540615 0.464703 0.161144
H12   H     H_    0.077488 0.066384 0.469866 0.130513
H13   H     H_    0.398206 0.460018 0.535195 0.154535
H14   H     H_    0.596783 0.364953 0.340194 0.167999
H15   H     H_    0.402985 0.634260 0.660172 0.165817
H16   H     H_    0.530501 0.066424 0.922826 0.130485
H17   H     H_    0.469434 0.933598 0.077062 0.131002
H18   H     H_    0.469247 0.934722 0.856707 0.130611
H19   H     H_    0.530634 0.065337 0.143200 0.130244
H20   H     H_    0.340223 0.063389 0.031407 0.145370
H21   H     H_    0.659721 0.936629 0.968470 0.145004
H22   H     H_    0.080148 0.325435 0.471261 0.149709
H23   H     H_    0.856587 0.065989 0.469542 0.142032
H24   H     H_    0.920551 0.673787 0.528193 0.149836
H25   H     H_    0.032600 0.369941 0.339887 0.165488
H26   H     H_    0.967458 0.630048 0.660070 0.164170
H27   H     H_    0.482895 0.733231 0.566206 0.132853
H28   H     H_    0.396898 0.772711 0.656194 0.138897
H29   H     H_    0.362667 0.856183 0.538146 0.220492
H30   H     H_    0.277216 0.894691 0.626696 0.223760
H31   H     H_    0.347663 0.960215 0.739746 0.263856
H32   H     H_    0.316165 0.022988 0.681660 0.264918
H33   H     H_    0.433430 0.921618 0.650737 0.263829
H34   H     H_    0.143650 0.933997 0.530529 0.135269
H35   H     H_    0.646694 0.164554 0.365675 0.161328
H36   H     H_    0.539231 0.265719 0.379040 0.121724
H37   H     H_    0.583602 0.191291 0.504739 0.226947
H38   H     H_    0.474778 0.301013 0.528389 0.215683
H39   H     H_    0.461854 0.184231 0.385012 0.263758
H40   H     H_    0.478187 0.140383 0.457813 0.268923
H41   H     H_    0.571725 0.073415 0.360386 0.264889
H42   H     H_    0.161079 0.368700 0.580660 0.128584
H43   H     H_    0.113976 0.505939 0.664753 0.140405
H44   H     H_    0.313900 0.331591 0.544609 0.230155
H45   H     H_    0.031574 0.937245 0.340648 0.146070
H46   H     H_    0.267479 0.467297 0.628495 0.224928
H47   H     H_    0.219911 0.453775 0.749091 0.265604
H48   H     H_    0.340139 0.360763 0.688707 0.265864
H49   H     H_    0.266926 0.317258 0.664599 0.262775
H50   H     H_    0.816509 0.516424 0.347782 0.164203
H51   H     H_    0.897300 0.547594 0.363003 0.120927
H52   H     H_    0.692984 0.698976 0.473334 0.226083
H53   H     H_    0.772899 0.732618 0.494696 0.213602
H54   H     H_    0.808664 0.689900 0.339027 0.258566
H55   H     H_    0.689582 0.788386 0.402973 0.267278
H56   H     H_    0.968662 0.062745 0.659407 0.145774
H57   H     H_    0.728688 0.655535 0.317099 0.264616
H58   H     H_    0.922347 0.546875 0.143157 0.129997
H59   H     H_    0.077712 0.453150 0.856851 0.129969
H60   H     H_    0.968190 0.371890 0.968330 0.144252
O1    O     O_3   0.750010 0.499980 0.749990 -0.482807
O2    O     O_R   0.305750 0.265450 0.132730 -0.646779
O3    O     O_R   0.867280 0.265410 0.571220 -0.636404
O4    O     O_R   0.132720 0.734590 0.428780 -0.637047
O5    O     O_R   0.571230 0.734580 0.867270 -0.645043
O6    O     O_R   0.428770 0.265420 0.132730 -0.645270
O7    O     O_R   0.694200 0.438470 0.867270 -0.648856
O8    O     O_R   0.305800 0.561530 0.132730 -0.648752
O9    O     O_R   0.867340 0.561470 0.694210 -0.659540
O10   O     O_R   0.132660 0.438530 0.305790 -0.660305
O11   O     O_R   0.867310 0.438430 0.867270 -0.649435
O12   O     O_3   0.249990 0.500020 0.250010 -0.483115
O13   O     O_R   0.132690 0.561570 0.132730 -0.649303
O14   O     O_R   0.694200 0.438520 0.571220 -0.613220
O15   O     O_R   0.305800 0.561480 0.428780 -0.614125
O16   O     O_R   0.867340 0.561440 0.867270 -0.645575
O17   O     O_R   0.132660 0.438560 0.132730 -0.645436
O18   O     O_R   0.571190 0.561530 0.694210 -0.659600
O19   O     O_R   0.428810 0.438470 0.305790 -0.659382
O20   O     O_3   0.395704 0.689141 0.525428 -0.647232
O21   O     O_3   0.604577 0.310397 0.473700 -0.650017
O22   O     O_3   0.160554 0.451040 0.530900 -0.645999
O23   O     O_R   0.571190 0.561490 0.867270 -0.640834
O24   O     O_3   0.840956 0.547768 0.467012 -0.649132
O25   O     O_R   0.428810 0.438510 0.132730 -0.640738
O26   O     O_R   0.867310 0.438490 0.571220 -0.621729
O27   O     O_R   0.132690 0.561510 0.428780 -0.621291
O28   O     O_R   0.867280 0.265380 0.694210 -0.651359
O29   O     O_R   0.132720 0.734620 0.305790 -0.651243
O30   O     O_R   0.694250 0.734550 0.867270 -0.647213
Zn1   Zn    Zn3+2 0.618190 0.587870 0.793920 0.961117
Zn2   Zn    Zn3+2 0.381810 0.412130 0.206080 0.962232
Zn3   Zn    Zn3+2 0.793940 0.412090 0.793920 0.953012
Zn4   Zn    Zn3+2 0.206060 0.587910 0.206080 0.953907
Zn5   Zn    Zn3+2 0.793970 0.587840 0.793920 0.952220
Zn6   Zn    Zn3+2 0.206030 0.412160 0.206080 0.953663
Zn7   Zn    Zn3+2 0.793940 0.412130 0.618200 0.998508
Zn8   Zn    Zn3+2 0.206060 0.587870 0.381800 0.998571

loop_
_geom_bond_atom_site_label_1
_geom_bond_atom_site_label_2
_ccdc_geom_bond_type
C70   H55   S    
C25   C31   S    
C22   H45   S    
C1    C21   S    
O27   Zn8   S    
C64   O22   S    
C26   C29   S    
C27   C29   S    
C44   O26   A    
C14   C18   S    
C2    C4    S    
C16   O5    A    
C54   O21   S    
C5    H22   S    
C46   O10   A    
C26   C32   S    
O18   Zn1   S    
C62   H37   S    
C67   H16   S    
C33   C39   S    
C49   O18   A    
O12   Zn6   S    
C18   C24   S    
C33   C42   S    
C14   C21   S    
C52   H13   S    
C35   C37   S    
C5    C11   S    
C36   H5    S    
O1    Zn5   S    
C40   O7    A    
O12   Zn8   S    
C35   H8    S    
C63   H40   S    
C33   C36   S    
C49   C57   S    
C67   C72   S    
C37   C42   S    
O7    Zn3   S    
C61   H36   S    
O1    Zn7   S    
O11   Zn3   S    
C41   O8    A    
C12   O29   A    
C15   C19   S    
C31   H3    S    
C50   O19   A    
C56   H19   S    
C52   C54   S    
C68   C69   S    
C56   C72   S    
C23   H14   S    
C62   H38   S    
C45   C67   S    
C34   C57   S    
C65   H46   S    
C40   O23   A    
C17   O6    A    
C51   C57   S    
C60   H31   S    
C35   C43   S    
O29   Zn4   S    
O15   Zn8   S    
C70   H54   S    
C69   H53   S    
C9    C46   S    
C64   H43   S    
C66   H48   S    
C48   O17   A    
O12   Zn2   S    
C61   C62   S    
C42   H9    S    
C6    C9    S    
C8    O24   S    
O1    Zn1   S    
C68   H51   S    
C58   O20   S    
O13   Zn4   S    
C53   C55   S    
C2    C45   S    
O8    Zn4   S    
C15   C20   S    
O9    Zn5   S    
C64   H42   S    
C29   C48   S    
C10   C44   S    
C59   H29   S    
C30   C47   S    
C19   C22   S    
C58   H28   S    
C38   C41   S    
C68   H50   S    
C39   C40   S    
O5    Zn1   S    
C33   H7    S    
C6    C8    S    
C69   H52   S    
C16   O30   A    
C58   C59   S    
C3    C45   S    
C70   H57   S    
C4    H21   S    
O12   Zn4   S    
C3    H20   S    
C51   C53   S    
C3    C71   S    
C50   O15   A    
C62   C63   S    
O1    Zn3   S    
C53   O20   S    
C23   C51   S    
C71   H17   S    
C7    C13   S    
C56   C71   S    
C48   O13   A    
C12   C20   S    
C66   H49   S    
O28   Zn3   S    
C45   H18   S    
C9    C11   S    
O25   Zn2   S    
C2    C71   S    
C17   C72   S    
C41   O25   A    
C8    C10   S    
C15   C24   S    
O4    Zn8   S    
O19   Zn2   S    
C18   H1    S    
C6    H24   S    
C66   H47   S    
C65   H44   S    
O2    Zn6   S    
O14   Zn7   S    
C19   H12   S    
C51   H11   S    
C14   H23   S    
C2    C16   S    
C15   H34   S    
C23   C54   S    
C5    C7    S    
C44   O9    A    
C25   C30   S    
C7    C9    S    
C47   O16   A    
C19   C21   S    
C27   C32   S    
C59   H30   S    
C34   C52   S    
C28   C31   S    
C58   H27   S    
C47   O11   A    
C20   C22   S    
C68   O24   S    
C10   C13   S    
C61   O21   S    
C32   H4    S    
C4    C67   S    
C39   C43   S    
C52   C55   S    
O26   Zn7   S    
C23   C55   S    
O16   Zn5   S    
C25   C27   S    
C37   H6    S    
C26   C28   S    
C50   C55   S    
C13   H26   S    
C11   H25   S    
C28   H59   S    
O23   Zn1   S    
C64   C65   S    
C14   C22   S    
C28   C30   S    
C3    C72   S    
C5    C10   S    
C29   C31   S    
C1    O3    A    
C6    C13   S    
C30   C32   S    
C1    O28   A    
C7    O22   S    
C8    C11   S    
C46   O27   A    
C36   C38   S    
C26   H2    S    
C49   O14   A    
C18   C20   S    
C34   H15   S    
O3    Zn7   S    
C63   H39   S    
C69   C70   S    
C61   H35   S    
O10   Zn6   S    
O30   Zn5   S    
C63   H41   S    
C38   C42   S    
C59   C60   S    
C34   C53   S    
C37   C39   S    
C65   C66   S    
C12   O4    A    
C21   C24   S    
C17   O2    A    
C24   H56   S    
C27   H58   S    
O17   Zn6   S    
C35   C38   S    
C36   C43   S    
O6    Zn2   S    
C60   H32   S    
C25   H60   S    
C4    C56   S    
C60   H33   S    
C43   H10   S    
C54   C57   S    
