data_mof_unit_25345.cif
_audit_creation_date              2012-12-10T17:47:02-0500
_audit_creation_method            fapswitch 2.2
_symmetry_space_group_name_H-M    P1
_symmetry_Int_Tables_number       1
_space_group_crystal_system       triclinic
_cell_length_a                    9.891119
_cell_length_b                    10.736192
_cell_length_c                    13.621067
_cell_angle_alpha                 91.616612
_cell_angle_beta                  83.077162
_cell_angle_gamma                 89.455231
_cell_volume                      1435.2227465

loop_
_atom_site_label
_atom_site_type_symbol
_atom_type_description
_atom_site_fract_x
_atom_site_fract_y
_atom_site_fract_z
_atom_type_partial_charge
C1    C     C_R   0.500044 0.739563 0.490829 0.887227
C2    C     C_1   0.457306 0.502186 0.789519 -0.185685
C3    C     C_R   0.243983 0.888951 0.474276 -0.138197
C4    C     C_R   0.121837 0.949603 0.509776 -0.154076
C5    C     C_R   0.123963 0.061637 0.562978 -0.157834
C6    C     C_R   0.248017 0.118659 0.571867 -0.136961
C7    C     C_R   0.372045 0.063191 0.527422 0.097483
C8    C     C_R   0.370973 0.939766 0.492503 0.038595
C9    C     C_R   0.497107 0.872946 0.478550 -0.253485
C10   C     C_R   0.621378 0.936948 0.469010 0.485885
C11   C     C_R   0.619725 0.063691 0.486286 -0.320835
C12   C     C_R   0.475687 0.500500 0.685691 0.877223
C13   C     C_R   0.496807 0.127228 0.513852 -0.200516
C14   C     C_R   0.837770 0.665802 0.628642 -0.097828
C15   C     C_R   0.897382 0.746153 0.692315 -0.202848
C16   C     C_R   0.037082 0.744095 0.693303 -0.191074
C17   C     C_R   0.118077 0.662380 0.630024 -0.153747
C18   C     C_R   0.061319 0.580672 0.563778 0.141246
C19   C     C_R   0.916655 0.581436 0.563383 0.170151
C20   C     C_R   0.939291 0.422143 0.439405 -0.136780
C21   C     C_R   0.082551 0.422279 0.439354 -0.110927
C22   C     C_R   0.498800 0.260529 0.507917 0.909156
C23   C     C_R   0.524334 0.500073 0.314318 0.886201
C24   C     C_1   0.542846 0.503593 0.210638 -0.190771
C25   C     C_2   0.558822 0.510146 0.019144 -0.164431
C26   C     C_2   0.441555 0.505367 0.981295 -0.162112
C27   C     C_1   0.445450 0.503809 0.877361 0.002536
C28   C     C_1   0.554936 0.506998 0.122946 0.000411
H1    H     H_    0.344222 0.500538 0.027517 0.157555
H2    H     H_    0.729914 0.672801 0.633407 0.202766
H3    H     H_    0.834516 0.810118 0.741488 0.151000
H4    H     H_    0.083228 0.806597 0.743041 0.156009
H5    H     H_    0.224521 0.666314 0.634840 0.210824
H6    H     H_    0.145351 0.358689 0.389942 0.153661
H7    H     H_    0.656236 0.514377 0.972957 0.158172
H8    H     H_    0.236852 0.804491 0.430318 0.167406
H9    H     H_    0.025627 0.907936 0.498198 0.176279
H10   H     H_    0.029493 0.106230 0.594753 0.145057
H11   H     H_    0.245638 0.205554 0.614213 0.157621
H12   H     H_    0.715889 0.112103 0.476380 0.180992
H13   H     H_    0.894177 0.358532 0.390021 0.144111
N1    N     N_R   0.857120 0.501200 0.500900 -0.122047
N2    N     N_R   0.142720 0.501280 0.500940 -0.123741
O1    O     O_R   0.385310 0.683220 0.500000 -0.656513
O2    O     O_R   0.614640 0.683250 0.500010 -0.586949
O3    O     O_R   0.368830 0.499960 0.640340 -0.634537
O4    O     O_R   0.598160 0.499980 0.640350 -0.630281
O5    O     O_R   0.385360 0.316750 0.499990 -0.622767
O6    O     O_R   0.614690 0.316780 0.500000 -0.617442
O7    O     O_R   0.401840 0.500020 0.359650 -0.608626
O8    O     O_R   0.631170 0.500040 0.359660 -0.622709
Zn1   Zn    Zn3+2 0.346870 0.499980 0.499990 0.919107
Zn2   Zn    Zn3+2 0.653130 0.500020 0.500010 0.935662
O9    O     O_3   0.745901 0.875612 0.448269 -0.632829
C29   C     C_3   0.797580 0.889188 0.347568 0.042568
H14   H     H_    0.909916 0.897910 0.343390 0.155874
H15   H     H_    0.759939 0.974712 0.314039 0.124037
C30   C     C_3   0.765897 0.773283 0.286873 -0.291822
H16   H     H_    0.808062 0.689460 0.319063 0.251070
H17   H     H_    0.653796 0.763470 0.289730 0.201135
C31   C     C_3   0.827401 0.781149 0.179056 -0.979646
H18   H     H_    0.785052 0.863237 0.144753 0.265680
H19   H     H_    0.802504 0.695677 0.137404 0.272085
H20   H     H_    0.939934 0.788786 0.173966 0.263230

loop_
_geom_bond_atom_site_label_1
_geom_bond_atom_site_label_2
_ccdc_geom_bond_type
C8    C9    A    
C31   H20   S    
O7    Zn1   S    
C23   C24   S    
C15   H3    S    
C6    C7    A    
C21   H6    S    
C16   H4    S    
C24   C28   T    
C9    C10   A    
C1    O1    A    
C23   O8    A    
C14   C15   A    
C19   N1    A    
O4    Zn2   S    
C29   H14   S    
C2    C12   S    
O1    Zn1   S    
C30   C31   S    
C12   O4    A    
C17   C18   A    
C25   C26   D    
O2    Zn2   S    
C7    C8    A    
C21   N2    A    
C18   N2    A    
C20   C21   A    
C25   C28   S    
C20   N1    A    
C11   C13   A    
C1    O2    A    
C26   C27   S    
C2    C27   T    
C17   H5    S    
C3    H8    S    
C14   H2    S    
C22   O6    A    
O6    Zn2   S    
C5    C6    A    
C25   H7    S    
C13   C22   S    
C20   H13   S    
C29   H15   S    
N1    Zn2   S    
C31   H18   S    
C10   O9    S    
N2    Zn1   S    
C10   C11   A    
C30   H17   S    
C11   H12   S    
O3    Zn1   S    
C22   O5    A    
O5    Zn1   S    
C1    C9    S    
C4    H9    S    
C26   H1    S    
C12   O3    A    
C3    C8    A    
C29   C30   S    
C6    H11   S    
O9    C29   S    
C18   C19   A    
C23   O7    A    
C7    C13   A    
C30   H16   S    
C5    H10   S    
C4    C5    A    
C14   C19   A    
C31   H19   S    
C3    C4    A    
C15   C16   A    
C16   C17   A    
O8    Zn2   S    
