data_mof_unit_49400.cif
_audit_creation_date              2012-12-10T16:52:10-0500
_audit_creation_method            fapswitch 2.2
_symmetry_space_group_name_H-M    P1
_symmetry_Int_Tables_number       1
_space_group_crystal_system       triclinic
_cell_length_a                    7.776325
_cell_length_b                    8.563703
_cell_length_c                    14.852547
_cell_angle_alpha                 90.984225
_cell_angle_beta                  86.01593
_cell_angle_gamma                 93.645925
_cell_volume                      984.624448476

loop_
_atom_site_label
_atom_site_type_symbol
_atom_type_description
_atom_site_fract_x
_atom_site_fract_y
_atom_site_fract_z
_atom_type_partial_charge
C1    C     C_R   0.545740 0.794673 0.497671 0.955695
C2    C     C_R   0.552064 0.637826 0.812649 -0.266966
C3    C     C_R   0.492464 0.501207 0.232267 -0.033461
C4    C     C_R   0.507536 0.498792 0.767733 -0.033461
C5    C     C_R   0.538206 0.640113 0.186948 -0.257007
C6    C     C_R   0.461794 0.359887 0.813051 -0.257007
C7    C     C_R   0.540720 0.641092 0.093664 0.125643
C8    C     C_R   0.459280 0.358908 0.906336 0.125643
C9    C     C_R   0.497815 0.500379 0.046896 0.056378
C10   C     C_R   0.502185 0.499621 0.953104 0.056378
C11   C     C_R   0.451003 0.360325 0.094021 0.129022
C12   C     C_R   0.454260 0.205327 0.502329 0.955696
C13   C     C_R   0.548997 0.639675 0.905979 0.129022
C14   C     C_R   0.586395 0.779452 0.046540 -0.219066
C15   C     C_R   0.413605 0.220548 0.953460 -0.219066
C16   C     C_R   0.590435 0.778764 0.952814 -0.218594
C17   C     C_R   0.409565 0.221236 0.047186 -0.218594
C18   C     C_2   0.569816 0.958216 0.496289 -0.384677
C19   C     C_2   0.430184 0.041784 0.503711 -0.384677
C20   C     C_R   0.502416 0.499941 0.672726 0.881207
C21   C     C_R   0.497584 0.500059 0.327274 0.881207
C22   C     C_R   0.447935 0.362174 0.187351 -0.266966
H1    H     H_    0.572470 0.746211 0.224446 0.131495
H2    H     H_    0.986465 0.617476 0.567919 0.193558
H3    H     H_    0.413746 0.255957 0.225122 0.129152
H4    H     H_    0.586253 0.744043 0.774878 0.129152
H5    H     H_    0.427530 0.253788 0.775554 0.131495
H6    H     H_    0.619054 0.887699 0.082104 0.150434
H7    H     H_    0.380945 0.112300 0.917896 0.150434
H8    H     H_    0.625823 0.886579 0.917004 0.150787
H9    H     H_    0.374177 0.113421 0.082996 0.150787
H10   H     H_    0.701671 0.009268 0.489216 0.182259
H11   H     H_    0.298329 0.990732 0.510784 0.182259
H12   H     H_    0.013535 0.382524 0.432081 0.193558
N1    N     N_2   0.950330 0.457950 0.475660 -0.172451
N2    N     N_2   0.049670 0.542050 0.524340 -0.172451
O1    O     O_R   0.389250 0.738570 0.505970 -0.613188
O2    O     O_R   0.610750 0.261430 0.494030 -0.613188
O3    O     O_R   0.678390 0.711620 0.490370 -0.631921
O4    O     O_R   0.321610 0.288380 0.509630 -0.631922
O5    O     O_R   0.355420 0.513510 0.639950 -0.612013
O6    O     O_R   0.644580 0.486490 0.360050 -0.612013
O7    O     O_R   0.644560 0.486560 0.624350 -0.623710
O8    O     O_R   0.355440 0.513440 0.375650 -0.623710
Zn1   Zn    Zn3+2 0.306940 0.517990 0.510420 0.947424
Zn2   Zn    Zn3+2 0.693060 0.482010 0.489580 0.947425

loop_
_geom_bond_atom_site_label_1
_geom_bond_atom_site_label_2
_ccdc_geom_bond_type
C12   O4    A    
C2    C4    A    
C15   C17   A    
C21   O8    A    
C9    C10   A    
C11   C22   A    
N1    N2    D    
C5    H1    S    
C1    O1    A    
C20   O5    A    
N2    Zn1   S    
C2    H4    S    
C9    C11   A    
C1    C18   S    
H2    N2    S    
O3    Zn2   S    
C12   C19   S    
C8    C10   A    
C15   H7    S    
C8    C15   A    
C5    C7    A    
C12   O2    A    
O4    Zn1   S    
C17   H9    S    
O7    Zn2   S    
C14   C16   A    
C3    C21   S    
O2    Zn2   S    
C1    O3    A    
O1    Zn1   S    
C21   O6    A    
C4    C20   S    
C20   O7    A    
C18   H10   S    
O8    Zn1   S    
C4    C6    A    
H12   N1    S    
O6    Zn2   S    
C13   C16   A    
C7    C9    A    
C2    C13   A    
O5    Zn1   S    
C18   C19   D    
C3    C22   A    
C6    C8    A    
C14   H6    S    
N1    Zn2   S    
C16   H8    S    
C22   H3    S    
C7    C14   A    
C11   C17   A    
C6    H5    S    
C19   H11   S    
C3    C5    A    
C10   C13   A    
