data_mof_unit_27424.cif
_audit_creation_date              2013-03-05T15:39:32-0500
_audit_creation_method            fapswitch 2.2
_symmetry_space_group_name_H-M    P1
_symmetry_Int_Tables_number       1
_space_group_crystal_system       triclinic
_cell_length_a                    19.808098
_cell_length_b                    17.082303
_cell_length_c                    15.487115
_cell_angle_alpha                 90.07109
_cell_angle_beta                  54.218862
_cell_angle_gamma                 90.016095
_cell_volume                      4251.25766005

loop_
_atom_site_label
_atom_site_type_symbol
_atom_site_description
_atom_site_fract_x
_atom_site_fract_y
_atom_site_fract_z
_atom_type_partial_charge
C1    C     C_R   0.339922 0.172175 0.051343 -0.038027
C2    C     C_R   0.372240 0.803568 0.002696 0.001322
C3    C     C_R   0.840501 0.673108 0.049945 -0.047508
C4    C     C_R   0.873485 0.302864 0.000798 -0.092547
H1    H     H_    0.327420 0.217889 0.106536 0.143013
H2    H     H_    0.383888 0.751387 0.029990 0.210088
H3    H     H_    0.828783 0.720086 0.103250 0.146770
H4    H     H_    0.886109 0.250282 0.026385 0.233569
N1    N     N_R   0.408680 0.130160 0.995800 -0.060194
N2    N     N_R   0.408680 0.869840 0.995800 -0.099581
N3    N     N_R   0.908680 0.630160 0.995800 -0.061390
N4    N     N_R   0.908680 0.369840 0.995800 -0.102967
C5    C     C_R   0.359683 0.819854 0.219003 0.064194
C6    C     C_R   0.399246 0.198783 0.206811 -0.105016
C7    C     C_R   0.864837 0.316108 0.217054 -0.051468
C8    C     C_R   0.896360 0.697821 0.208126 -0.104357
H5    H     H_    0.344874 0.766128 0.196854 0.144539
H6    H     H_    0.389969 0.251556 0.178010 0.174819
H7    H     H_    0.841415 0.272949 0.191189 0.190493
H8    H     H_    0.888820 0.750555 0.178167 0.187474
N5    N     N_R   0.421680 0.867580 0.153120 -0.060189
N6    N     N_R   0.421680 0.132420 0.153120 -0.048015
N7    N     N_R   0.921680 0.367580 0.153120 -0.053764
N8    N     N_R   0.921680 0.632420 0.153120 -0.052354
C9    C     C_R   0.360156 0.886345 0.904633 0.536948
C10   C     C_R   0.336468 0.096168 0.938623 0.562696
C11   C     C_R   0.859524 0.385943 0.905276 0.529861
C12   C     C_R   0.836421 0.595832 0.938689 0.570712
N9    N     N_R   0.403730 0.921770 0.935950 -0.114518
N10   N     N_R   0.403730 0.078230 0.935950 -0.131795
N11   N     N_R   0.903730 0.421770 0.935950 -0.118852
N12   N     N_R   0.903730 0.578230 0.935950 -0.129844
C13   C     C_R   0.410926 0.109703 0.300099 -0.133667
C14   C     C_R   0.365069 0.916419 0.313907 -0.190569
C15   C     C_R   0.905218 0.607786 0.303624 -0.129274
C16   C     C_R   0.883066 0.400653 0.312799 -0.108440
H9    H     H_    0.414562 0.078568 0.357518 0.153152
H10   H     H_    0.356107 0.953529 0.376268 0.105673
H11   H     H_    0.904112 0.575503 0.364034 0.152329
H12   H     H_    0.884555 0.429482 0.373724 0.122111
N13   N     N_R   0.426630 0.075970 0.212960 -0.060583
N14   N     N_R   0.426630 0.924030 0.212960 -0.055630
N15   N     N_R   0.926630 0.575970 0.212960 -0.070295
N16   N     N_R   0.926630 0.424030 0.212960 -0.061126
C17   C     C_R   0.294067 0.154411 0.014268 0.001695
C18   C     C_R   0.342195 0.810046 0.943600 0.012986
C19   C     C_R   0.794515 0.654892 0.013110 -0.003829
C20   C     C_R   0.843047 0.309393 0.942169 0.027999
C21   C     C_R   0.321822 0.850264 0.320559 0.176938
C22   C     C_R   0.391834 0.187855 0.300145 0.195995
C23   C     C_R   0.840912 0.333193 0.318258 0.073443
C24   C     C_R   0.884037 0.685250 0.304084 0.209069
C25   C     C_R   0.662320 0.174539 0.952698 -0.185734
C26   C     C_R   0.651235 0.814357 0.971810 -0.103098
C27   C     C_R   0.162024 0.674914 0.954501 -0.147795
C28   C     C_R   0.150052 0.313447 0.974120 -0.090443
H13   H     H_    0.676500 0.223539 0.900792 0.136565
H14   H     H_    0.662118 0.762482 0.925578 0.181457
H15   H     H_    0.176678 0.724402 0.903565 0.149509
H16   H     H_    0.160417 0.261115 0.928910 0.184546
N17   N     N_R   0.591320 0.134600 0.004200 -0.022630
N18   N     N_R   0.591320 0.865400 0.004200 -0.032042
N19   N     N_R   0.091320 0.634600 0.004200 -0.011918
N20   N     N_R   0.091320 0.365400 0.004200 -0.033802
C29   C     C_R   0.608222 0.803886 0.784787 0.461509
C30   C     C_R   0.593661 0.200110 0.794536 0.408284
C31   C     C_R   0.112474 0.305324 0.782654 0.468253
C32   C     C_R   0.095888 0.700388 0.795478 0.446078
N21   N     N_R   0.578320 0.867660 0.846880 -0.108393
N22   N     N_R   0.578320 0.132340 0.846880 -0.091046
N23   N     N_R   0.078320 0.367660 0.846880 -0.104186
N24   N     N_R   0.078320 0.632340 0.846880 -0.095201
C33   C     C_R   0.591063 0.104745 0.698514 -0.255647
C34   C     C_R   0.598667 0.899645 0.694006 -0.127181
C35   C     C_R   0.090255 0.607192 0.698726 -0.268240
C36   C     C_R   0.105128 0.402515 0.690811 -0.113053
H17   H     H_    0.596533 0.068225 0.638437 0.223330
H18   H     H_    0.598331 0.936153 0.638072 0.216468
H19   H     H_    0.086506 0.576949 0.640350 0.154923
H20   H     H_    0.107050 0.440177 0.634057 0.190967
N25   N     N_R   0.573370 0.074390 0.787040 -0.088860
N26   N     N_R   0.573370 0.925610 0.787040 -0.103127
N27   N     N_R   0.073370 0.574390 0.787040 -0.081337
N28   N     N_R   0.073370 0.425610 0.787040 -0.099128
C37   C     C_R   0.653215 0.903985 0.078475 -0.156667
C38   C     C_R   0.667231 0.082093 0.053902 -0.033495
C39   C     C_R   0.152429 0.403833 0.079744 -0.145178
C40   C     C_R   0.166234 0.582276 0.055879 -0.051042
H21   H     H_    0.660015 0.927354 0.137768 0.093897
H22   H     H_    0.684561 0.051634 0.099046 0.127232
H23   H     H_    0.158778 0.427464 0.139274 0.114212
H24   H     H_    0.182358 0.551997 0.102385 0.124383
N29   N     N_R   0.596270 0.927870 0.064040 -0.047006
N30   N     N_R   0.596270 0.072130 0.064040 -0.053928
N31   N     N_R   0.096270 0.427870 0.064040 -0.046573
N32   N     N_R   0.096270 0.572130 0.064040 -0.051916
Ni1   Ni    Ni4+2 0.500000 0.131190 0.000000 0.304333
Ni2   Ni    Ni4+2 0.500000 0.868810 0.000000 0.303849
Ni3   Ni    Ni4+2 0.000000 0.631190 0.000000 0.313307
Ni4   Ni    Ni4+2 0.000000 0.368810 0.000000 0.296094
Ni5   Ni    Ni4+2 0.488650 0.000000 0.862740 0.221447
Ni6   Ni    Ni4+2 0.988650 0.500000 0.862740 0.210078
Ni7   Ni    Ni4+2 0.511350 0.000000 0.137260 0.215161
Ni8   Ni    Ni4+2 0.011350 0.500000 0.137260 0.224046
C41   C     C_R   0.710651 0.142875 0.982728 -0.046330
C42   C     C_R   0.690425 0.836532 0.017684 -0.036970
C43   C     C_R   0.209572 0.643305 0.985710 -0.069641
C44   C     C_R   0.188701 0.335641 0.020773 -0.039369
C45   C     C_R   0.628186 0.825444 0.684332 0.024189
C46   C     C_R   0.602834 0.184609 0.699165 0.062093
C47   C     C_R   0.136516 0.329064 0.680750 0.011374
C48   C     C_R   0.106583 0.685990 0.698980 0.083568
C49   C     C_3   0.247293 0.187569 0.447046 -0.518531
C50   C     C_3   0.254644 0.848344 0.513543 -0.552724
C51   C     C_3   0.740119 0.681204 0.453456 -0.526396
C52   C     C_3   0.729113 0.353486 0.505598 -0.478403
H25   H     H_    0.253466 0.123929 0.455558 0.193155
H26   H     H_    0.315516 0.851042 0.501429 0.201655
H27   H     H_    0.748971 0.618796 0.464531 0.190434
H28   H     H_    0.770175 0.391925 0.513727 0.212547
H29   H     H_    0.228554 0.190290 0.392150 0.230556
H30   H     H_    0.234066 0.910413 0.522530 0.200082
H31   H     H_    0.720587 0.679161 0.399320 0.229669
H32   H     H_    0.696737 0.393984 0.485625 0.221510
C53   C     C_3   0.177469 0.220239 0.555253 -0.292207
C54   C     C_3   0.192655 0.806468 0.616381 -0.380039
C55   C     C_3   0.669629 0.714808 0.560779 -0.277013
C56   C     C_3   0.672465 0.313865 0.613346 -0.298016
H33   H     H_    0.611827 0.720225 0.565310 0.244697
H34   H     H_    0.614634 0.347408 0.664242 0.280235
H35   H     H_    0.119791 0.227148 0.559870 0.243652
H36   H     H_    0.143205 0.848615 0.669393 0.287973
H37   H     H_    0.162209 0.176072 0.616341 0.224990
H38   H     H_    0.225858 0.789175 0.651622 0.208511
H39   H     H_    0.654953 0.671894 0.623059 0.226976
H40   H     H_    0.705304 0.315636 0.651788 0.236317
H41   H     H_    0.748572 0.730104 0.650952 0.255675
H42   H     H_    0.760223 0.182313 0.607279 0.188101
H43   H     H_    0.254279 0.232691 0.651226 0.254000
H44   H     H_    0.270452 0.668315 0.549702 0.174077
C57   C     C_3   0.352768 0.237080 0.480184 0.606613
C58   C     C_3   0.285986 0.720553 0.408980 0.508423
C59   C     C_3   0.846752 0.739423 0.479931 0.607218
C60   C     C_3   0.818587 0.233889 0.450639 0.549054
C61   C     C_3   0.805853 0.814618 0.375279 0.077135
C62   C     C_3   0.714464 0.242666 0.403125 0.046655
C63   C     C_3   0.318770 0.319849 0.373643 0.107424
C64   C     C_3   0.168635 0.813691 0.449541 0.174918
C65   C     C_3   0.331297 0.232809 0.397996 -0.125550
C66   C     C_3   0.259836 0.808708 0.419321 -0.108866
C67   C     C_3   0.822510 0.729944 0.401127 -0.105102
C68   C     C_3   0.777479 0.290639 0.416069 0.005511
H45   H     H_    0.788272 0.803976 0.320950 0.141230
H46   H     H_    0.696938 0.280981 0.361311 0.074887
H47   H     H_    0.304828 0.314985 0.315131 0.137610
H48   H     H_    0.147848 0.874664 0.477753 0.137190
C69   C     C_3   0.697626 0.793513 0.579101 -0.041083
C70   C     C_3   0.659424 0.227623 0.596804 0.050206
C71   C     C_3   0.206441 0.297368 0.575823 -0.023002
C72   C     C_3   0.156589 0.733058 0.598215 0.010355
C73   C     C_3   0.771374 0.772145 0.586675 -0.693817
C74   C     C_3   0.747096 0.187746 0.546680 -0.605543
C75   C     C_3   0.278603 0.273395 0.585231 -0.671710
C76   C     C_3   0.234085 0.680747 0.517612 -0.509873
C77   C     C_3   0.726831 0.851257 0.479218 0.830166
C78   C     C_3   0.632002 0.224107 0.517237 0.765401
C79   C     C_3   0.238370 0.356378 0.476394 0.805485
C80   C     C_3   0.109294 0.755748 0.545760 0.757194
H49   H     H_    0.402654 0.280303 0.449523 0.176150
H50   H     H_    0.265950 0.692603 0.362544 0.160144
H51   H     H_    0.893884 0.786478 0.447685 0.147635
H52   H     H_    0.859921 0.192290 0.385240 0.126074
H53   H     H_    0.790923 0.819603 0.615892 0.171713
H54   H     H_    0.746784 0.127114 0.522110 0.227106
H55   H     H_    0.299638 0.320978 0.612390 0.175735
H56   H     H_    0.216488 0.622018 0.505708 0.219091
C81   C     C_2   0.280579 0.679842 0.973769 0.581565
C82   C     C_2   0.247090 0.285809 0.021133 0.567039
C83   C     C_2   0.783597 0.178391 0.967352 0.572986
C84   C     C_2   0.749442 0.786420 0.016604 0.532549
C85   C     C_2   0.813403 0.244812 0.910601 -0.253912
C86   C     C_2   0.735316 0.708753 0.022126 -0.297083
C87   C     C_2   0.312370 0.744782 0.913760 -0.255712
C88   C     C_2   0.234198 0.208013 0.024598 -0.289035
H57   H     H_    0.804450 0.256300 0.849218 0.119268
H58   H     H_    0.679427 0.684433 0.034923 0.154569
H59   H     H_    0.305671 0.754337 0.850015 0.117120
H60   H     H_    0.179096 0.183290 0.035638 0.148740
O1    O     O_3   0.390161 0.168385 0.487567 -0.636363
C89   C     C_3   0.335711 0.113756 0.566847 -0.231578
H61   H     H_    0.276606 0.106129 0.575924 0.165666
H62   H     H_    0.323803 0.130282 0.643860 0.202750
H63   H     H_    0.366970 0.055858 0.544600 0.137386
O2    O     O_3   0.372642 0.702127 0.348474 -0.618623
C90   C     C_3   0.416202 0.736486 0.385488 -0.092536
H64   H     H_    0.381872 0.736107 0.473096 0.116492
H65   H     H_    0.436431 0.796543 0.353634 0.130059
H66   H     H_    0.473793 0.702055 0.353210 0.171971
O3    O     O_3   0.889350 0.673770 0.484276 -0.647811
C91   C     C_3   0.839865 0.618312 0.565354 -0.265472
H67   H     H_    0.779799 0.606230 0.578279 0.175557
H68   H     H_    0.829894 0.637305 0.640551 0.189446
H69   H     H_    0.874464 0.562171 0.542169 0.154751
O4    O     O_3   0.863625 0.276904 0.480367 -0.624882
C92   C     C_3   0.933070 0.233992 0.457979 -0.145348
H70   H     H_    0.914687 0.175046 0.495530 0.119456
H71   H     H_    0.961825 0.266154 0.491121 0.224319
H72   H     H_    0.980611 0.228650 0.370559 0.144625
S1    S     S_3+6 0.897773 0.877686 0.287531 -0.027126
O5    O     O_2   0.974167 0.841785 0.270009 -0.288487
O6    O     O_2   0.911411 0.883625 0.181634 -0.312662
O7    O     O_3   0.890417 0.970957 0.326699 -0.460572
H73   H     H_    0.944174 0.995455 0.270772 0.377694
S2    S     S_3+6 0.761760 0.153005 0.318611 -0.057215
O8    O     O_2   0.738640 0.079541 0.383261 -0.160493
O9    O     O_2   0.729841 0.146508 0.251702 -0.290470
O10   O     O_3   0.866535 0.152969 0.235705 -0.576816
H74   H     H_    0.881300 0.107017 0.188706 0.396326
S3    S     S_3+6 0.411121 0.383548 0.296818 -0.040690
O11   O     O_2   0.465587 0.383189 0.334871 -0.326884
O12   O     O_2   0.464162 0.359125 0.182338 -0.303601
O13   O     O_3   0.380708 0.476121 0.299787 -0.443123
H75   H     H_    0.432772 0.507104 0.259217 0.382370
S4    S     S_3+6 0.158532 0.809679 0.339940 -0.034652
O14   O     O_2   0.070208 0.826958 0.380720 -0.233275
O15   O     O_2   0.211389 0.871464 0.258615 -0.304405
O16   O     O_3   0.186212 0.721171 0.281179 -0.531324
H76   H     H_    0.161386 0.718243 0.241237 0.392906
S5    S     S_3+6 0.644813 0.857367 0.455414 -0.065316
O17   O     O_2   0.650911 0.791871 0.386105 -0.389158
O18   O     O_2   0.557683 0.855572 0.555741 -0.316769
O19   O     O_3   0.658103 0.941934 0.391956 -0.444954
H77   H     H_    0.624509 0.936568 0.363765 0.347774
S6    S     S_3+6 0.545255 0.293811 0.556959 -0.076429
O20   O     O_2   0.467918 0.265424 0.659135 -0.253557
O21   O     O_2   0.557385 0.377471 0.574469 -0.319237
O22   O     O_3   0.526254 0.295988 0.464358 -0.547116
H78   H     H_    0.567238 0.333222 0.409440 0.363921
S7    S     S_3+6 0.158873 0.365830 0.448505 -0.068263
O23   O     O_2   0.169963 0.306857 0.368971 -0.354840
O24   O     O_2   0.070907 0.357074 0.545939 -0.337255
O25   O     O_3   0.168778 0.455218 0.396602 -0.462019
H79   H     H_    0.139355 0.491335 0.458326 0.356907
S8    S     S_3+6 0.010712 0.808379 0.640897 -0.050332
O26   O     O_2   0.027745 0.887528 0.666711 -0.277882
O27   O     O_2   0.963391 0.821633 0.593814 -0.311648
O28   O     O_3   0.949721 0.758580 0.755136 -0.518497
H80   H     H_    0.892029 0.767989 0.778301 0.381750
O29   O     O_3   0.741098 0.931429 0.492479 -0.557375
C93   C     C_3   0.784821 0.945895 0.537667 -0.058105
H81   H     H_    0.843463 0.912329 0.498402 0.163363
H82   H     H_    0.745485 0.938730 0.624970 0.082038
H83   H     H_    0.803277 0.008322 0.524772 0.173703
O30   O     O_3   0.604296 0.146496 0.519920 -0.664443
C94   C     C_3   0.560398 0.134768 0.474699 0.119977
H84   H     H_    0.585743 0.168881 0.401119 0.179182
H85   H     H_    0.493522 0.147294 0.534486 0.167242
H86   H     H_    0.564923 0.072126 0.453451 0.145463
O31   O     O_3   0.251893 0.436324 0.491646 -0.605722
C95   C     C_3   0.293247 0.451476 0.539477 -0.115533
H87   H     H_    0.350318 0.417167 0.505219 0.186584
H88   H     H_    0.251602 0.444937 0.626953 0.100581
H89   H     H_    0.312848 0.513705 0.524516 0.180815
O32   O     O_3   0.102267 0.683042 0.504749 -0.692354
C96   C     C_3   0.028804 0.667623 0.513128 0.073672
H90   H     H_    0.026753 0.700743 0.453963 0.238037
H91   H     H_    0.971555 0.676638 0.593345 0.128080
H92   H     H_    0.029347 0.604875 0.494306 0.110184
O33   O     O_3   0.292502 0.661969 0.051152 -0.632734
C97   C     C_3   0.343199 0.594710 0.020888 -0.154104
H93   H     H_    0.345505 0.556999 0.960304 0.109434
H94   H     H_    0.319121 0.558732 0.092961 0.175216
H95   H     H_    0.407225 0.612331 0.990515 0.225485
O34   O     O_3   0.323811 0.315215 0.989981 -0.560391
C98   C     C_3   0.313889 0.371675 0.063080 -0.051896
H96   H     H_    0.263901 0.356236 0.147343 0.123849
H97   H     H_    0.302799 0.429872 0.042371 0.099834
H98   H     H_    0.372722 0.375645 0.056217 0.229743
O35   O     O_3   0.799978 0.157617 0.039592 -0.602421
C99   C     C_3   0.852231 0.091160 0.002572 -0.110078
H99   H     H_    0.854464 0.056808 0.939574 0.098576
H100  H     H_    0.830112 0.051956 0.071243 0.169621
H101  H     H_    0.915971 0.109206 0.972763 0.219408
O36   O     O_3   0.827340 0.814621 0.982659 -0.569674
C100  C     C_3   0.819764 0.876605 0.047732 -0.009982
H102  H     H_    0.772675 0.864425 0.134031 0.105423
H103  H     H_    0.805985 0.931578 0.023311 0.087118
H104  H     H_    0.880322 0.884795 0.035327 0.234007
O37   O     O_3   0.354320 0.914034 0.825743 -0.637331
C101  C     C_3   0.269184 0.921855 0.868124 -0.007390
H105  H     H_    0.234879 0.957857 0.942108 0.143536
H106  H     H_    0.237823 0.864609 0.885411 0.127019
H107  H     H_    0.264237 0.951677 0.808427 0.195682
O38   O     O_3   0.325094 0.078977 0.860598 -0.628934
C102  C     C_3   0.402479 0.076482 0.759868 -0.058795
H108  H     H_    0.444208 0.030760 0.755321 0.150886
H109  H     H_    0.433455 0.134291 0.739526 0.175489
H110  H     H_    0.391932 0.061184 0.699224 0.139748
O39   O     O_3   0.850210 0.413698 0.829366 -0.637791
C103  C     C_3   0.764230 0.421527 0.875691 -0.000481
H111  H     H_    0.731031 0.455168 0.951709 0.132238
H112  H     H_    0.733142 0.364363 0.889998 0.116560
H113  H     H_    0.757039 0.454107 0.819588 0.200873
O40   O     O_3   0.824351 0.576844 0.861775 -0.622321
C104  C     C_3   0.901658 0.568908 0.761739 -0.127985
H114  H     H_    0.940833 0.521823 0.760100 0.169445
H115  H     H_    0.937039 0.623577 0.739615 0.155744
H116  H     H_    0.890749 0.554651 0.701076 0.148472
S9    S     S_3+6 0.576376 0.708746 0.839665 -0.112356
O41   O     O_2   0.649668 0.655717 0.799286 -0.352781
O42   O     O_2   0.526988 0.712546 0.958784 -0.338978
O43   O     O_3   0.516152 0.671762 0.805691 -0.571872
H117  H     H_    0.526287 0.614566 0.798921 0.372610
S10   S     S_3+6 0.555713 0.289796 0.865101 -0.066255
O44   O     O_2   0.625458 0.345396 0.833366 -0.379753
O45   O     O_2   0.498055 0.327429 0.844224 -0.202355
O46   O     O_3   0.502633 0.273760 0.995583 -0.545158
H118  H     H_    0.541921 0.286534 0.013247 0.380427
S11   S     S_3+6 0.080769 0.209250 0.833916 -0.108598
O47   O     O_2   0.153851 0.156216 0.794609 -0.356386
O48   O     O_2   0.029036 0.210993 0.953300 -0.328915
O49   O     O_3   0.022956 0.173822 0.795367 -0.570301
H119  H     H_    0.035228 0.117017 0.784057 0.370509
S12   S     S_3+6 0.065507 0.790572 0.866929 -0.059773
O50   O     O_2   0.140451 0.839299 0.832537 -0.410791
O51   O     O_2   0.010424 0.836643 0.848944 -0.165915
O52   O     O_3   0.012737 0.773752 0.997673 -0.549734
H120  H     H_    0.040928 0.805098 0.021772 0.391830

loop_
_geom_bond_atom_site_label_1
_geom_bond_atom_site_label_2
_geom_bond_distance
_ccdc_geom_bond_type
C11   C20   1.387990 A    
C94   H85   1.106027 S    
C12   C19   1.383513 A    
N27   Ni6   1.872772 S    
C27   H15   1.074680 S    
C101  H107  1.109508 S    
C14   N14   1.311152 A    
O36   C100  1.407084 S    
C39   H23   1.078602 S    
C93   H82   1.103915 S    
S8    O26   1.502610 D    
O34   C98   1.409841 S    
C60   O4    1.423675 S    
C98   H96   1.114756 S    
S12   O50   1.502027 D    
N1    Ni1   1.847739 S    
C7    C23   1.377210 A    
C4    N4    1.318195 A    
C63   H47   1.093977 S    
C55   C69   1.542175 S    
C58   H50   1.111513 S    
C90   H66   1.109040 S    
N21   Ni2   1.930927 S    
C93   H83   1.107095 S    
C59   C67   1.559199 S    
O3    C91   1.413547 S    
C77   S5    1.867290 S    
C79   O31   1.437201 S    
C33   N25   1.308112 A    
C84   C86   1.348297 D    
C9    N9    1.354585 A    
C51   H31   1.110447 S    
C11   N11   1.361027 A    
C11   O39   1.376933 S    
C12   N12   1.343080 A    
C38   H22   1.076574 S    
N17   N30   1.454654 A    
S10   O44   1.502878 D    
N19   N32   1.454654 A    
S6    O22   1.682592 S    
S5    O17   1.504670 D    
O16   H76   0.991260 S    
C62   H46   1.110113 S    
C32   N24   1.335731 A    
C57   H49   1.094919 S    
C58   O2    1.429039 S    
C5    N5    1.322908 A    
H42   C74   1.114729 S    
C30   C46   1.403541 A    
C62   S2    1.870452 S    
C63   C79   1.578770 S    
C23   C68   1.475910 S    
N32   Ni8   1.845348 S    
C97   H94   1.109099 S    
C16   N16   1.317561 A    
C50   C66   1.555785 S    
C103  H111  1.114406 S    
C48   C72   1.502670 S    
C9    O37   1.377106 S    
S8    O28   1.678401 S    
C100  H103  1.105042 S    
C29   S9    1.771293 S    
H41   C73   1.089273 S    
C44   C82   1.438896 S    
O38   C102  1.410206 S    
S12   O52   1.673737 S    
C71   C79   1.628478 S    
C72   C80   1.605851 S    
C3    N3    1.319095 A    
C90   H64   1.106549 S    
C88   H60   1.086538 S    
O7    H73   0.990616 S    
C54   H38   1.112635 S    
C91   H68   1.109349 S    
N18   N29   1.452926 A    
C27   C43   1.394808 A    
N8    N15   1.380896 A    
C33   H17   1.071117 S    
C35   H19   1.080326 S    
C59   C73   1.544825 S    
C17   C88   1.431337 S    
S11   O48   1.501256 D    
C89   H61   1.102224 S    
N28   Ni6   1.871439 S    
C45   C69   1.490744 S    
N14   Ni7   1.891205 S    
N29   Ni7   1.844101 S    
C33   C46   1.385005 A    
C102  H109  1.106916 S    
N25   Ni5   1.872772 S    
C35   C48   1.384801 A    
C64   C66   1.581482 S    
S5    O19   1.680117 S    
C24   C67   1.477400 S    
C50   C54   1.507139 S    
S2    O9    1.500550 D    
O43   H117  0.990530 S    
N3    Ni3   1.847739 S    
C32   C48   1.402759 A    
N15   Ni8   1.889854 S    
C28   C44   1.377631 A    
N19   Ni3   1.848559 S    
N21   N26   1.398932 A    
C10   C17   1.383727 A    
C25   N17   1.329886 A    
C37   H21   1.079088 S    
O32   C96   1.408102 S    
C104  H115  1.095585 S    
C27   N19   1.329779 A    
C28   N20   1.312957 A    
C15   N15   1.322373 A    
C103  H113  1.109486 S    
C79   S7    1.867595 S    
N7    Ni4   1.930993 S    
O22   H78   0.990254 S    
C43   C81   1.448336 S    
C41   C83   1.452613 S    
C42   C84   1.441296 S    
O37   C101  1.413546 S    
C61   S1    1.852498 S    
C92   H71   1.109388 S    
C31   S11   1.771356 S    
C98   H98   1.108651 S    
C99   H99   1.116397 S    
C69   C77   1.630199 S    
O10   H74   0.990602 S    
N5    N14   1.379251 A    
C55   H33   1.109264 S    
C96   H91   1.097842 S    
C53   H35   1.108543 S    
C54   H36   1.100162 S    
C26   H14   1.078152 S    
S1    O5    1.503144 D    
S7    O24   1.503747 D    
C50   H26   1.107530 S    
C80   O32   1.437583 S    
N1    N10   1.326602 A    
C49   H25   1.110604 S    
N3    N12   1.326602 A    
C10   N10   1.344034 A    
C51   H27   1.110135 S    
N4    N11   1.328176 A    
C62   C68   1.600448 S    
C51   C67   1.570891 S    
C37   C42   1.394149 A    
C14   C21   1.384942 A    
C36   H20   1.072457 S    
C95   H87   1.095981 S    
C81   O33   1.384624 S    
H44   C76   1.109058 S    
C30   N22   1.343053 A    
C5    H5    1.078301 S    
C6    N6    1.319041 A    
H43   C75   1.089019 S    
C60   C68   1.549510 S    
S3    O13   1.683359 S    
C22   C65   1.482150 S    
C1    C17   1.362380 A    
C36   C47   1.368152 A    
C3    C19   1.363478 A    
S8    O27   1.503780 D    
O2    C90   1.412389 S    
N12   Ni6   1.915229 S    
C25   C41   1.395312 A    
C49   H29   1.109902 S    
O4    C92   1.411374 S    
S12   O51   1.497940 D    
C10   O38   1.383693 S    
O31   C95   1.412687 S    
C90   H65   1.107378 S    
N24   Ni3   1.930978 S    
C78   S6    1.874031 S    
C40   N32   1.327289 A    
S7    O23   1.503645 D    
C99   H101  1.104886 S    
S4    O14   1.501535 D    
C36   N28   1.294125 A    
C61   C77   1.576272 S    
C7    H7    1.065669 S    
S6    O21   1.499552 D    
C21   C66   1.468684 S    
C1    H1    1.073643 S    
C72   C76   1.571730 S    
C63   C65   1.589207 S    
C55   H39   1.107245 S    
C3    H3    1.074140 S    
C56   H40   1.109633 S    
C58   C76   1.526309 S    
C20   C85   1.461108 S    
C52   H28   1.108060 S    
C92   H72   1.112192 S    
N6    N13   1.380896 A    
C80   S8    1.850832 S    
S10   O45   1.501619 D    
S1    O7    1.679917 S    
C101  H105  1.113926 S    
C86   H58   1.086659 S    
C47   C71   1.489465 S    
C89   H63   1.109204 S    
O35   C99   1.412037 S    
C84   O36   1.393167 S    
C46   C70   1.494639 S    
N22   Ni1   1.930978 S    
S10   O46   1.667555 S    
O49   H119  0.990601 S    
C94   H86   1.107266 S    
C75   H55   1.102326 S    
O33   C97   1.413179 S    
C97   H95   1.105798 S    
C34   N26   1.295410 A    
C95   H89   1.108882 S    
C103  H112  1.105666 S    
C30   S10   1.772666 S    
C26   C42   1.376575 A    
C56   C70   1.542394 S    
N11   Ni6   1.916533 S    
C1    N1    1.318711 A    
C102  H108  1.109227 S    
C40   C43   1.384251 A    
C25   H13   1.078544 S    
C26   N18   1.312906 A    
C93   H81   1.105145 S    
C92   H70   1.112789 S    
C13   H9    1.074675 S    
N7    N16   1.379251 A    
C28   H16   1.077946 S    
C15   H11   1.075737 S    
O39   C103  1.415693 S    
C100  H102  1.114633 S    
C87   H59   1.082805 S    
C73   H53   1.102584 S    
O25   H79   0.990628 S    
O29   C93   1.417423 S    
C57   O1    1.427777 S    
C29   C45   1.412188 A    
C31   C47   1.415826 A    
N30   Ni7   1.845348 S    
C64   C80   1.592697 S    
S6    O20   1.500887 D    
S4    O16   1.681751 S    
C69   C73   1.575363 S    
S3    O11   1.501585 D    
C70   C78   1.612330 S    
C89   H62   1.108199 S    
C52   H32   1.103758 S    
N17   Ni1   1.848559 S    
C8    C24   1.375063 A    
C56   H34   1.097828 S    
C53   C71   1.542427 S    
C54   C72   1.547823 S    
N23   Ni4   1.930927 S    
C60   H52   1.109044 S    
C13   N13   1.325637 A    
C58   C66   1.569878 S    
C13   C22   1.387540 A    
C59   H51   1.105659 S    
O52   H120  0.990398 S    
S5    O18   1.502678 D    
C81   C87   1.344865 D    
N5    Ni2   1.930993 S    
N2    N9    1.328176 A    
C35   N27   1.327925 A    
C29   N21   1.339432 A    
N10   Ni5   1.915229 S    
O19   H77   0.990667 S    
C76   H56   1.111948 S    
C31   N23   1.338594 A    
O1    C89   1.412569 S    
N4    Ni4   1.847750 S    
N24   N27   1.397265 A    
S11   O47   1.501913 D    
N20   Ni4   1.848597 S    
C104  H114  1.107705 S    
C34   H18   1.071199 S    
C15   C24   1.387045 A    
C97   H93   1.116174 S    
C64   H48   1.110871 S    
N8    Ni3   1.930938 S    
C6    H6    1.068804 S    
C4    H4    1.069222 S    
C34   C45   1.366914 A    
N16   Ni8   1.891205 S    
C57   C65   1.561783 S    
S9    O41   1.502337 D    
C2    C18   1.356943 A    
O30   C94   1.413638 S    
O46   H118  0.988324 S    
C77   O29   1.436860 S    
C98   H97   1.105776 S    
C99   H100  1.108257 S    
C100  H104  1.107183 S    
C49   C53   1.523304 S    
C51   C55   1.525112 S    
N2    Ni2   1.847750 S    
N22   N25   1.397265 A    
C12   O40   1.383208 S    
C38   N30   1.330865 A    
C78   O30   1.426050 S    
N18   Ni2   1.848597 S    
C39   C44   1.392037 A    
C40   H24   1.076236 S    
C91   H67   1.104418 S    
C96   H90   1.098253 S    
C8    H8    1.063590 S    
C61   H45   1.097484 S    
C82   O34   1.391894 S    
C7    N7    1.311166 A    
C62   C78   1.586587 S    
S11   O49   1.682947 S    
C83   O35   1.381481 S    
C8    N8    1.312898 A    
N6    Ni1   1.930938 S    
C2    H2    1.068428 S    
C37   N29   1.335708 A    
C19   C86   1.431725 S    
C102  H110  1.105840 S    
C6    C22   1.377766 A    
N9    Ni5   1.916533 S    
C49   C65   1.570235 S    
C16   H12   1.079366 S    
C95   H88   1.105349 S    
C85   H57   1.082273 S    
S2    O8    1.501219 D    
N13   Ni7   1.889854 S    
C39   N31   1.334935 A    
C18   C87   1.457084 S    
S3    O12   1.497151 D    
C104  H116  1.106992 S    
C61   C67   1.586640 S    
C16   C23   1.396243 A    
C5    C21   1.387410 A    
O40   C104  1.410272 S    
C57   C75   1.546904 S    
C71   C75   1.573556 S    
C38   C41   1.388001 A    
C94   H84   1.105735 S    
C2    N2    1.312899 A    
C52   C68   1.560898 S    
N31   Ni8   1.844101 S    
N23   N28   1.398932 A    
C4    C20   1.356782 A    
S9    O43   1.682800 S    
C53   H37   1.105838 S    
C60   C74   1.542146 S    
C14   H10   1.078980 S    
N20   N31   1.452926 A    
S2    O10   1.685150 S    
S4    O15   1.502358 D    
O28   H80   0.990464 S    
C74   H54   1.104234 S    
C59   O3    1.428756 S    
C64   S4    1.822867 S    
S9    O42   1.501296 D    
C91   H69   1.109093 S    
S1    O6    1.501782 D    
N26   Ni5   1.871439 S    
S7    O25   1.683644 S    
C101  H106  1.104390 S    
O13   H75   0.990580 S    
C96   H92   1.108855 S    
C63   S3    1.844691 S    
C70   C74   1.582848 S    
C50   H30   1.114999 S    
C52   C56   1.521361 S    
C32   S12   1.782557 S    
C9    C18   1.392901 A    
C82   C88   1.348389 D    
C83   C85   1.343035 D    
