data_mof_unit_10657.cif
_audit_creation_date              2012-12-11T17:05:32-0500
_audit_creation_method            fapswitch 2.2
_symmetry_space_group_name_H-M    P1
_symmetry_Int_Tables_number       1
_space_group_crystal_system       triclinic
_cell_length_a                    6.980163
_cell_length_b                    14.710349
_cell_length_c                    15.891387
_cell_angle_alpha                 90.171179
_cell_angle_beta                  89.514491
_cell_angle_gamma                 89.966259
_cell_volume                      1631.67151689

loop_
_atom_site_label
_atom_site_type_symbol
_atom_type_description
_atom_site_fract_x
_atom_site_fract_y
_atom_site_fract_z
_atom_type_partial_charge
O1    O     O_R   0.494380 0.415640 0.412830 -0.542290
O2    O     O_R   0.823960 0.405540 0.586560 -0.525085
O3    O     O_R   0.994270 0.584360 0.587170 -0.525522
C1    C     C_R   0.654017 0.381448 0.613515 0.757112
O4    O     O_R   0.824090 0.404620 0.413450 -0.550065
O5    O     O_R   0.994400 0.583430 0.412820 -0.544821
C2    C     C_R   0.655699 0.382384 0.384588 0.666782
O6    O     O_R   0.494250 0.416570 0.587180 -0.527124
O7    O     O_3   0.660800 0.558670 0.500000 -0.363832
V1    V     V_3+5 0.935650 0.489120 0.500000 1.441735
O8    O     O_R   0.324110 0.594460 0.413440 -0.543508
C3    C     C_R   0.155420 0.616014 0.384279 0.673782
O9    O     O_R   0.323980 0.595380 0.586550 -0.520537
C4    C     C_R   0.155294 0.617138 0.616174 0.736874
V2    V     V_3+5 0.435660 0.510880 0.500000 1.455175
O10   O     O_3   0.160640 0.441330 0.500000 -0.370261
C5    C     C_3   0.082358 0.642758 0.772461 -0.268919
H1    H     H_    0.945109 0.607493 0.763636 0.191385
H2    H     H_    0.183504 0.588660 0.789193 0.209835
C6    C     C_3   0.074784 0.712028 0.847339 0.263779
H3    H     H_    0.862217 0.736754 0.651964 0.192271
H4    H     H_    0.837611 0.839564 0.760136 0.161314
C7    C     C_3   0.005946 0.764669 0.666023 -0.370157
C8    C     C_3   0.347066 0.731401 0.703792 0.031446
C9    C     C_3   0.147637 0.687062 0.687960 0.008295
H5    H     H_    0.400155 0.763182 0.644568 0.102211
C10   C     C_3   0.125101 0.809384 0.812561 0.065331
C11   C     C_3   0.989111 0.834573 0.738866 -0.366936
C12   C     C_3   0.331258 0.806129 0.772729 -0.349605
H6    H     H_    0.441682 0.795336 0.821441 0.192737
H7    H     H_    0.365437 0.873238 0.744014 0.112434
H8    H     H_    0.056011 0.799805 0.607936 0.124824
H9    H     H_    0.027066 0.903224 0.714556 0.125368
C13   C     C_R   0.273186 0.814058 0.238832 0.091377
C14   C     C_R   0.118156 0.815372 0.183326 -0.099300
C15   C     C_R   0.966912 0.754405 0.199592 -0.158073
H10   H     H_    0.844297 0.752714 0.158602 0.141583
C16   C     C_R   0.978384 0.690637 0.265474 -0.167304
H11   H     H_    0.863298 0.642175 0.273468 0.129629
C17   C     C_R   0.141952 0.685480 0.316872 -0.104132
C18   C     C_R   0.285036 0.750708 0.303750 0.096296
C19   C     C_3   0.494643 0.737752 0.289984 -0.411104
C20   C     C_3   0.481874 0.807073 0.219587 -0.388735
H12   H     H_    0.529251 0.668073 0.267258 0.175289
H13   H     H_    0.580042 0.761815 0.344399 0.170051
H14   H     H_    0.509783 0.777783 0.156068 0.193566
H15   H     H_    0.559256 0.871356 0.233452 0.160660
C21   C     C_R   0.486058 0.307037 0.736329 0.155172
C22   C     C_R   0.642584 0.311224 0.680485 -0.137985
C23   C     C_R   0.792376 0.248317 0.692455 -0.145513
H16   H     H_    0.913629 0.247351 0.649700 0.134751
C24   C     C_R   0.785364 0.184574 0.758478 -0.170982
H17   H     H_    0.901722 0.136595 0.765058 0.122581
C25   C     C_R   0.624524 0.179550 0.812333 -0.110442
C26   C     C_R   0.476726 0.241448 0.799525 0.098068
C27   C     C_3   0.272418 0.220295 0.783342 -0.443316
C28   C     C_3   0.279613 0.293001 0.716227 -0.008030
H18   H     H_    0.179684 0.236579 0.838546 0.212103
H19   H     H_    0.252730 0.150744 0.757172 0.135949
H20   H     H_    0.257058 0.266910 0.651320 0.100645
C29   C     C_R   0.490512 0.252928 0.309750 0.098301
C30   C     C_R   0.647878 0.311407 0.317772 -0.104193
C31   C     C_R   0.800628 0.299112 0.260316 -0.172705
H21   H     H_    0.924676 0.342749 0.263572 0.134777
C32   C     C_R   0.788601 0.235093 0.194145 -0.167716
H22   H     H_    0.905140 0.230526 0.149089 0.136511
C33   C     C_R   0.622723 0.181818 0.182869 -0.107283
C34   C     C_R   0.478203 0.189910 0.244123 0.094196
C35   C     C_3   0.269540 0.206924 0.233495 -0.414035
C36   C     C_3   0.282810 0.275135 0.305226 -0.395512
H23   H     H_    0.181703 0.146255 0.249406 0.168076
H24   H     H_    0.237731 0.238875 0.171876 0.179668
H25   H     H_    0.203250 0.253709 0.362715 0.168031
H26   H     H_    0.257853 0.346538 0.285333 0.172226
O11   O     O_R   0.771490 0.080820 0.910070 -0.540812
O12   O     O_R   0.441590 0.092730 0.083780 -0.539272
O13   O     O_R   0.271350 0.913900 0.084390 -0.530417
C37   C     C_R   0.610254 0.115131 0.112509 0.697222
O14   O     O_R   0.441780 0.091820 0.910670 -0.540475
O15   O     O_R   0.271540 0.912980 0.910040 -0.536089
C38   C     C_R   0.611272 0.111752 0.880580 0.700938
O16   O     O_R   0.771300 0.081740 0.084420 -0.540840
O17   O     O_3   0.604960 0.938700 0.997240 -0.366347
V3    V     V_3+5 0.330090 0.008230 0.997220 1.418462
O18   O     O_R   0.941820 0.901930 0.910640 -0.546227
C39   C     C_R   0.111679 0.880724 0.881442 0.696885
O19   O     O_R   0.941630 0.902840 0.083750 -0.546888
C40   C     C_R   0.110160 0.880786 0.112439 0.717267
V4    V     V_3+5 0.830090 0.986410 0.997190 1.397602
O20   O     O_3   0.105080 0.055990 0.997200 -0.371515
I1    I     I_    0.114513 0.407662 0.752546 -0.395800
I2    I     I_    0.276614 0.670599 0.944296 -0.436011
C41   C     C_3   0.879056 0.707194 0.893433 -0.665470
H27   H     H_    0.763860 0.740318 0.857820 0.216566
H28   H     H_    0.838186 0.635294 0.905092 0.245953
H29   H     H_    0.885397 0.740974 0.955869 0.212168
I3    I     I_    0.558874 0.630745 0.737574 -0.454072

loop_
_geom_bond_atom_site_label_1
_geom_bond_atom_site_label_2
_ccdc_geom_bond_type
C29   C36   S    
C21   C26   A    
O19   C40   A    
C31   C32   A    
C41   H27   S    
C10   C12   S    
C18   C19   S    
C14   C15   A    
O15   V3    S    
O12   V3    S    
C21   C28   S    
O18   C39   A    
C6    I2    S    
C30   C31   A    
O16   V4    S    
V3    O20   S    
C15   H10   S    
C8    H5    S    
O5    C3    A    
C16   H11   S    
V2    O10   S    
C5    C6    S    
C27   C28   S    
C13   C14   A    
C35   H23   S    
C8    C12   S    
O15   C39   A    
O8    V2    S    
O13   C40   A    
C34   C35   S    
C32   C33   A    
C36   H26   S    
C23   C24   A    
O1    V2    S    
O7    V1    S    
C1    O6    A    
C41   H28   S    
H4    C11   S    
O9    C4    A    
C35   C36   S    
C13   C18   A    
C19   H12   S    
C36   H25   S    
C24   C25   A    
C5    H1    S    
O17   V4    S    
C33   C34   A    
C8    C9    S    
O14   C38   A    
O18   V4    S    
O11   C38   A    
C28   H20   S    
C6    C41   S    
C8    I3    S    
C19   H13   S    
C3    C17   S    
C10   C39   S    
O2    C1    A    
C2    C30   S    
C12   H6    S    
C14   C40   S    
C37   O16   A    
O17   V3    S    
C26   C27   S    
C23   H16   S    
C7    C11   S    
O3    C4    A    
C17   C18   A    
C11   H9    S    
C32   H22   S    
C41   H29   S    
O9    V2    S    
C19   C20   S    
O2    V1    S    
C35   H24   S    
C24   H17   S    
O4    C2    A    
C25   C26   A    
C21   C22   A    
C28   I1    S    
O1    C2    A    
C13   C20   S    
O12   C37   A    
O5    V1    S    
O8    C3    A    
C6    C10   S    
O6    V2    S    
O13   V3    S    
C27   H19   S    
C33   C37   S    
C1    C22   S    
C5    C9    S    
C7    H8    S    
H3    C7    S    
O7    V2    S    
O4    V1    S    
C12   H7    S    
O3    V1    S    
V1    O10   S    
C16   C17   A    
C29   C34   A    
O14   V3    S    
C15   C16   A    
C5    H2    S    
C27   H18   S    
C7    C9    S    
C4    C9    S    
C29   C30   A    
C20   H14   S    
O11   V4    S    
C31   H21   S    
C22   C23   A    
C10   C11   S    
O19   V4    S    
V4    O20   S    
C20   H15   S    
C25   C38   S    
