data_mof_unit_53988.cif
_audit_creation_date              2012-12-10T20:49:45-0500
_audit_creation_method            fapswitch 2.2
_symmetry_space_group_name_H-M    P1
_symmetry_Int_Tables_number       1
_space_group_crystal_system       triclinic
_cell_length_a                    8.108857
_cell_length_b                    8.926425
_cell_length_c                    16.830965
_cell_angle_alpha                 89.602265
_cell_angle_beta                  82.965402
_cell_angle_gamma                 89.9413
_cell_volume                      1209.07760646

loop_
_atom_site_label
_atom_site_type_symbol
_atom_type_description
_atom_site_fract_x
_atom_site_fract_y
_atom_site_fract_z
_atom_type_partial_charge
C1    C     C_R   0.499526 0.781937 0.501743 0.977861
C2    C     C_R   0.499959 0.217992 0.500336 1.015990
C3    C     C_1   0.499478 0.934771 0.501912 -0.103390
C4    C     C_1   0.499739 0.065177 0.501303 -0.079618
C5    C     C_R   0.473642 0.503673 0.653328 0.907111
C6    C     C_R   0.526329 0.500771 0.346580 0.965054
C7    C     C_R   0.448616 0.502251 0.740081 -0.190524
C8    C     C_R   0.553742 0.516761 0.260108 -0.238419
C9    C     C_R   0.506670 0.378313 0.781610 -0.268821
C10   C     C_R   0.505395 0.651647 0.224636 -0.171741
C11   C     C_R   0.494595 0.381282 0.865689 0.371583
C12   C     C_R   0.544632 0.674066 0.141795 0.390044
C13   C     C_R   0.436178 0.513255 0.905273 -0.003434
C14   C     C_R   0.621835 0.556891 0.095583 -0.018544
C15   C     C_R   0.372472 0.631547 0.864337 -0.183762
C16   C     C_R   0.678893 0.428989 0.131398 -0.159110
C17   C     C_R   0.375012 0.627269 0.781756 -0.064653
C18   C     C_R   0.645812 0.406518 0.213629 -0.084130
C19   C     C_2   0.455608 0.538623 0.988428 -0.065128
C20   C     C_2   0.607664 0.547087 0.010718 -0.063326
H1    H     H_    0.325479 0.730199 0.897064 0.229559
H2    H     H_    0.737361 0.340645 0.093925 0.241916
H3    H     H_    0.717809 0.527167 0.968419 0.179968
H4    H     H_    0.345133 0.555372 0.031009 0.186637
N1    N     N_1   0.926360 0.500000 0.499990 -0.013445
N2    N     N_1   0.073640 0.500000 0.500010 -0.006031
O1    O     O_R   0.363150 0.714660 0.500000 -0.606833
O2    O     O_R   0.636850 0.285340 0.500000 -0.605370
O3    O     O_R   0.636850 0.714660 0.500000 -0.616931
O4    O     O_R   0.363150 0.285340 0.500000 -0.620507
O5    O     O_R   0.346950 0.500000 0.615800 -0.558896
O6    O     O_R   0.653050 0.500000 0.384200 -0.604143
O7    O     O_R   0.620700 0.500000 0.615800 -0.629742
O8    O     O_R   0.379300 0.500000 0.384200 -0.615233
Zn1   Zn    Zn3+2 0.317220 0.500000 0.500010 1.064066
Zn2   Zn    Zn3+2 0.682780 0.500000 0.499990 1.052206
S1    S     S_3+6 0.502610 0.848649 0.095981 0.091017
O9    O     O_2   0.611810 0.868698 0.017827 -0.232612
O10   O     O_2   0.323621 0.851540 0.080990 -0.257590
O11   O     O_3   0.538466 0.991104 0.156531 -0.509590
H5    H     H_    0.461049 0.071710 0.144568 0.405467
S2    S     S_3+6 0.544931 0.220311 0.921648 0.070611
O12   O     O_2   0.726830 0.224426 0.931204 -0.317055
O13   O     O_2   0.446129 0.219370 0.003234 -0.243362
O14   O     O_3   0.501828 0.061601 0.874879 -0.450858
H6    H     H_    0.606737 0.003607 0.867971 0.407132
C21   C     C_2   0.582109 0.247623 0.736356 1.046652
O15   O     O_2   0.499464 0.175987 0.694036 -0.564555
O16   O     O_R   0.747224 0.206459 0.740353 -0.739076
H7    H     H_    0.807283 0.278766 0.772977 0.332136
C22   C     C_2   0.414693 0.769112 0.274020 1.019971
O17   O     O_2   0.482508 0.833475 0.324981 -0.627869
O18   O     O_R   0.253155 0.807880 0.260940 -0.742552
H8    H     H_    0.204922 0.890506 0.297784 0.350052
C23   C     C_2   0.701102 0.262849 0.247495 0.976155
O19   O     O_2   0.625990 0.208904 0.308411 -0.625972
O20   O     O_R   0.837402 0.186395 0.207805 -0.739727
H9    H     H_    0.861912 0.089281 0.235702 0.376802
C24   C     C_2   0.310225 0.759886 0.741322 0.916620
O21   O     O_2   0.337792 0.885798 0.764562 -0.531297
O22   O     O_R   0.211757 0.742063 0.679521 -0.775389
H10   H     H_    0.175033 0.841199 0.657716 0.354623

loop_
_geom_bond_atom_site_label_1
_geom_bond_atom_site_label_2
_ccdc_geom_bond_type
C5    O5    A    
C2    C4    S    
C23   O19   D    
C15   C17   A    
S1    O9    D    
C14   C16   A    
C11   C13   A    
C22   O18   S    
C6    O6    A    
C21   O15   D    
C20   H3    S    
C2    O4    A    
C1    O1    A    
O1    Zn1   S    
C19   C20   D    
C1    O3    A    
C19   H4    S    
C24   O21   D    
C21   O16   S    
C16   C18   A    
O18   H8    S    
C9    C11   A    
O3    Zn2   S    
O20   H9    S    
S2    O13   D    
O4    Zn1   S    
C17   C24   S    
C18   C23   S    
C10   C22   S    
O6    Zn2   S    
C8    C10   A    
O11   H5    S    
C12   C14   A    
C9    C21   S    
S1    O11   S    
C7    C9    A    
C23   O20   S    
C13   C15   A    
O22   H10   S    
C10   C12   A    
O16   H7    S    
O5    Zn1   S    
C24   O22   S    
C2    O2    A    
S2    O12   D    
C13   C19   S    
N1    Zn2   S    
C22   O17   D    
C14   C20   S    
N2    Zn1   S    
C15   H1    S    
O7    Zn2   S    
C6    C8    S    
O2    Zn2   S    
C11   S2    S    
S1    O10   D    
O8    Zn1   S    
C12   S1    S    
C5    C7    S    
C16   H2    S    
C1    C3    S    
N1    N2    T    
O14   H6    S    
C8    C18   A    
C3    C4    T    
C6    O8    A    
C7    C17   A    
S2    O14   S    
C5    O7    A    
