data_mof_unit_22013.cif
_audit_creation_date              2012-12-10T16:52:03-0500
_audit_creation_method            fapswitch 2.2
_symmetry_space_group_name_H-M    P1
_symmetry_Int_Tables_number       1
_space_group_crystal_system       triclinic
_cell_length_a                    7.739351
_cell_length_b                    8.627139
_cell_length_c                    14.973316
_cell_angle_alpha                 91.315049
_cell_angle_beta                  85.478977
_cell_angle_gamma                 93.654934
_cell_volume                      994.445931721

loop_
_atom_site_label
_atom_site_type_symbol
_atom_type_description
_atom_site_fract_x
_atom_site_fract_y
_atom_site_fract_z
_atom_type_partial_charge
C1    C     C_R   0.545862 0.794198 0.498654 0.916268
C2    C     C_R   0.367229 0.568698 0.820578 -0.253580
C3    C     C_R   0.495955 0.495923 0.231048 -0.075327
C4    C     C_R   0.504723 0.506052 0.768831 -0.076813
C5    C     C_R   0.358772 0.557240 0.191781 -0.235966
C6    C     C_R   0.642227 0.445372 0.808103 -0.237689
C7    C     C_R   0.360390 0.560816 0.099483 0.116496
C8    C     C_R   0.641420 0.443234 0.900363 0.117473
C9    C     C_R   0.500391 0.500284 0.046379 0.051551
C10   C     C_R   0.501680 0.504215 0.953449 0.052055
C11   C     C_R   0.638792 0.435825 0.086340 0.061429
C12   C     C_R   0.455154 0.205374 0.503403 0.913531
C13   C     C_R   0.363269 0.568615 0.913459 0.063531
C14   C     C_R   0.224496 0.625214 0.060020 -0.244085
C15   C     C_R   0.777700 0.379470 0.939792 -0.244181
C16   C     C_1   0.081485 0.698385 0.929653 0.150051
C17   C     C_1   0.921345 0.307167 0.070061 0.153150
C18   C     C_3   0.878267 0.031091 0.470748 -0.704978
C19   C     C_3   0.342527 0.974452 0.673216 -0.750241
C20   C     C_R   0.224740 0.629925 0.967289 -0.003558
C21   C     C_R   0.777686 0.375097 0.032499 -0.004941
C22   C     C_2   0.569697 0.955794 0.488692 -0.031232
C23   C     C_2   0.438646 0.044704 0.520789 -0.037582
C24   C     C_R   0.501878 0.501901 0.673232 0.881404
C25   C     C_R   0.498219 0.498506 0.326733 0.884517
C26   C     C_R   0.634237 0.434677 0.179207 -0.248119
H1    H     H_    0.738055 0.386063 0.211789 0.171894
H2    H     H_    0.976568 0.092250 0.423855 0.219702
H3    H     H_    0.925960 0.916334 0.485178 0.235418
H4    H     H_    0.865020 0.100796 0.533965 0.246131
H5    H     H_    0.184656 0.043826 0.578335 0.235206
H6    H     H_    0.228815 0.922802 0.714577 0.239465
H7    H     H_    0.379700 0.090961 0.701581 0.228523
H8    H     H_    0.451589 0.897541 0.676376 0.234281
H9    H     H_    0.263439 0.617211 0.787917 0.170284
H10   H     H_    0.252584 0.604919 0.233031 0.159446
H11   H     H_    0.747992 0.396919 0.766897 0.158730
H12   H     H_    0.117839 0.671587 0.101596 0.154649
H13   H     H_    0.884332 0.333070 0.898204 0.154278
H14   H     H_    0.014926 0.384268 0.431588 0.193562
H15   H     H_    0.985291 0.616494 0.568071 0.194314
H16   H     H_    0.725226 0.952933 0.369651 0.218627
N1    N     N_2   0.950330 0.457950 0.475660 -0.177290
N2    N     N_2   0.049670 0.542050 0.524340 -0.175685
N3    N     N_1   0.966865 0.753224 0.899595 -0.206395
N4    N     N_1   0.036325 0.252744 0.100028 -0.202184
N5    N     N_2   0.714120 0.012778 0.430095 -0.293396
N6    N     N_2   0.297822 0.988090 0.581758 -0.296541
O1    O     O_R   0.389250 0.738570 0.505970 -0.591948
O2    O     O_R   0.610750 0.261430 0.494030 -0.585568
O3    O     O_R   0.678390 0.711620 0.490370 -0.633419
O4    O     O_R   0.321610 0.288380 0.509630 -0.643942
O5    O     O_R   0.355420 0.513510 0.639950 -0.618926
O6    O     O_R   0.644580 0.486490 0.360050 -0.621054
O7    O     O_R   0.644560 0.486560 0.624350 -0.634801
O8    O     O_R   0.355440 0.513440 0.375650 -0.633183
Zn1   Zn    Zn3+2 0.306940 0.517990 0.510420 0.943269
Zn2   Zn    Zn3+2 0.693060 0.482010 0.489580 0.943387

loop_
_geom_bond_atom_site_label_1
_geom_bond_atom_site_label_2
_ccdc_geom_bond_type
C2    H9    S    
C16   N3    T    
C2    C4    A    
N1    N2    D    
C10   C13   A    
C18   H4    S    
C14   H12   S    
C3    C26   A    
C9    C11   A    
C9    C10   A    
C12   O2    A    
C13   C20   A    
C25   O8    A    
C15   C21   A    
N2    Zn1   S    
C16   C20   S    
C18   N5    S    
C22   N5    S    
C6    H11   S    
O1    Zn1   S    
C1    C22   S    
C18   H3    S    
O8    Zn1   S    
C24   O7    A    
C17   N4    T    
C1    O3    A    
C12   C23   S    
C15   H13   S    
C26   H1    S    
N1    Zn2   S    
C19   H6    S    
C4    C6    A    
H16   N5    S    
C12   O4    A    
C8    C15   A    
C5    C7    A    
H5    N6    S    
C7    C14   A    
C19   H7    S    
C4    C24   S    
H15   N2    S    
O4    Zn1   S    
O2    Zn2   S    
C5    H10   S    
C14   C20   A    
C3    C25   S    
C18   H2    S    
C25   O6    A    
C8    C10   A    
O6    Zn2   S    
O7    Zn2   S    
O3    Zn2   S    
C7    C9    A    
C2    C13   A    
O5    Zn1   S    
C22   C23   D    
C6    C8    A    
C23   N6    S    
C11   C26   A    
C24   O5    A    
C19   N6    S    
C1    O1    A    
C11   C21   A    
H14   N1    S    
C17   C21   S    
C3    C5    A    
C19   H8    S    
