data_mof_unit_23550.cif
_audit_creation_date              2012-10-26T19:31:03-0400
_audit_creation_method            fapswitch 2.2
_symmetry_space_group_name_H-M    P1
_symmetry_Int_Tables_number       1
_space_group_crystal_system       triclinic
_cell_length_a                    14.622877
_cell_length_b                    15.878547
_cell_length_c                    17.371053
_cell_angle_alpha                 90.042493
_cell_angle_beta                  86.259817
_cell_angle_gamma                 90.035966
_cell_volume                      4024.79305235

loop_
_atom_site_label
_atom_site_type_symbol
_atom_type_description
_atom_site_fract_x
_atom_site_fract_y
_atom_site_fract_z
_atom_type_partial_charge
C1    C     C_R   0.500058 0.660547 0.499944 0.531877
C2    C     C_3   0.584962 0.027802 0.498106 0.299604
C3    C     C_3   0.501094 0.917140 0.499761 0.026001
C4    C     C_3   0.499028 0.082771 0.499861 0.026659
C5    C     C_1   0.500579 0.825595 0.499784 -0.026534
C6    C     C_1   0.499513 0.174339 0.499910 -0.019259
C7    C     C_3   0.028799 0.423030 0.523158 -0.143525
C8    C     C_3   0.971527 0.575940 0.475925 -0.147820
C9    C     C_3   0.964164 0.484415 0.569564 0.294958
C10   C     C_3   0.036215 0.514472 0.429621 0.293814
C11   C     C_3   0.973030 0.438866 0.451116 -0.133469
C12   C     C_R   0.499951 0.339437 0.499993 0.547854
C13   C     C_3   0.027189 0.560099 0.548059 -0.136395
C14   C     C_3   0.908554 0.499969 0.498901 -0.006590
C15   C     C_3   0.091633 0.499036 0.500367 -0.004794
C16   C     C_R   0.488370 0.499335 0.650384 0.553956
C17   C     C_R   0.511504 0.502565 0.349693 0.553038
C18   C     C_1   0.805863 0.499960 0.499620 0.157262
C19   C     C_1   0.194200 0.499547 0.500059 0.156459
C20   C     C_R   0.483387 0.495002 0.734941 -0.029746
C21   C     C_R   0.515665 0.510479 0.265351 -0.027303
C22   C     C_R   0.564871 0.482168 0.771911 -0.168248
C23   C     C_3   0.459408 0.027737 0.436549 -0.135175
C24   C     C_R   0.433524 0.505067 0.227976 -0.168572
C25   C     C_R   0.564131 0.477039 0.852320 0.264143
C26   C     C_R   0.432917 0.512306 0.147667 0.263176
C27   C     C_R   0.479538 0.479785 0.895382 -0.009159
C28   C     C_R   0.516755 0.525527 0.104782 0.000281
C29   C     C_R   0.397940 0.490738 0.859107 -0.146777
C30   C     C_R   0.598075 0.534769 0.141966 -0.142509
C31   C     C_R   0.399328 0.501365 0.779351 0.241109
C32   C     C_R   0.598124 0.528892 0.222045 0.244951
C33   C     C_2   0.475021 0.474555 0.979254 -0.051490
C34   C     C_3   0.540701 0.972161 0.563071 -0.136231
C35   C     C_2   0.521802 0.528919 0.020428 -0.062452
C36   C     C_3   0.691590 0.626708 0.270413 0.009528
C37   C     C_3   0.784112 0.640771 0.303352 -0.371421
C38   C     C_3   0.298384 0.601195 0.746478 0.005369
C39   C     C_3   0.208431 0.616548 0.709561 -0.363626
C40   C     C_3   0.290968 0.450680 0.133595 -0.025578
C41   C     C_3   0.221230 0.439518 0.073108 -0.382202
C42   C     C_3   0.711120 0.521917 0.870273 -0.020435
C43   C     C_3   0.783409 0.519035 0.929309 -0.375421
C44   C     C_3   0.739559 0.999151 0.494855 -0.005766
C45   C     C_3   0.547004 0.972106 0.434761 -0.135845
C46   C     C_3   0.834553 0.038444 0.493242 -0.366193
C47   C     C_3   0.260504 0.000483 0.504692 -0.006245
C48   C     C_3   0.165589 0.961001 0.506526 -0.368380
C49   C     C_3   0.987370 0.442607 0.693804 -0.004805
C50   C     C_3   0.947144 0.447769 0.776551 -0.378741
C51   C     C_3   0.014932 0.553341 0.304297 -0.013041
C52   C     C_3   0.058142 0.550113 0.222335 -0.372083
C53   C     C_3   0.453108 0.027786 0.564858 -0.136168
C54   C     C_1   0.500235 0.750136 0.499846 -0.025145
C55   C     C_1   0.499812 0.249815 0.499955 -0.011639
C56   C     C_3   0.415158 0.972087 0.501515 0.297555
Cu1   Cu    Cu3+1 0.409780 0.500000 0.499990 1.009668
Cu2   Cu    Cu3+1 0.590220 0.500000 0.500010 1.009748
H1    H     H_    0.629157 0.474396 0.738182 0.149821
H2    H     H_    0.948301 0.638285 0.455954 0.093451
H3    H     H_    0.637280 0.650773 0.312761 0.138127
H4    H     H_    0.690346 0.663649 0.215920 0.110307
H5    H     H_    0.839441 0.621350 0.260250 0.135454
H6    H     H_    0.792895 0.708510 0.316990 0.084730
H7    H     H_    0.789064 0.603381 0.356897 0.164652
H8    H     H_    0.353303 0.636970 0.713104 0.134660
H9    H     H_    0.291340 0.625593 0.806756 0.117774
H10   H     H_    0.151560 0.584984 0.743815 0.138665
H11   H     H_    0.194175 0.685175 0.707772 0.096007
H12   H     H_    0.369305 0.497225 0.261676 0.145444
H13   H     H_    0.212414 0.591445 0.649777 0.168248
H14   H     H_    0.568083 0.574144 0.991534 0.120156
H15   H     H_    0.429765 0.427985 0.007092 0.144198
H16   H     H_    0.333112 0.493646 0.893026 0.130187
H17   H     H_    0.662098 0.546452 0.108792 0.118911
H18   H     H_    0.252820 0.466586 0.189092 0.148731
H19   H     H_    0.327740 0.389680 0.139293 0.122324
H20   H     H_    0.256372 0.421725 0.016873 0.144336
H21   H     H_    0.171890 0.389055 0.091384 0.098468
H22   H     H_    0.182954 0.499128 0.066078 0.159967
H23   H     H_    0.048787 0.608804 0.589009 0.102312
H24   H     H_    0.681758 0.586779 0.870720 0.114267
H25   H     H_    0.745499 0.508597 0.812631 0.146347
H26   H     H_    0.815504 0.455668 0.929562 0.163699
H27   H     H_    0.837288 0.566777 0.914747 0.089196
H28   H     H_    0.751645 0.532871 0.987666 0.148112
H29   H     H_    0.735830 0.959348 0.442370 0.121084
H30   H     H_    0.730487 0.958896 0.547240 0.123404
H31   H     H_    0.841035 0.077899 0.545434 0.162965
H32   H     H_    0.887383 0.988155 0.492057 0.086124
H33   H     H_    0.846385 0.078321 0.441030 0.161773
H34   H     H_    0.951286 0.390167 0.410218 0.115173
H35   H     H_    0.269424 0.040569 0.452188 0.125008
H36   H     H_    0.264240 0.040469 0.557060 0.124270
H37   H     H_    0.153941 0.921262 0.558849 0.157757
H38   H     H_    0.112642 0.011184 0.507652 0.088738
H39   H     H_    0.159099 0.921365 0.454449 0.161768
H40   H     H_    0.050615 0.481899 0.689124 0.126341
H41   H     H_    0.005695 0.375866 0.680902 0.136406
H42   H     H_    0.884703 0.407951 0.783878 0.167469
H43   H     H_    0.998128 0.425204 0.816476 0.101059
H44   H     H_    0.929069 0.514056 0.791136 0.146682
H45   H     H_    0.585999 0.948079 0.382332 0.099981
H46   H     H_    0.993247 0.619274 0.317121 0.127266
H47   H     H_    0.953713 0.511299 0.307252 0.133469
H48   H     H_    0.077852 0.484344 0.207197 0.149958
H49   H     H_    0.008269 0.572599 0.181407 0.094059
H50   H     H_    0.120030 0.590831 0.217042 0.172076
H51   H     H_    0.414097 0.051778 0.617291 0.104527
H52   H     H_    0.425467 0.051693 0.385608 0.103650
H53   H     H_    0.574629 0.948194 0.614015 0.102275
H54   H     H_    0.052095 0.360610 0.542864 0.099540
N1    N     N_1   0.725810 0.500000 0.500030 -0.190979
N2    N     N_1   0.274190 0.500000 0.499970 -0.191906
O1    O     O_R   0.423830 0.620920 0.499990 -0.488762
O2    O     O_3   0.317655 0.514042 0.745287 -0.536775
O3    O     O_3   0.351461 0.516904 0.110641 -0.559557
O4    O     O_3   0.643477 0.460373 0.889404 -0.547728
O5    O     O_3   0.673330 0.063754 0.496360 -0.539300
O6    O     O_3   0.326855 0.936002 0.503281 -0.542850
O7    O     O_3   0.921589 0.470667 0.643725 -0.551331
O8    O     O_3   0.080046 0.527779 0.355861 -0.549240
O9    O     O_R   0.576170 0.379080 0.500010 -0.480273
O10   O     O_R   0.576200 0.620920 0.500000 -0.510027
O11   O     O_R   0.423800 0.379080 0.500000 -0.499823
O12   O     O_R   0.414980 0.500010 0.613590 -0.449744
O13   O     O_R   0.585020 0.499990 0.386410 -0.450408
O14   O     O_R   0.567350 0.500010 0.613600 -0.513444
O15   O     O_R   0.432650 0.499990 0.386400 -0.513304
O16   O     O_3   0.679541 0.539751 0.256971 -0.534146

loop_
_geom_bond_atom_site_label_1
_geom_bond_atom_site_label_2
_ccdc_geom_bond_type
Cu2   O14   S    
C8    C13   S    
C23   C45   S    
C48   H37   S    
C4    C53   S    
C27   C29   A    
C39   H10   S    
C14   C18   S    
C2    C4    S    
C42   H24   S    
C26   O3    S    
C6    C55   T    
C1    C54   S    
C25   O4    S    
C41   H22   S    
C32   O16   S    
C24   H12   S    
C23   C56   S    
Cu1   O1    S    
C46   H31   S    
C27   C33   S    
C15   C19   S    
C48   H39   S    
Cu2   O9    S    
C19   N2    T    
Cu1   O15   S    
C36   C37   S    
C24   C26   A    
C10   C15   S    
Cu1   O11   S    
C38   C39   S    
C11   C14   S    
C53   H51   S    
C13   H23   S    
C7    H54   S    
C9    C13   S    
C45   H45   S    
C49   H40   S    
C11   H34   S    
C38   H8    S    
C28   C35   S    
C22   C25   A    
C37   H7    S    
Cu2   N1    S    
C9    O7    S    
C44   H29   S    
C16   C20   S    
C2    C34   S    
C7    C15   S    
C40   O3    S    
C52   H48   S    
Cu2   O13   S    
C43   H26   S    
C56   O6    S    
C36   H4    S    
C18   N1    T    
C37   H5    S    
C44   C46   S    
C2    C45   S    
C47   H35   S    
C21   C32   A    
C17   O15   A    
C51   C52   S    
C43   H27   S    
C5    C54   T    
C52   H49   S    
C4    C6    S    
C22   H1    S    
C4    C23   S    
C42   O4    S    
C29   H16   S    
C3    C34   S    
C3    C5    S    
C51   H46   S    
C3    C45   S    
C17   C21   S    
C40   H18   S    
C7    C11   S    
C9    C14   S    
C41   H20   S    
C36   O16   S    
C49   H41   S    
C38   O2    S    
C3    C56   S    
C47   C48   S    
C51   H47   S    
C49   O7    S    
C39   H11   S    
C16   O14   A    
C50   H43   S    
C46   H32   S    
C33   H15   S    
C40   C41   S    
C20   C22   A    
C35   H14   S    
C50   H44   S    
C13   C15   S    
C42   C43   S    
C36   H3    S    
C31   O2    S    
Cu1   O12   S    
C37   H6    S    
C53   C56   S    
C34   H53   S    
C7    C9    S    
C23   H52   S    
C47   O6    S    
C8    C14   S    
C48   H38   S    
C43   H28   S    
C50   H42   S    
C17   O13   A    
C42   H25   S    
Cu2   O10   S    
C10   O8    S    
C41   H21   S    
C2    O5    S    
Cu1   N2    S    
C12   O11   A    
C25   C27   A    
C26   C28   A    
C44   O5    S    
C28   C30   A    
C1    O10   A    
C29   C31   A    
C8    H2    S    
C30   C32   A    
C30   H17   S    
Cu1   Cu2   S    
C12   O9    A    
C33   C35   D    
C47   H36   S    
C12   C55   S    
C10   C11   S    
C38   H9    S    
C52   H50   S    
C34   C53   S    
C8    C10   S    
C49   C50   S    
C21   C24   A    
C51   O8    S    
C39   H13   S    
C40   H19   S    
C1    O1    A    
C44   H30   S    
C16   O12   A    
C46   H33   S    
C20   C31   A    
