data_mof_unit_57184.cif
_audit_creation_date              2012-10-26T20:22:05-0400
_audit_creation_method            fapswitch 2.2
_symmetry_space_group_name_H-M    P1
_symmetry_Int_Tables_number       1
_space_group_crystal_system       triclinic
_cell_length_a                    10.826876
_cell_length_b                    9.646418
_cell_length_c                    10.616949
_cell_angle_alpha                 90.337147
_cell_angle_beta                  92.930888
_cell_angle_gamma                 90.001928
_cell_volume                      1107.37055529

loop_
_atom_site_label
_atom_site_type_symbol
_atom_type_description
_atom_site_fract_x
_atom_site_fract_y
_atom_site_fract_z
_atom_type_partial_charge
C1    C     C_R   0.871598 0.499686 0.499912 0.008910
C2    C     C_3   0.505019 0.368157 0.039740 -0.077069
C3    C     C_3   0.401271 0.430647 0.952199 -0.102518
C4    C     C_3   0.600111 0.569555 0.047782 -0.124918
C5    C     C_3   0.500622 0.501407 0.877483 0.033996
C6    C     C_3   0.500693 0.498765 0.122477 0.030269
C7    C     C_R   0.425484 0.073565 0.415064 0.130757
C8    C     C_R   0.582063 0.926599 0.577553 0.128886
C9    C     C_R   0.574399 0.074701 0.584943 0.133603
C10   C     C_R   0.417707 0.925556 0.422747 0.134833
C11   C     C_R   0.063861 0.373676 0.498736 -0.126651
C12   C     C_R   0.128411 0.499679 0.500256 0.009255
C13   C     C_R   0.936196 0.625495 0.500824 -0.115487
C14   C     C_R   0.936017 0.373678 0.498955 -0.126578
C15   C     C_R   0.063952 0.625484 0.501960 -0.114225
C16   C     C_2   0.356350 0.145198 0.310138 0.305773
C17   C     C_2   0.683854 0.855355 0.650612 0.290466
C18   C     C_2   0.643028 0.147790 0.689909 0.319364
C19   C     C_2   0.315050 0.853400 0.351057 0.300740
C20   C     C_R   0.262447 0.499940 0.499965 0.539232
C21   C     C_R   0.737556 0.499944 0.500092 0.538922
C22   C     C_R   0.500112 0.499570 0.259567 0.547697
C23   C     C_R   0.500443 0.500449 0.740425 0.547522
C24   C     C_3   0.397037 0.561211 0.037115 -0.129137
C25   C     C_3   0.604340 0.439067 0.962772 -0.120066
C26   C     C_3   0.496428 0.632097 0.960144 -0.107378
Cu1   Cu    Cu3+1 0.500000 0.640660 0.500000 0.932832
Cu2   Cu    Cu3+1 0.500000 0.359340 0.500000 0.937182
H1    H     H_    0.319947 0.373882 0.910000 0.142548
H2    H     H_    0.111854 0.723953 0.504328 0.185666
H3    H     H_    0.306602 0.239951 0.324507 0.147966
H4    H     H_    0.670358 0.758588 0.697461 0.153543
H5    H     H_    0.698130 0.238349 0.674239 0.137694
H6    H     H_    0.328256 0.756827 0.302696 0.150211
H7    H     H_    0.681456 0.626228 0.090046 0.138313
H8    H     H_    0.312258 0.611085 0.070707 0.126264
H9    H     H_    0.689110 0.389241 0.929112 0.143173
H10   H     H_    0.493020 0.740257 0.924935 0.155287
H11   H     H_    0.509505 0.259896 0.074330 0.191951
H12   H     H_    0.111799 0.275148 0.497492 0.151233
H13   H     H_    0.888410 0.723985 0.500623 0.185163
H14   H     H_    0.887970 0.275148 0.498140 0.150499
N1    N     N_R   0.500000 0.852070 0.500000 -0.309409
N2    N     N_R   0.500000 0.147930 0.500000 -0.311139
O1    O     O_R   0.319640 0.618740 0.499990 -0.516558
O2    O     O_2   0.787490 0.905711 0.658579 -0.530666
O3    O     O_2   0.637962 0.105939 0.797877 -0.515349
O4    O     O_2   0.211099 0.902919 0.345872 -0.528249
O5    O     O_R   0.680360 0.381260 0.500010 -0.533171
O6    O     O_R   0.680360 0.618740 0.500010 -0.516990
O7    O     O_R   0.319640 0.381260 0.499990 -0.533713
O8    O     O_R   0.499970 0.618770 0.316850 -0.525056
O9    O     O_R   0.500030 0.381230 0.683150 -0.499609
O10   O     O_R   0.500030 0.618770 0.683150 -0.532156
O11   O     O_R   0.499970 0.381230 0.316850 -0.511924
O12   O     O_2   0.354790 0.097301 0.203330 -0.521734

loop_
_geom_bond_atom_site_label_1
_geom_bond_atom_site_label_2
_ccdc_geom_bond_type
C7    C10   A    
C4    C26   S    
C11   C12   A    
Cu1   O6    S    
C1    C21   S    
C22   O11   A    
C12   C15   A    
C2    C25   S    
Cu2   O5    S    
C8    C17   S    
C5    C23   S    
C8    N1    A    
C10   C19   S    
C14   H14   S    
C6    C24   S    
C18   O3    D    
Cu1   O1    S    
C13   H13   S    
C4    C25   S    
C4    H7    S    
C11   C14   A    
C24   H8    S    
C7    N2    A    
Cu1   O8    S    
Cu2   O9    S    
C12   C20   S    
C3    C24   S    
C2    C6    S    
C16   O12   D    
C23   O10   A    
C5    C25   S    
C21   O5    A    
C21   O6    A    
Cu2   O7    S    
Cu2   O11   S    
C24   C26   S    
C23   O9    A    
C20   O7    A    
C2    C3    S    
C13   C15   A    
C11   H12   S    
C18   H5    S    
Cu1   O10   S    
C4    C6    S    
C1    C13   A    
C5    C26   S    
C6    C22   S    
Cu1   N1    S    
C9    C18   S    
C17   O2    D    
C15   H2    S    
C22   O8    A    
Cu1   Cu2   S    
C3    H1    S    
C17   H4    S    
C19   O4    D    
C26   H10   S    
C9    N2    A    
C1    C14   A    
C3    C5    S    
C25   H9    S    
C10   N1    A    
C2    H11   S    
Cu2   N2    S    
C7    C16   S    
C20   O1    A    
C8    C9    A    
C16   H3    S    
C19   H6    S    
