data_mof_unit_53072.cif
_audit_creation_date              2012-12-10T18:18:19-0500
_audit_creation_method            fapswitch 2.2
_symmetry_space_group_name_H-M    P1
_symmetry_Int_Tables_number       1
_space_group_crystal_system       triclinic
_cell_length_a                    14.089862
_cell_length_b                    14.966655
_cell_length_c                    15.610633
_cell_angle_alpha                 88.618396
_cell_angle_beta                  68.539029
_cell_angle_gamma                 89.267984
_cell_volume                      3062.78224962

loop_
_atom_site_label
_atom_site_type_symbol
_atom_type_description
_atom_site_fract_x
_atom_site_fract_y
_atom_site_fract_z
_atom_type_partial_charge
C1    C     C_R   0.499516 0.673243 0.500038 0.875608
C2    C     C_R   0.500471 0.326765 0.499918 0.877691
C3    C     C_R   0.376707 0.521691 0.100489 0.440982
C4    C     C_R   0.623581 0.519422 0.896087 0.472853
C5    C     C_R   0.307676 0.543645 0.057342 -0.024822
C6    C     C_R   0.694831 0.499703 0.936693 -0.017149
C7    C     C_R   0.408356 0.185832 0.535364 -0.243471
C8    C     C_R   0.591587 0.814188 0.465243 -0.245307
C9    C     C_R   0.500891 0.231082 0.499837 -0.078192
C10   C     C_R   0.499012 0.768943 0.499702 -0.084181
C11   C     C_R   0.593305 0.185367 0.463688 -0.262308
C12   C     C_R   0.406413 0.814675 0.534552 -0.266121
C13   C     C_R   0.594597 0.092519 0.463911 0.101384
C14   C     C_R   0.405120 0.907490 0.535214 0.111368
C15   C     C_R   0.500467 0.046475 0.499632 0.023465
C16   C     C_R   0.499291 0.953535 0.499796 0.021649
C17   C     C_R   0.407356 0.093568 0.535345 0.105807
C18   C     C_R   0.592493 0.906444 0.464854 0.103793
C19   C     C_R   0.687531 0.044981 0.429589 0.097490
C20   C     C_R   0.312287 0.955018 0.571161 0.095715
C21   C     C_R   0.685405 0.951739 0.430251 -0.259161
C22   C     C_R   0.314501 0.048256 0.570888 -0.260711
C23   C     C_R   0.436564 0.499731 0.675250 0.871867
C24   C     C_R   0.563533 0.501617 0.324533 0.859658
C25   C     C_R   0.173840 0.459774 0.571337 -0.193379
C26   C     C_R   0.825637 0.542037 0.430203 -0.197116
C27   C     C_R   0.228055 0.544841 0.431289 0.579743
C28   C     C_R   0.771005 0.455201 0.569065 0.564129
C29   C     C_R   0.128624 0.542283 0.428791 -0.104404
C30   C     C_R   0.869751 0.459545 0.573785 -0.139576
C31   C     C_R   0.049642 0.501344 0.501794 0.013858
C32   C     C_R   0.948835 0.500907 0.501038 0.015437
C33   C     C_R   0.071528 0.460758 0.575188 -0.010542
C34   C     C_R   0.927203 0.541873 0.427543 0.001162
C35   C     C_R   0.106907 0.579645 0.354571 -0.189497
C36   C     C_R   0.890933 0.424023 0.649379 -0.140826
C37   C     C_R   0.007912 0.581193 0.353631 0.079174
C38   C     C_R   0.990308 0.422927 0.650136 0.100689
C39   C     C_R   0.397554 0.506744 0.774641 -0.092946
C40   C     C_R   0.602973 0.503789 0.224242 -0.096920
C41   C     C_R   0.268254 0.549949 0.917859 -0.157458
C42   C     C_R   0.733621 0.475695 0.076460 -0.183349
C43   C     C_R   0.298451 0.536386 0.823784 -0.221405
C44   C     C_R   0.702257 0.476900 0.172046 -0.188899
C45   C     C_R   0.465287 0.491512 0.819338 -0.193564
C46   C     C_R   0.536826 0.529694 0.180603 -0.211375
C47   C     C_R   0.441590 0.517063 0.909879 0.046553
C48   C     C_R   0.560207 0.513965 0.087491 0.066906
C49   C     C_R   0.338965 0.538811 0.962012 0.099342
C50   C     C_R   0.663415 0.494709 0.032989 0.048953
C51   C     C_R   0.516826 0.517966 0.950131 -0.171862
C52   C     C_R   0.484327 0.518857 0.047401 -0.151410
H1    H     H_    0.193504 0.427854 0.625493 0.156655
H2    H     H_    0.806031 0.574534 0.376287 0.157372
H3    H     H_    0.167373 0.607547 0.296079 0.202281
H4    H     H_    0.830195 0.396523 0.708812 0.200979
H5    H     H_    0.467267 0.563002 0.220639 0.239116
H6    H     H_    0.536589 0.458647 0.782474 0.235963
H7    H     H_    0.755530 0.457979 0.204794 0.151084
H8    H     H_    0.244641 0.548532 0.789884 0.156592
H9    H     H_    0.189813 0.568975 0.955468 0.162131
H10   H     H_    0.812227 0.458483 0.037555 0.131205
H11   H     H_    0.337093 0.222526 0.563635 0.152250
H12   H     H_    0.662973 0.777508 0.438047 0.152938
H13   H     H_    0.663733 0.222649 0.435071 0.169618
H14   H     H_    0.335917 0.777393 0.562340 0.170967
H15   H     H_    0.756347 0.914405 0.404170 0.139061
H16   H     H_    0.243661 0.085572 0.598256 0.139934
N1    N     N_R   0.249980 0.499930 0.499960 -0.145503
N2    N     N_R   0.750020 0.500070 0.500040 -0.144422
O1    O     O_R   0.419720 0.632140 0.499980 -0.645175
O2    O     O_R   0.580280 0.367860 0.500020 -0.620790
O3    O     O_R   0.580270 0.632160 0.499970 -0.622173
O4    O     O_R   0.419730 0.367840 0.500030 -0.621371
O5    O     O_R   0.373870 0.499980 0.632250 -0.629095
O6    O     O_R   0.626130 0.500020 0.367750 -0.626704
O7    O     O_R   0.534420 0.500000 0.632240 -0.570228
O8    O     O_R   0.465580 0.500000 0.367760 -0.577868
Zn1   Zn    Zn3+2 0.392800 0.499980 0.500010 0.949041
Zn2   Zn    Zn3+2 0.607200 0.500020 0.499990 0.954907
N3    N     N_3   0.203904 0.566245 0.110606 -0.467487
H17   H     H_    0.204259 0.625554 0.144338 0.203832
H18   H     H_    0.171338 0.515508 0.159199 0.217053
N4    N     N_3   0.799952 0.490617 0.878039 -0.421593
H19   H     H_    0.825308 0.426831 0.888526 0.189496
H20   H     H_    0.842696 0.538505 0.895606 0.177350
O9    O     O_3   0.304804 0.587530 0.360186 -0.623043
C53   C     C_3   0.313612 0.678106 0.380863 0.125436
H21   H     H_    0.395853 0.690372 0.364845 0.186934
H22   H     H_    0.271343 0.695120 0.454426 0.113415
C54   C     C_3   0.280637 0.741933 0.318614 -0.429681
H23   H     H_    0.310085 0.717321 0.246916 0.245173
H24   H     H_    0.196133 0.745454 0.343787 0.216894
C55   C     C_3   0.320846 0.836267 0.318409 -0.935498
H25   H     H_    0.293032 0.862437 0.389295 0.263457
H26   H     H_    0.293587 0.881243 0.274562 0.267003
H27   H     H_    0.405570 0.836298 0.290366 0.266164
O10   O     O_3   0.693316 0.410241 0.636918 -0.615394
C56   C     C_3   0.705642 0.317084 0.623070 0.072981
H28   H     H_    0.774551 0.291806 0.634595 0.120649
H29   H     H_    0.713471 0.299834 0.551878 0.145343
C57   C     C_3   0.612371 0.269549 0.691702 -0.306667
H30   H     H_    0.599403 0.292224 0.762424 0.219635
H31   H     H_    0.543880 0.287314 0.675500 0.218346
C58   C     C_3   0.626473 0.168255 0.689432 -0.962615
H32   H     H_    0.644065 0.143714 0.618833 0.271351
H33   H     H_    0.555298 0.135852 0.736184 0.268639
H34   H     H_    0.689729 0.148994 0.712675 0.260903
N5    N     N_3   0.992094 0.622793 0.276257 -0.481823
H35   H     H_    0.939751 0.675104 0.299816 0.180557
H36   H     H_    0.961599 0.575513 0.245398 0.183306
N6    N     N_3   0.006059 0.383095 0.728291 -0.481317
H37   H     H_    0.057856 0.330236 0.705842 0.175776
H38   H     H_    0.037376 0.431089 0.757675 0.180186
O11   O     O_3   0.335652 0.502243 0.194029 -0.645811
C59   C     C_3   0.344764 0.409672 0.211391 0.120095
H39   H     H_    0.363830 0.403059 0.274305 0.195671
H40   H     H_    0.406968 0.374970 0.155686 0.121291
C60   C     C_3   0.243317 0.362543 0.229603 -0.386818
H41   H     H_    0.180896 0.398926 0.282791 0.240572
H42   H     H_    0.227051 0.362439 0.165131 0.214377
C61   C     C_3   0.246080 0.266231 0.262978 -0.947505
H43   H     H_    0.307397 0.228080 0.210598 0.265045
H44   H     H_    0.171846 0.233706 0.274738 0.265630
H45   H     H_    0.259684 0.264625 0.328763 0.267627
O12   O     O_3   0.661016 0.540841 0.802867 -0.621833
C62   C     C_3   0.657404 0.634575 0.791297 0.085486
H46   H     H_    0.704656 0.668221 0.824669 0.135665
H47   H     H_    0.577441 0.659701 0.821315 0.143277
C63   C     C_3   0.699868 0.658186 0.688418 -0.292409
H48   H     H_    0.780988 0.636728 0.658160 0.222114
H49   H     H_    0.656123 0.622136 0.653732 0.261853
C64   C     C_3   0.692690 0.758283 0.670711 -0.970705
H50   H     H_    0.611779 0.780591 0.697894 0.271163
H51   H     H_    0.724902 0.772759 0.595442 0.269701
H52   H     H_    0.736497 0.796247 0.704078 0.262135
N7    N     N_3   0.783368 0.091388 0.394792 -0.469288
H53   H     H_    0.795123 0.118760 0.451099 0.169217
H54   H     H_    0.843504 0.046647 0.365252 0.184186
N8    N     N_3   0.216566 0.908627 0.608768 -0.467631
H55   H     H_    0.201880 0.881387 0.553877 0.170162
H56   H     H_    0.156981 0.953336 0.640215 0.183883

loop_
_geom_bond_atom_site_label_1
_geom_bond_atom_site_label_2
_ccdc_geom_bond_type
O9    C53   S    
O12   C62   S    
C27   C29   A    
C18   C21   A    
C53   H22   S    
N8    H55   S    
C41   H9    S    
N6    H38   S    
N3    H17   S    
C47   C49   A    
C40   C46   A    
C58   H33   S    
C1    O1    A    
O5    Zn1   S    
C35   C37   A    
N4    H20   S    
N5    H36   S    
C3    C52   A    
O7    Zn2   S    
C44   H7    S    
C15   C16   A    
C34   C37   A    
C5    N3    S    
C59   H39   S    
C57   C58   S    
C15   C17   A    
C45   C47   A    
C55   H26   S    
C26   C34   A    
C31   C32   A    
C7    C17   A    
C64   H52   S    
C31   C33   A    
C42   H10   S    
C37   N5    S    
C27   N1    A    
C39   C45   A    
C48   C50   A    
C25   H1    S    
C41   C43   A    
C5    C49   A    
C57   H30   S    
C42   C44   A    
C2    O2    A    
C26   H2    S    
C41   C49   A    
N6    H37   S    
N3    H18   S    
C60   H42   S    
C58   H34   S    
C46   C48   A    
C45   H6    S    
C6    N4    S    
C13   C19   A    
C4    C51   A    
N2    Zn2   S    
C51   C52   A    
C14   C20   A    
N4    H19   S    
C4    C6    A    
C54   H23   S    
O8    Zn1   S    
C24   O6    A    
C39   C43   A    
C55   H27   S    
C35   H3    S    
C6    C50   A    
O1    Zn1   S    
O2    Zn2   S    
C32   C34   A    
C63   H49   S    
C62   H47   S    
C36   H4    S    
C54   H24   S    
N7    H54   S    
C56   H28   S    
C53   C54   S    
C40   C44   A    
C19   N7    S    
C7    H11   S    
C16   C18   A    
C23   O7    A    
C57   H31   S    
C9    C11   A    
C22   H16   S    
C10   C12   A    
C43   H8    S    
C42   C50   A    
C24   O8    A    
C56   H29   S    
C8    H12   S    
O4    Zn1   S    
C13   C15   A    
C46   H5    S    
C64   H50   S    
C26   N2    A    
C14   C16   A    
N1    Zn1   S    
C63   C64   S    
C25   N1    A    
C20   C22   A    
C38   N6    S    
C62   H46   S    
N7    H53   S    
C60   C61   S    
C28   O10   S    
C7    C9    A    
C19   C21   A    
C28   N2    A    
C1    C10   S    
O6    Zn2   S    
C23   O5    A    
C3    C5    A    
C2    O4    A    
C47   C51   A    
C60   H41   S    
N8    H56   S    
C30   C36   A    
C58   H32   S    
C29   C35   A    
C17   C22   A    
C59   C60   S    
C4    O12   S    
C1    O3    A    
C20   N8    S    
C61   H45   S    
C28   C30   A    
C63   H48   S    
C12   C14   A    
C62   C63   S    
C29   C31   A    
C3    O11   S    
N5    H35   S    
C27   O9    S    
C54   C55   S    
C30   C32   A    
C11   C13   A    
C12   H14   S    
C23   C39   S    
C36   C38   A    
C24   C40   S    
O3    Zn2   S    
C59   H40   S    
C55   H25   S    
C8    C18   A    
C11   H13   S    
C48   C52   A    
C56   C57   S    
C53   H21   S    
C8    C10   A    
O10   C56   S    
C64   H51   S    
C33   C38   A    
C61   H43   S    
C2    C9    S    
C61   H44   S    
C21   H15   S    
O11   C59   S    
C25   C33   A    
