data_mof_unit_67676.cif
_audit_creation_date              2013-03-05T16:48:54-0500
_audit_creation_method            fapswitch 2.2
_symmetry_space_group_name_H-M    P1
_symmetry_Int_Tables_number       1
_space_group_crystal_system       triclinic
_cell_length_a                    11.008002
_cell_length_b                    11.215693
_cell_length_c                    13.011983
_cell_angle_alpha                 91.330185
_cell_angle_beta                  91.016426
_cell_angle_gamma                 91.817504
_cell_volume                      1604.9749607

loop_
_atom_site_label
_atom_site_type_symbol
_atom_site_description
_atom_site_fract_x
_atom_site_fract_y
_atom_site_fract_z
_atom_type_partial_charge
O1    O     O_R   0.313000 0.493330 0.412070 -0.572333
O2    O     O_R   0.687000 0.506670 0.587930 -0.582296
O3    O     O_R   0.326280 0.506660 0.587930 -0.542820
O4    O     O_R   0.673720 0.493340 0.412070 -0.609478
C1    C     C_R   0.262213 0.499227 0.501628 0.769455
C2    C     C_R   0.737310 0.500208 0.498687 0.810572
O5    O     O_R   0.493370 0.312980 0.412070 -0.556603
O6    O     O_R   0.506630 0.687020 0.587930 -0.520046
O7    O     O_R   0.506650 0.326310 0.587930 -0.572431
O8    O     O_R   0.493350 0.673690 0.412070 -0.605623
C3    C     C_R   0.497259 0.262111 0.501551 0.854257
C4    C     C_R   0.500770 0.737754 0.498396 0.822241
Cu1   Cu    Cu3+1 0.492140 0.492110 0.395880 0.969328
Cu2   Cu    Cu3+1 0.507860 0.507890 0.604120 1.038849
H1    H     H_    0.591587 0.281402 0.957696 0.250318
H2    H     H_    0.245951 0.721667 0.075443 0.180949
C5    C     C_R   0.676823 0.234703 0.814619 0.363333
C6    C     C_R   0.247049 0.732654 0.240778 0.370009
C7    C     C_R   0.659916 0.178181 0.719107 -0.153791
C8    C     C_R   0.300894 0.788599 0.327235 -0.157953
H3    H     H_    0.736238 0.171606 0.668263 0.193949
H4    H     H_    0.265970 0.768424 0.401895 0.205043
C9    C     C_R   0.546328 0.128474 0.689576 -0.066437
C10   C     C_R   0.400597 0.868451 0.318873 -0.031524
C11   C     C_R   0.444562 0.148746 0.752205 0.322915
C12   C     C_R   0.450360 0.888364 0.220731 0.339861
C13   C     C_R   0.463315 0.195325 0.852137 0.455515
C14   C     C_R   0.395370 0.832237 0.132285 0.428174
C15   C     C_R   0.578774 0.240616 0.882361 -0.375450
C16   C     C_R   0.291607 0.758994 0.143397 -0.401355
C17   C     C_R   0.543906 0.939123 0.584018 0.414766
C18   C     C_R   0.441723 0.059579 0.418217 0.405053
C19   C     C_R   0.499583 0.872042 0.496763 -0.243699
C20   C     C_R   0.492084 0.127297 0.503140 -0.254201
C21   C     C_R   0.449442 0.933585 0.412908 -0.116306
C22   C     C_R   0.532561 0.064923 0.589413 -0.103422
C23   C     C_R   0.255809 0.687751 0.796989 0.365519
C24   C     C_R   0.768710 0.352253 0.178774 0.315970
C25   C     C_R   0.175760 0.612001 0.738857 0.263986
C26   C     C_R   0.849452 0.408015 0.251538 0.265065
C27   C     C_R   0.128078 0.652429 0.645113 -0.144776
C28   C     C_R   0.865582 0.357211 0.348227 -0.134216
C29   C     C_R   0.158407 0.768494 0.611842 0.296384
C30   C     C_R   0.793803 0.256013 0.375001 0.306334
C31   C     C_R   0.246549 0.836479 0.666202 -0.325286
C32   C     C_R   0.705748 0.210726 0.305631 -0.248545
H5    H     H_    0.277202 0.920261 0.635254 0.189775
H6    H     H_    0.646180 0.139920 0.329883 0.188451
C33   C     C_R   0.297784 0.794588 0.757297 0.400012
C34   C     C_R   0.690043 0.260236 0.208738 0.377106
C35   C     C_R   0.937009 0.567047 0.571803 -0.329398
C36   C     C_R   0.061030 0.428404 0.429825 -0.187062
H7    H     H_    0.889780 0.623907 0.625406 0.157285
H8    H     H_    0.108011 0.374758 0.374203 0.144059
C37   C     C_R   0.871099 0.497992 0.498327 -0.088607
C38   C     C_R   0.127578 0.497458 0.503735 -0.038709
C39   C     C_R   0.933853 0.427952 0.427282 0.105948
C40   C     C_R   0.063865 0.567690 0.574538 0.103136
N1    N     N_1   0.480320 0.480250 0.239400 -0.203491
N2    N     N_1   0.519680 0.519750 0.760600 -0.157145
C41   C     C_2   0.465009 0.484415 0.033630 0.373525
C42   C     C_2   0.549949 0.530267 0.965888 0.305934
C43   C     C_1   0.527547 0.522107 0.850928 0.236309
C44   C     C_1   0.479879 0.484763 0.148954 0.170065
O9    O     O_3   0.110466 0.815911 0.523704 -0.769335
H9    H     H_    0.039629 0.766857 0.498572 0.344707
O10   O     O_3   0.799312 0.204768 0.470308 -0.767336
H10   H     H_    0.868089 0.240960 0.510964 0.319852
O11   O     O_3   0.658010 0.586402 0.004981 -0.649544
C45   C     C_3   0.742050 0.613005 0.925382 0.027094
H11   H     H_    0.701906 0.675009 0.869697 0.144412
H12   H     H_    0.766232 0.529570 0.883560 0.171761
C46   C     C_3   0.860448 0.672947 0.967009 -0.357579
H13   H     H_    0.840243 0.748457 0.019779 0.223207
H14   H     H_    0.914388 0.607492 0.009291 0.209953
C47   C     C_3   0.938435 0.720664 0.880298 -0.991244
H15   H     H_    0.937537 0.656901 0.814114 0.246062
H16   H     H_    0.033369 0.735835 0.908492 0.255904
H17   H     H_    0.904136 0.806221 0.853241 0.255107
O12   O     O_3   0.363337 0.424032 0.990048 -0.581024
C48   C     C_3   0.257329 0.433316 0.050104 0.087587
H18   H     H_    0.179348 0.427972 0.995812 0.157640
H19   H     H_    0.252503 0.520746 0.090466 0.101112
C49   C     C_3   0.242341 0.332654 0.126969 -0.311053
H20   H     H_    0.290905 0.253822 0.101357 0.260722
H21   H     H_    0.282697 0.361550 0.202287 0.215952
C50   C     C_3   0.108859 0.298792 0.143447 -0.969954
H22   H     H_    0.070215 0.367084 0.194391 0.298503
H23   H     H_    0.101149 0.210558 0.179755 0.257175
H24   H     H_    0.054996 0.293573 0.070492 0.248328
O13   O     O_3   0.790509 0.281774 0.839295 -0.773593
H25   H     H_    0.790419 0.312944 0.910697 0.349304
O14   O     O_3   0.151514 0.652578 0.254052 -0.706256
H26   H     H_    0.118008 0.626931 0.185597 0.331035
O15   O     O_3   0.326307 0.124480 0.719522 -0.768108
H27   H     H_    0.322454 0.120458 0.643635 0.311852
O16   O     O_3   0.550179 0.963069 0.209278 -0.768772
H28   H     H_    0.598801 0.963547 0.273593 0.325586
O17   O     O_3   0.366466 0.206041 0.917757 -0.562954
C51   C     C_3   0.327853 0.093025 0.954007 0.105863
H29   H     H_    0.353117 0.087919 0.036627 0.167667
H30   H     H_    0.371286 0.017654 0.916284 0.200017
C52   C     C_3   0.190256 0.074845 0.939769 -0.338834
H31   H     H_    0.144060 0.153978 0.969696 0.224239
H32   H     H_    0.167086 0.062998 0.856776 0.250566
C53   C     C_3   0.142493 0.965892 0.995927 -0.889637
H33   H     H_    0.185256 0.884602 0.965208 0.291763
H34   H     H_    0.042512 0.956123 0.984067 0.255000
H35   H     H_    0.162365 0.976075 0.079720 0.258475
O18   O     O_3   0.430175 0.856052 0.032514 -0.590049
C54   C     C_3   0.556831 0.849740 0.017092 0.193799
H36   H     H_    0.568539 0.788347 0.950793 0.190570
H37   H     H_    0.608488 0.811778 0.082413 0.150837
C55   C     C_3   0.608053 0.972384 0.986488 -0.326656
H38   H     H_    0.586321 0.985990 0.904140 0.188500
H39   H     H_    0.563945 0.042978 0.031390 0.286594
C56   C     C_3   0.744953 0.987604 0.003158 -0.879667
H40   H     H_    0.771620 0.966364 0.083082 0.267094
H41   H     H_    0.773734 0.081507 0.989148 0.281666
H42   H     H_    0.792138 0.929793 0.948075 0.235224
O19   O     O_3   0.584299 0.876826 0.668366 -0.588102
C57   C     C_3   0.708591 0.896700 0.695461 0.066287
H43   H     H_    0.738137 0.814697 0.733330 0.164632
H44   H     H_    0.717530 0.967128 0.756094 0.156993
C58   C     C_3   0.797033 0.919603 0.606936 -0.428473
H45   H     H_    0.802610 0.837794 0.557584 0.217253
H46   H     H_    0.767511 0.993557 0.558355 0.256057
C59   C     C_3   0.922283 0.954813 0.651295 -0.879015
H47   H     H_    0.915420 0.029632 0.707966 0.253287
H48   H     H_    0.982753 0.984329 0.589133 0.301832
H49   H     H_    0.962072 0.878111 0.690363 0.266898
O20   O     O_3   0.381662 0.115523 0.339180 -0.594134
C60   C     C_3   0.266948 0.152645 0.373225 0.060467
H50   H     H_    0.238200 0.224667 0.323023 0.175978
H51   H     H_    0.269402 0.191796 0.452767 0.097309
C61   C     C_3   0.171959 0.050458 0.365269 -0.380784
H52   H     H_    0.169091 0.011134 0.286029 0.226055
H53   H     H_    0.197114 0.981422 0.420312 0.265449
C62   C     C_3   0.046730 0.092934 0.392711 -0.868399
H54   H     H_    0.049910 0.138162 0.469551 0.252190
H55   H     H_    0.981907 0.015499 0.394484 0.281606
H56   H     H_    0.014541 0.155490 0.334412 0.250415
O21   O     O_3   0.393488 0.852655 0.807438 -0.679678
H57   H     H_    0.413929 0.924961 0.769398 0.342326
O22   O     O_3   0.595647 0.223948 0.143473 -0.724955
H58   H     H_    0.534259 0.179241 0.183313 0.373428
O23   O     O_3   0.301843 0.655468 0.890436 -0.701381
H59   H     H_    0.241762 0.599338 0.919303 0.314141
O24   O     O_3   0.759723 0.390903 0.079994 -0.732670
H60   H     H_    0.836941 0.433342 0.063956 0.330273
O25   O     O_3   0.179548 0.491289 0.756393 -0.544536
C63   C     C_3   0.069600 0.446888 0.796174 0.058892
H61   H     H_    0.989520 0.465841 0.747113 0.172904
H62   H     H_    0.054430 0.486157 0.873734 0.083450
C64   C     C_3   0.080416 0.312269 0.803585 -0.285717
H63   H     H_    0.171243 0.293559 0.836407 0.284740
H64   H     H_    0.011517 0.275203 0.855991 0.195290
C65   C     C_3   0.067059 0.251051 0.697854 -0.743445
H65   H     H_    0.973045 0.259784 0.667643 0.237612
H66   H     H_    0.086425 0.155246 0.704040 0.244942
H67   H     H_    0.132348 0.290813 0.643217 0.267796
O26   O     O_3   0.907445 0.516433 0.231515 -0.615374
C66   C     C_3   0.822687 0.609119 0.233790 0.103561
H68   H     H_    0.730870 0.582675 0.260608 0.180457
H69   H     H_    0.806784 0.638966 0.155561 0.176492
C67   C     C_3   0.873693 0.715140 0.298560 -0.317636
H70   H     H_    0.899948 0.685421 0.375985 0.236250
H71   H     H_    0.955056 0.754417 0.261517 0.254677
C68   C     C_3   0.780672 0.811633 0.309034 -1.000569
H72   H     H_    0.759908 0.846585 0.231990 0.269736
H73   H     H_    0.817394 0.885741 0.359358 0.265692
H74   H     H_    0.696214 0.775350 0.343391 0.273917

loop_
_geom_bond_atom_site_label_1
_geom_bond_atom_site_label_2
_geom_bond_distance
_ccdc_geom_bond_type
C67   H71   1.108475 S    
C50   H22   1.101881 S    
O14   H26   0.990913 S    
C13   C15   1.400037 A    
C5    C15   1.407796 A    
C46   H13   1.108399 S    
C1    C38   1.482319 S    
O15   H27   0.987525 S    
C5    O13   1.372559 S    
C49   C50   1.526048 S    
O23   H59   0.983970 S    
C2    C37   1.473834 S    
C59   H47   1.109459 S    
O22   H58   0.989847 S    
C25   C27   1.409625 A    
C63   H62   1.109228 S    
O5    C3    1.309053 A    
C13   O17   1.384101 S    
N1    C44   1.179070 T    
N2    C43   1.176626 T    
O1    C1    1.302606 A    
C66   H69   1.091820 S    
C47   H16   1.108089 S    
C27   C40   1.462903 S    
C56   H41   1.110228 S    
C62   H56   1.106439 S    
C64   H64   1.106591 S    
C53   H33   1.108865 S    
C41   O12   1.394433 S    
H2    C16   1.078607 S    
O21   H57   0.981989 S    
C9    C22   1.473999 S    
C25   O25   1.379984 S    
C23   O23   1.369891 S    
C68   H72   1.107572 S    
O4    Cu1   2.005761 S    
O18   C54   1.415866 S    
C52   H31   1.103429 S    
C65   H67   1.110567 S    
C5    C7    1.388812 A    
C52   H32   1.109192 S    
C54   H36   1.103151 S    
C30   C32   1.388798 A    
O20   C60   1.417325 S    
C58   C59   1.522080 S    
O25   C63   1.405967 S    
C17   C19   1.417929 A    
H1    C15   1.077150 S    
C45   H11   1.111492 S    
C6    C16   1.401322 A    
C52   C53   1.522492 S    
C24   O24   1.368883 S    
C6    C8    1.389457 A    
C41   C42   1.391216 D    
C29   O9    1.378855 S    
C26   C28   1.403862 A    
Cu1   Cu2   2.713382 S    
C64   C65   1.525897 S    
C65   H66   1.106551 S    
C27   C29   1.413213 A    
C67   H70   1.104968 S    
O2    C2    1.296866 A    
C28   C30   1.416038 A    
C61   C62   1.518541 S    
C28   C39   1.466044 S    
C48   H19   1.104802 S    
C36   H8    1.079861 S    
O16   H28   0.985178 S    
C31   H5    1.077631 S    
C32   H6    1.070581 S    
C10   C21   1.493368 S    
O10   H10   0.986990 S    
C55   C56   1.522360 S    
C18   C21   1.418513 A    
C8    C10   1.401748 A    
C66   C67   1.527694 S    
C47   H15   1.106265 S    
C17   O19   1.388697 S    
C61   H53   1.105205 S    
C56   H42   1.103134 S    
O13   H25   0.985077 S    
C61   H52   1.111515 S    
C14   O18   1.389517 S    
C51   C52   1.529318 S    
C48   H18   1.101271 S    
C42   O11   1.409360 S    
C35   H7    1.084766 S    
C18   C20   1.420499 A    
C65   H65   1.108576 S    
C41   C44   1.506508 S    
C7    C9    1.396674 A    
O7    Cu2   2.042140 S    
C26   O26   1.387592 S    
C42   C43   1.511920 S    
C60   C61   1.527176 S    
C23   C33   1.384963 A    
O17   C51   1.417935 S    
C63   C64   1.523440 S    
C31   C33   1.400995 A    
O6    C4    1.309830 A    
C45   C46   1.531821 S    
C51   H30   1.094909 S    
C54   H37   1.114485 S    
C35   C40   1.396032 A    
C49   H20   1.095992 S    
O7    C3    1.321361 A    
O19   C57   1.416287 S    
O3    Cu2   2.005763 S    
O8    C4    1.319180 A    
C24   C34   1.393187 A    
C34   O22   1.375650 S    
O4    C2    1.315584 A    
C8    H4    1.077350 S    
C11   O15   1.379130 S    
C50   H23   1.107944 S    
C58   H45   1.111595 S    
C68   H74   1.108616 S    
O1    Cu1   1.987352 S    
C46   H14   1.108611 S    
C57   H44   1.104291 S    
C59   H49   1.107534 S    
C18   O20   1.385862 S    
C48   C49   1.532532 S    
C60   H51   1.114419 S    
O26   C66   1.418835 S    
C68   H73   1.107735 S    
O6    Cu2   2.025386 S    
C7    H3    1.081839 S    
C3    C20   1.511939 S    
C10   C12   1.418112 A    
O12   C48   1.421097 S    
O3    C1    1.314992 A    
O8    Cu1   2.042140 S    
C59   H48   1.106567 S    
C55   H39   1.103167 S    
C62   H54   1.110097 S    
C55   H38   1.108822 S    
Cu1   N1    2.038950 S    
C11   C13   1.399452 A    
Cu2   N2    2.038950 S    
C32   C34   1.399510 A    
C12   C14   1.415866 A    
C57   C58   1.542184 S    
C37   C39   1.404362 A    
C4    C19   1.507241 S    
C29   C31   1.388102 A    
O24   H60   0.988873 S    
C24   C26   1.408882 A    
C62   H55   1.107338 S    
C60   H50   1.101246 S    
C53   H34   1.110253 S    
C33   O21   1.368230 S    
C14   C16   1.397227 A    
C51   H29   1.108880 S    
C19   C21   1.417538 A    
C20   C22   1.409463 A    
C38   C40   1.409041 A    
C54   C55   1.533878 S    
C35   C37   1.394884 A    
C9    C11   1.417975 A    
O11   C45   1.431251 S    
O2    Cu2   1.987351 S    
C66   H68   1.108871 S    
C36   C39   1.399621 A    
C12   O16   1.372884 S    
O5    Cu1   2.025386 S    
C47   H17   1.105108 S    
C46   C47   1.526335 S    
C67   C68   1.518782 S    
C23   C25   1.403380 A    
O9    H9    0.986444 S    
C50   H24   1.109674 S    
C64   H63   1.108331 S    
C58   H46   1.107855 S    
C6    O14   1.376998 S    
C17   C22   1.420625 A    
C49   H21   1.106120 S    
C30   O10   1.380062 S    
C45   H12   1.113536 S    
C63   H61   1.108164 S    
C57   H43   1.108506 S    
C56   H40   1.108859 S    
C36   C38   1.402067 A    
C53   H35   1.110794 S    
