data_mof_unit_60017.cif
_audit_creation_date              2012-12-10T16:53:17-0500
_audit_creation_method            fapswitch 2.2
_symmetry_space_group_name_H-M    P1
_symmetry_Int_Tables_number       1
_space_group_crystal_system       triclinic
_cell_length_a                    18.780483
_cell_length_b                    18.990401
_cell_length_c                    19.285154
_cell_angle_alpha                 110.59781
_cell_angle_beta                  110.247088
_cell_angle_gamma                 109.267879
_cell_volume                      5180.15351345

loop_
_atom_site_label
_atom_site_type_symbol
_atom_type_description
_atom_site_fract_x
_atom_site_fract_y
_atom_site_fract_z
_atom_type_partial_charge
C1    C     C_R   0.997375 0.116954 0.617988 0.847078
C2    C     C_R   0.176960 0.165705 0.418079 0.046104
C3    C     C_R   0.313648 0.304721 0.489572 -0.139322
C4    C     C_R   0.337393 0.308432 0.569477 0.007860
C5    C     C_R   0.273327 0.254633 0.579231 0.029873
C6    C     C_R   0.190680 0.183540 0.501546 -0.114193
C7    C     C_R   0.426635 0.364000 0.639618 -0.127271
C8    C     C_R   0.451784 0.372835 0.720149 0.162074
C9    C     C_R   0.387152 0.330768 0.734103 -0.117423
C10   C     C_R   0.298620 0.274624 0.666775 0.156307
C11   C     C_R   0.849238 0.077802 0.653555 0.099577
C12   C     C_R   0.120422 0.120626 0.502975 0.753053
C13   C     C_R   0.795991 0.054225 0.687357 0.127260
C14   C     C_R   0.827084 0.106956 0.774702 -0.165703
C15   C     C_R   0.903724 0.189028 0.825182 -0.143530
C16   C     C_R   0.949969 0.220567 0.788380 0.024933
C17   C     C_R   0.931764 0.158797 0.707683 0.034645
C18   C     C_R   0.993156 0.183274 0.681790 -0.125313
C19   C     C_R   0.054949 0.272509 0.721173 0.089688
C20   C     C_R   0.070462 0.334593 0.798831 0.162739
C21   C     C_R   0.012679 0.311080 0.828601 -0.203736
C22   C     C_R   0.743640 0.701289 0.330401 0.185243
C23   C     C_R   0.006960 0.887806 0.382846 0.847918
C24   C     C_R   0.706664 0.612093 0.271124 0.118954
C25   C     C_R   0.650085 0.549666 0.277671 -0.227907
C26   C     C_R   0.623930 0.577085 0.336072 0.187998
C27   C     C_R   0.680147 0.662573 0.412000 -0.025101
C28   C     C_R   0.744033 0.726512 0.409921 -0.080554
C29   C     C_R   0.809041 0.809112 0.488202 -0.103118
C30   C     C_R   0.810402 0.827469 0.565914 0.082270
C31   C     C_R   0.743956 0.766712 0.566377 0.116465
C32   C     C_R   0.677864 0.684600 0.490121 -0.095276
C33   C     C_R   0.141756 0.923543 0.325008 0.053777
C34   C     C_R   0.880093 0.876260 0.493156 0.864103
C35   C     C_R   0.176410 0.943319 0.275574 0.150285
C36   C     C_R   0.129345 0.885557 0.186096 -0.143291
C37   C     C_R   0.058244 0.801959 0.148029 0.139029
C38   C     C_R   0.035273 0.775688 0.201161 0.015418
C39   C     C_R   0.061697 0.842895 0.282567 -0.081001
C40   C     C_R   0.012121 0.822057 0.320311 -0.054995
C41   C     C_R   0.971018 0.736542 0.302525 0.137263
C42   C     C_R   0.967460 0.669571 0.237148 0.118515
C43   C     C_R   0.995781 0.687673 0.182216 -0.168073
C44   C     C_R   0.624758 0.506258 0.619973 0.810133
C45   C     C_R   0.104288 0.084553 0.341806 -0.183459
C46   C     C_R   0.375807 0.379145 0.492576 0.788266
C47   C     C_R   0.378579 0.497896 0.381922 0.904714
C48   C     C_R   0.615392 0.618877 0.496577 0.855622
C49   C     C_R   0.879873 0.499840 0.882598 0.847851
C50   C     C_R   0.006525 0.380763 0.888330 0.789871
C51   C     C_R   0.120249 0.498976 0.116812 0.811752
C52   C     C_R   0.998100 0.619485 0.116986 0.836654
C53   C     C_R   0.708963 0.632324 0.814608 0.137541
C54   C     C_R   0.703242 0.653472 0.889132 0.124861
C55   C     C_R   0.721024 0.611978 0.934026 0.200671
C56   C     C_R   0.081311 0.068142 0.259321 0.165993
C57   C     C_R   0.754672 0.557287 0.911025 0.031099
C58   C     C_R   0.761954 0.537287 0.836156 0.034542
C59   C     C_R   0.722266 0.561812 0.779329 -0.046697
C60   C     C_R   0.699780 0.515943 0.691043 -0.077214
C61   C     C_R   0.742804 0.470571 0.670720 0.151673
C62   C     C_R   0.801096 0.466224 0.735074 -0.254465
C63   C     C_R   0.809609 0.497116 0.816386 -0.048658
C64   C     C_R   0.182316 0.380231 0.295305 0.075940
C65   C     C_R   0.095138 0.307113 0.236447 0.150521
C66   C     C_R   0.052789 0.283122 0.149100 0.170709
C67   C     C_R   0.136200 0.127219 0.249563 -0.072057
C68   C     C_R   0.089092 0.341280 0.125962 -0.180837
C69   C     C_R   0.167667 0.423116 0.189430 -0.002546
C70   C     C_R   0.222246 0.432444 0.267143 0.021991
C71   C     C_R   0.311318 0.500588 0.318153 -0.055178
C72   C     C_R   0.336368 0.574261 0.310223 0.086665
C73   C     C_R   0.274433 0.575206 0.244406 0.129332
C74   C     C_R   0.189985 0.497784 0.181209 -0.149118
C75   C     C_R   0.215209 0.203202 0.321444 0.085619
C76   C     C_R   0.236892 0.226951 0.409793 -0.007069
Cu1   Cu    Cu3+1 0.061810 0.999990 0.561790 1.015254
Cu2   Cu    Cu3+1 0.938190 0.000010 0.438210 1.034076
Cu3   Cu    Cu3+1 0.499980 0.561850 0.561820 1.051773
Cu4   Cu    Cu3+1 0.500030 0.438250 0.438240 1.055515
Cu5   Cu    Cu3+1 0.061790 0.561800 0.999990 1.073509
Cu6   Cu    Cu3+1 0.938200 0.438200 0.000000 1.023570
H1    H     H_    0.405274 0.342838 0.798722 0.158209
H2    H     H_    0.789659 0.086206 0.802745 0.189754
H3    H     H_    0.926155 0.226564 0.893125 0.180001
H4    H     H_    0.611037 0.481997 0.224170 0.176375
H5    H     H_    0.064656 0.030131 0.343566 0.161157
H6    H     H_    0.149274 0.904981 0.146280 0.191748
H7    H     H_    0.838461 0.436380 0.720710 0.144641
H8    H     H_    0.053341 0.323756 0.059250 0.160709
H9    H     H_    0.117630 0.110805 0.183679 0.190652
H10   H     H_    0.478947 0.399080 0.631915 0.146202
O1    O     O_R   0.052180 0.090150 0.642360 -0.583754
O2    O     O_R   0.590200 0.447870 0.538030 -0.550076
O3    O     O_R   0.409810 0.462060 0.552200 -0.570826
O4    O     O_R   0.409850 0.357690 0.447850 -0.560260
O5    O     O_R   0.409800 0.552230 0.462030 -0.565129
O6    O     O_R   0.409840 0.447860 0.357670 -0.550130
O7    O     O_R   0.590160 0.642410 0.552210 -0.528661
O8    O     O_R   0.590200 0.538040 0.447850 -0.587626
O9    O     O_R   0.961980 0.552200 0.909830 -0.561356
O10   O     O_R   0.857610 0.447810 0.909840 -0.560910
O11   O     O_R   0.052190 0.462030 0.909810 -0.552341
O12   O     O_R   0.947790 0.090180 0.538000 -0.566945
O13   O     O_R   0.947820 0.357640 0.909820 -0.606352
O14   O     O_R   0.142370 0.552190 0.090140 -0.546678
O15   O     O_R   0.038000 0.447800 0.090150 -0.580304
O16   O     O_R   0.052170 0.642360 0.090160 -0.556111
O17   O     O_R   0.947800 0.537970 0.090170 -0.550858
O18   O     O_R   0.142370 0.090170 0.552180 -0.584397
O19   O     O_R   0.037980 0.090190 0.447820 -0.585340
O20   O     O_R   0.052210 0.909820 0.462000 -0.548565
O21   O     O_R   0.947820 0.909850 0.357640 -0.575041
O22   O     O_R   0.962020 0.909810 0.552180 -0.554778
O23   O     O_R   0.857630 0.909830 0.447820 -0.563967
O24   O     O_R   0.590160 0.552240 0.642380 -0.577562
N1    N     N_3   0.814190 0.026018 0.562379 -0.542545
H11   H     H_    0.792997 0.960991 0.544732 0.246475
H12   H     H_    0.758803 0.028705 0.529077 0.251777
I1    I     I_    0.667318 0.940784 0.608823 -0.379802
I2    I     I_    0.190574 0.459803 0.872393 -0.243379
N2    N     N_3   0.882144 0.908079 0.645665 -0.575662
H13   H     H_    0.856870 0.940762 0.676110 0.228910
H14   H     H_    0.918916 0.893294 0.686852 0.237893
I3    I     I_    0.738206 0.773311 0.267040 -0.188861
N3    N     N_3   0.713913 0.584869 0.195794 -0.538753
H15   H     H_    0.650351 0.549619 0.140855 0.260220
H16   H     H_    0.737246 0.541620 0.193121 0.234807
I4    I     I_    0.485506 0.517412 0.265999 -0.313275
N4    N     N_3   0.747883 0.785662 0.646741 -0.532595
H17   H     H_    0.743048 0.841247 0.671441 0.261568
H18   H     H_    0.808881 0.798483 0.690885 0.237464
N5    N     N_3   0.941936 0.721209 0.358293 -0.579958
H19   H     H_    0.877501 0.668057 0.320314 0.250028
H20   H     H_    0.982748 0.705737 0.394905 0.253575
I5    I     I_    0.228541 0.997669 0.462563 -0.349588
N6    N     N_3   0.258687 0.021315 0.314372 -0.552776
H21   H     H_    0.257046 0.075456 0.351431 0.244566
H22   H     H_    0.309389 0.018306 0.355913 0.261257
I6    I     I_    0.973277 0.736064 0.012116 -0.337042
I7    I     I_    0.925423 0.547003 0.233138 -0.336916
N7    N     N_3   0.730671 0.431970 0.585887 -0.549311
H23   H     H_    0.792339 0.460856 0.592183 0.227820
H24   H     H_    0.707800 0.365230 0.561494 0.230388
I8    I     I_    0.738811 0.732184 0.785037 -0.329516
N8    N     N_3   0.680708 0.718145 0.920907 -0.517144
H25   H     H_    0.731554 0.779596 0.942745 0.262459
H26   H     H_    0.622403 0.702671 0.869815 0.248797
N9    N     N_3   0.002265 0.989928 0.184230 -0.544039
H27   H     H_    0.948529 0.990140 0.188973 0.256918
H28   H     H_    0.003545 0.935883 0.185683 0.229193
I9    I     I_    0.704678 0.639820 0.042096 -0.309696
N10   N     N_3   0.774101 0.516983 0.959462 -0.539580
H29   H     H_    0.819353 0.566255 0.024770 0.247477
H30   H     H_    0.715862 0.477320 0.953868 0.236834
N11   N     N_3   0.423700 0.649820 0.373146 -0.559859
H31   H     H_    0.418317 0.701622 0.409056 0.265598
H32   H     H_    0.453757 0.667751 0.340749 0.266483
N12   N     N_3   0.223975 0.410810 0.386049 -0.581149
H33   H     H_    0.220299 0.358231 0.393221 0.226285
H34   H     H_    0.187642 0.431926 0.409261 0.255102
I10   I     I_    0.024665 0.240832 0.281491 -0.322263
I11   I     I_    0.929386 0.166090 0.050759 -0.299843
I12   I     I_    0.312081 0.697862 0.249753 -0.270577
I13   I     I_    0.285074 0.252072 0.266637 -0.299467
N13   N     N_3   0.543183 0.427975 0.788231 -0.582130
H35   H     H_    0.551040 0.430285 0.845527 0.228431
H36   H     H_    0.576943 0.398554 0.769629 0.220333
N14   N     N_3   0.238357 0.249069 0.694564 -0.543452
H37   H     H_    0.238418 0.198451 0.704560 0.254159
H38   H     H_    0.175673 0.231747 0.651055 0.239273
N15   N     N_3   0.096589 0.302659 0.678981 -0.556382
H39   H     H_    0.088379 0.354419 0.678643 0.246360
H40   H     H_    0.061535 0.255130 0.612880 0.202589

loop_
_geom_bond_atom_site_label_1
_geom_bond_atom_site_label_2
_ccdc_geom_bond_type
C66   C68   A    
C41   C42   A    
C16   C21   A    
C49   C63   S    
N14   H38   S    
N14   H37   S    
Cu2   O23   S    
C51   C74   S    
C14   H2    S    
C41   N5    S    
Cu5   Cu6   S    
C53   C59   A    
C7    C8    A    
Cu5   O9    S    
Cu1   Cu2   S    
C36   H6    S    
C10   N14   S    
C23   O20   A    
N6    H22   S    
C1    C18   S    
C33   C39   A    
C47   O6    A    
C52   O16   A    
C72   N11   S    
C5    C6    A    
Cu3   O7    S    
C28   C29   A    
C45   H5    S    
C37   C38   A    
C73   I12   S    
N9    H28   S    
C49   O9    A    
C30   C31   A    
C43   C52   S    
C15   C16   A    
C62   H7    S    
C51   O14   A    
C18   C19   A    
C73   C74   A    
Cu6   O13   S    
Cu1   O1    S    
Cu5   O14   S    
C11   C17   A    
C46   O3    A    
C30   N2    S    
C45   C56   A    
C16   C17   A    
C37   I6    S    
C65   I10   S    
C50   O13   A    
C68   H8    S    
N12   H34   S    
C70   C71   A    
C64   C70   A    
N10   H30   S    
C9    C10   A    
C61   C62   A    
C54   N8    S    
Cu5   O16   S    
C59   C60   A    
C22   C28   A    
C13   C14   A    
Cu4   O8    S    
N13   H36   S    
C32   C48   S    
N13   H35   S    
C2    C6    A    
C42   I7    S    
C4    C7    A    
C12   O18   A    
C21   C50   S    
C25   C26   A    
N15   H40   S    
N8    H26   S    
N2    H13   S    
C2    C45   A    
C34   O22   A    
C48   O8    A    
Cu2   O12   S    
Cu6   O17   S    
C55   I9    S    
C24   C25   A    
C72   C73   A    
C39   C40   A    
C8    C9    A    
C22   I3    S    
C34   O23   A    
C53   C54   A    
C57   N10   S    
C29   C34   S    
C60   C61   A    
C35   C36   A    
N11   H31   S    
Cu1   O20   S    
N4    H18   S    
C75   C76   A    
Cu3   O3    S    
C29   C30   A    
C23   O21   A    
C53   I8    S    
N12   H33   S    
C62   C63   A    
C67   H9    S    
C17   C18   A    
Cu6   O10   S    
C46   O4    A    
C69   C74   A    
C75   I13   S    
Cu6   O15   S    
C19   N15   S    
C3    C76   A    
C1    O12   A    
C47   C71   S    
C20   I2    S    
Cu2   O19   S    
C26   I4    S    
C8    N13   S    
C9    H1    S    
C51   O15   A    
C40   C41   A    
C55   C57   A    
C26   C27   A    
N5    H19   S    
N7    H24   S    
Cu2   O21   S    
Cu4   O4    S    
C42   C43   A    
Cu4   O2    S    
C3    C4    A    
C11   N1    S    
C49   O10   A    
C13   I1    S    
C2    C76   A    
N15   H39   S    
N8    H25   S    
Cu5   O11   S    
C58   C63   A    
C24   N3    S    
C48   O7    A    
C54   C55   A    
C36   C37   A    
N3    H16   S    
Cu4   O6    S    
C27   C32   A    
C14   C15   A    
C68   C69   A    
C31   C32   A    
C4    C5    A    
Cu3   O5    S    
C31   N4    S    
C56   C67   A    
N6    H21   S    
C3    C46   S    
N1    H11   S    
C47   O5    A    
C15   H3    S    
Cu1   O22   S    
C64   C65   A    
C19   C20   A    
N1    H12   S    
N4    H17   S    
C58   C59   A    
C5    C10   A    
N9    H27   S    
C35   N6    S    
C6    C12   S    
C11   C13   A    
C33   I5    S    
C57   C58   A    
C38   C39   A    
C52   O17   A    
C44   C60   S    
N3    H15   S    
C7    H10   S    
C64   N12   S    
N11   H32   S    
C25   H4    S    
C33   C35   A    
C66   I11   S    
C22   C24   A    
C69   C70   A    
C44   O2    A    
Cu3   Cu4   S    
C61   N7    S    
C38   C43   A    
C67   C75   A    
C20   C21   A    
C44   O24   A    
C1    O1    A    
C65   C66   A    
C56   N9    S    
C27   C28   A    
N5    H20   S    
N7    H23   S    
C50   O11   A    
C71   C72   A    
N10   H29   S    
Cu3   O24   S    
N2    H14   S    
Cu1   O18   S    
C12   O19   A    
C23   C40   S    
