data_mof_unit_54309.cif
_audit_creation_date              2013-03-05T15:42:52-0500
_audit_creation_method            fapswitch 2.2
_symmetry_space_group_name_H-M    P1
_symmetry_Int_Tables_number       1
_space_group_crystal_system       triclinic
_cell_length_a                    28.037021
_cell_length_b                    17.274405
_cell_length_c                    18.131816
_cell_angle_alpha                 90.117863
_cell_angle_beta                  138.055244
_cell_angle_gamma                 89.920653
_cell_volume                      5869.76510446

loop_
_atom_site_label
_atom_site_type_symbol
_atom_site_description
_atom_site_fract_x
_atom_site_fract_y
_atom_site_fract_z
_atom_type_partial_charge
C1    C     C_R   0.669325 0.921124 0.816930 -0.079952
C2    C     C_R   0.330705 0.078848 0.183076 -0.080001
C3    C     C_R   0.312514 0.898855 0.197776 -0.133002
C4    C     C_R   0.687486 0.101144 0.802226 -0.132881
C5    C     C_R   0.187563 0.398696 0.801839 -0.130284
C6    C     C_R   0.812416 0.601331 0.198242 -0.130105
C7    C     C_R   0.831727 0.421695 0.183359 -0.082700
C8    C     C_R   0.168277 0.578314 0.816642 -0.082701
H1    H     H_    0.718056 0.953249 0.881334 0.110276
H2    H     H_    0.281964 0.046739 0.118658 0.110374
H3    H     H_    0.261244 0.926793 0.144908 0.109658
H4    H     H_    0.738757 0.073207 0.855094 0.109612
H5    H     H_    0.238836 0.426666 0.854835 0.111991
H6    H     H_    0.761153 0.573344 0.145273 0.111917
H7    H     H_    0.783215 0.454008 0.118727 0.110757
H8    H     H_    0.216797 0.546015 0.881278 0.110649
N1    N     N_R   0.625380 0.928280 0.709340 -0.049514
N2    N     N_R   0.374620 0.071720 0.290660 -0.049463
N3    N     N_R   0.374620 0.928280 0.290660 -0.048840
N4    N     N_R   0.625380 0.071720 0.709340 -0.048836
N5    N     N_R   0.125380 0.428280 0.709340 -0.049106
N6    N     N_R   0.874620 0.571720 0.290660 -0.049123
N7    N     N_R   0.874620 0.428280 0.290660 -0.049893
N8    N     N_R   0.125380 0.571720 0.709340 -0.049882
C9    C     C_R   0.361129 0.070082 0.493243 -0.085049
C10   C     C_R   0.638900 0.929893 0.506801 -0.085263
C11   C     C_R   0.673871 0.104475 0.592033 -0.137293
C12   C     C_R   0.326126 0.895523 0.407953 -0.137319
C13   C     C_R   0.826141 0.604496 0.408074 -0.136015
C14   C     C_R   0.173843 0.395519 0.591847 -0.136056
C15   C     C_R   0.139057 0.570041 0.507062 -0.093502
C16   C     C_R   0.860946 0.429968 0.492942 -0.093516
H9    H     H_    0.321677 0.030348 0.468610 0.125117
H10   H     H_    0.678360 0.969621 0.531446 0.125088
H11   H     H_    0.725662 0.077246 0.654684 0.123974
H12   H     H_    0.274336 0.922754 0.345304 0.124063
H13   H     H_    0.774335 0.577305 0.345095 0.114549
H14   H     H_    0.225652 0.422704 0.654810 0.114588
H15   H     H_    0.178404 0.530108 0.531635 0.111949
H16   H     H_    0.821607 0.469912 0.468376 0.111976
N9    N     N_R   0.386100 0.070250 0.452470 -0.046276
N10   N     N_R   0.613900 0.929750 0.547530 -0.046310
N11   N     N_R   0.613900 0.070250 0.547530 -0.052057
N12   N     N_R   0.386100 0.929750 0.452470 -0.052087
N13   N     N_R   0.886100 0.570250 0.452470 -0.049253
N14   N     N_R   0.113900 0.429750 0.547530 -0.049242
N15   N     N_R   0.113900 0.570250 0.547530 -0.045476
N16   N     N_R   0.886100 0.429750 0.452470 -0.045476
C17   C     C_R   0.409764 0.803695 0.499257 -0.124181
C18   C     C_R   0.590232 0.196302 0.500728 -0.124241
C19   C     C_R   0.556563 0.835642 0.419741 -0.062087
C20   C     C_R   0.443463 0.164332 0.580299 -0.061876
C21   C     C_R   0.943253 0.335648 0.579905 -0.063484
C22   C     C_R   0.056742 0.664354 0.420092 -0.063526
C23   C     C_R   0.090224 0.303678 0.500472 -0.119864
C24   C     C_R   0.909755 0.696336 0.499448 -0.119927
H17   H     H_    0.435495 0.748531 0.520316 0.127026
H18   H     H_    0.564500 0.251467 0.479666 0.126882
H19   H     H_    0.520117 0.789348 0.365057 0.104732
H20   H     H_    0.479913 0.210622 0.634991 0.104715
H21   H     H_    0.979640 0.289341 0.634383 0.101975
H22   H     H_    0.020343 0.710653 0.365604 0.102011
H23   H     H_    0.064585 0.248484 0.479504 0.125258
H24   H     H_    0.935400 0.751525 0.520415 0.125328
N17   N     N_R   0.437800 0.869550 0.507970 -0.052601
N18   N     N_R   0.562200 0.130450 0.492030 -0.052607
N19   N     N_R   0.562200 0.869550 0.492030 -0.043854
N20   N     N_R   0.437800 0.130450 0.507970 -0.043807
N21   N     N_R   0.937800 0.369550 0.507970 -0.043811
N22   N     N_R   0.062200 0.630450 0.492030 -0.043807
N23   N     N_R   0.062200 0.369550 0.492030 -0.052356
N24   N     N_R   0.937800 0.630450 0.507970 -0.052353
C25   C     C_R   0.604901 0.193679 0.713375 -0.137212
C26   C     C_R   0.395101 0.806322 0.286623 -0.137164
C27   C     C_R   0.416133 0.169650 0.273259 -0.050549
C28   C     C_R   0.583887 0.830329 0.726749 -0.051167
C29   C     C_R   0.083041 0.669580 0.726110 -0.051689
C30   C     C_R   0.916957 0.330422 0.273886 -0.051719
C31   C     C_R   0.895072 0.693740 0.287118 -0.136997
C32   C     C_R   0.104906 0.306279 0.712933 -0.136882
H25   H     H_    0.580722 0.250535 0.685943 0.148311
H26   H     H_    0.419280 0.749466 0.314053 0.148285
H27   H     H_    0.446419 0.220005 0.291654 0.134112
H28   H     H_    0.553566 0.780011 0.708343 0.134620
H29   H     H_    0.053173 0.720483 0.707609 0.134882
H30   H     H_    0.946820 0.279516 0.292382 0.134860
H31   H     H_    0.919590 0.750422 0.314260 0.146091
H32   H     H_    0.080400 0.249591 0.685796 0.145653
N25   N     N_R   0.573690 0.128980 0.653840 -0.055122
N26   N     N_R   0.426310 0.871020 0.346160 -0.055102
N27   N     N_R   0.426310 0.128980 0.346160 -0.048346
N28   N     N_R   0.573690 0.871020 0.653840 -0.048423
N29   N     N_R   0.073690 0.628980 0.653840 -0.048648
N30   N     N_R   0.926310 0.371020 0.346160 -0.048648
N31   N     N_R   0.926310 0.628980 0.346160 -0.054872
N32   N     N_R   0.073690 0.371020 0.653840 -0.054837
C33   C     C_R   0.643603 0.860712 0.828988 0.070776
C34   C     C_R   0.356452 0.139230 0.171026 0.070633
C35   C     C_R   0.324718 0.823212 0.194131 0.128688
C36   C     C_R   0.675283 0.176788 0.805870 0.128708
C37   C     C_R   0.175351 0.323039 0.805228 0.131002
C38   C     C_R   0.824605 0.677008 0.194901 0.130815
C39   C     C_R   0.857770 0.361233 0.171611 0.073150
C40   C     C_R   0.142231 0.638775 0.828387 0.073103
C41   C     C_R   0.398489 0.125995 0.576742 0.067534
C42   C     C_R   0.601563 0.873957 0.423332 0.067680
C43   C     C_R   0.660786 0.183122 0.565236 0.093179
C44   C     C_R   0.339208 0.816873 0.434737 0.093128
C45   C     C_R   0.839238 0.683157 0.435162 0.094548
C46   C     C_R   0.160725 0.316871 0.564677 0.094480
C47   C     C_R   0.101981 0.626112 0.423973 0.066952
C48   C     C_R   0.898020 0.373898 0.576030 0.066955
Ni1   Ni    Ni4+2 0.616560 0.000000 0.627280 0.240032
Ni2   Ni    Ni4+2 0.383440 0.000000 0.372720 0.240202
Ni3   Ni    Ni4+2 0.116560 0.500000 0.627280 0.239522
Ni4   Ni    Ni4+2 0.883440 0.500000 0.372720 0.239461
Ni5   Ni    Ni4+2 0.497990 0.870580 0.500000 0.258639
Ni6   Ni    Ni4+2 0.502010 0.129420 0.500000 0.258740
Ni7   Ni    Ni4+2 0.997990 0.370580 0.500000 0.260963
Ni8   Ni    Ni4+2 0.002010 0.629420 0.500000 0.260977
C49   C     C_3   0.707605 0.268321 0.948359 -0.242265
C50   C     C_3   0.292392 0.731692 0.051631 -0.242262
C51   C     C_3   0.333215 0.221619 0.020675 -0.231151
C52   C     C_3   0.666933 0.778955 0.979846 -0.230947
C53   C     C_3   0.166439 0.721751 0.979753 -0.238132
C54   C     C_3   0.833564 0.278247 0.020252 -0.238124
C55   C     C_3   0.793141 0.767484 0.052725 -0.242736
C56   C     C_3   0.206658 0.231993 0.946947 -0.242978
C57   C     C_3   0.240450 0.696860 0.093896 0.448529
C58   C     C_3   0.759556 0.303139 0.906104 0.448518
C59   C     C_3   0.720312 0.742043 0.940231 0.423570
C60   C     C_3   0.279276 0.257609 0.059652 0.423690
C61   C     C_3   0.780429 0.242744 0.060622 0.425515
C62   C     C_3   0.219565 0.757268 0.939373 0.425559
C63   C     C_3   0.259431 0.196682 0.906092 0.449244
C64   C     C_3   0.740934 0.803700 0.094234 0.448919
H33   H     H_    0.656084 0.262691 0.918903 0.185111
H34   H     H_    0.343911 0.737328 0.081082 0.185085
H35   H     H_    0.385072 0.215200 0.051356 0.189995
H36   H     H_    0.615224 0.785822 0.949510 0.190018
H37   H     H_    0.114839 0.715523 0.949854 0.187940
H38   H     H_    0.885166 0.284468 0.050155 0.187975
H39   H     H_    0.844758 0.761208 0.082566 0.184976
H40   H     H_    0.154891 0.237823 0.916748 0.184927
C65   C     C_3   0.273219 0.771511 0.102908 -0.053322
C66   C     C_3   0.726781 0.228492 0.897091 -0.053370
C67   C     C_3   0.687252 0.817539 0.929712 -0.046900
C68   C     C_3   0.312764 0.182452 0.070347 -0.047029
C69   C     C_3   0.813828 0.317733 0.070907 -0.043567
C70   C     C_3   0.186172 0.682275 0.929089 -0.043469
C71   C     C_3   0.226549 0.271509 0.896662 -0.053223
C72   C     C_3   0.773390 0.728538 0.103477 -0.053287
C73   C     C_3   0.740829 0.344402 0.957129 -0.249156
C74   C     C_3   0.259174 0.655606 0.042863 -0.249289
C75   C     C_3   0.299272 0.298201 0.010761 -0.273031
C76   C     C_3   0.700440 0.702020 0.989584 -0.272929
C77   C     C_3   0.200257 0.798161 0.989237 -0.278624
C78   C     C_3   0.799740 0.201842 0.010766 -0.278545
C79   C     C_3   0.760234 0.844094 0.043714 -0.254423
C80   C     C_3   0.240011 0.155721 0.956160 -0.254267
H41   H     H_    0.717720 0.403400 0.934840 0.179504
H42   H     H_    0.282286 0.596611 0.065149 0.179321
H43   H     H_    0.322728 0.357040 0.033467 0.178566
H44   H     H_    0.676746 0.643344 0.967069 0.178760
H45   H     H_    0.176895 0.857024 0.966840 0.177205
H46   H     H_    0.823099 0.142977 0.033169 0.177224
H47   H     H_    0.783661 0.902910 0.066055 0.178934
H48   H     H_    0.216848 0.096736 0.933693 0.179097
C81   C     C_R   0.610363 0.855208 0.354937 0.053881
C82   C     C_R   0.389714 0.144719 0.645169 0.053804
C83   C     C_R   0.287011 0.755836 0.391226 0.046389
C84   C     C_R   0.712980 0.244161 0.608738 0.046445
C85   C     C_R   0.212917 0.255783 0.608021 0.037704
C86   C     C_R   0.787027 0.744255 0.391711 0.037184
C87   C     C_R   0.888888 0.354980 0.643937 0.047961
C88   C     C_R   0.111115 0.645040 0.356071 0.047946
C89   C     C_R   0.397059 0.245984 0.746222 0.350479
C90   C     C_R   0.602952 0.753992 0.253762 0.350502
C91   C     C_R   0.735425 0.375466 0.592343 0.372541
C92   C     C_R   0.264562 0.624540 0.407633 0.372499
C93   C     C_R   0.765953 0.874749 0.412540 0.375633
C94   C     C_R   0.234001 0.125277 0.587235 0.375366
C95   C     C_R   0.104442 0.748119 0.258314 0.361594
C96   C     C_R   0.895559 0.251913 0.741700 0.361653
C97   C     C_R   0.425680 0.208044 0.717860 -0.241187
C98   C     C_R   0.574381 0.791894 0.282227 -0.241167
C99   C     C_R   0.690199 0.320832 0.571694 -0.146687
C100  C     C_R   0.309791 0.679167 0.428279 -0.146612
C101  C     C_R   0.809870 0.820970 0.428721 -0.122336
C102  C     C_R   0.190055 0.179083 0.570936 -0.122288
C103  C     C_R   0.074604 0.707936 0.282930 -0.218345
C104  C     C_R   0.925401 0.292087 0.717088 -0.218271
C105  C     C_R   0.335925 0.108367 0.623404 -0.165857
C106  C     C_R   0.664136 0.891574 0.376668 -0.165902
C107  C     C_R   0.784708 0.225432 0.680304 -0.130370
C108  C     C_R   0.215283 0.774566 0.319649 -0.130306
C109  C     C_R   0.715566 0.725310 0.321861 -0.121481
C110  C     C_R   0.284388 0.274716 0.677927 -0.120368
C111  C     C_R   0.166043 0.610019 0.379601 -0.151704
C112  C     C_R   0.833955 0.390001 0.620397 -0.151734
C113  C     C_R   0.301230 0.149527 0.638964 -0.032739
C114  C     C_R   0.698766 0.850464 0.360953 -0.032784
C115  C     C_R   0.828727 0.276250 0.692189 -0.017707
C116  C     C_R   0.171268 0.723769 0.307800 -0.017766
C117  C     C_R   0.670770 0.777623 0.306490 0.011787
C118  C     C_R   0.329211 0.222380 0.693396 0.012311
C119  C     C_R   0.198422 0.649991 0.359234 -0.011938
C120  C     C_R   0.801571 0.350026 0.640755 -0.011932
H49   H     H_    0.685944 0.945619 0.421206 0.168218
H50   H     H_    0.314140 0.054304 0.578908 0.168187
H51   H     H_    0.196351 0.831528 0.283806 0.163163
H52   H     H_    0.803643 0.168457 0.716110 0.163062
H53   H     H_    0.302580 0.333075 0.708730 0.155495
H54   H     H_    0.697379 0.666945 0.291079 0.155743
H55   H     H_    0.808903 0.441502 0.570246 0.156721
H56   H     H_    0.191093 0.558516 0.429748 0.156711
H57   H     H_    0.526773 0.768825 0.252848 0.164288
H58   H     H_    0.473305 0.231099 0.747278 0.164318
H59   H     H_    0.363263 0.661269 0.475959 0.172151
H60   H     H_    0.636727 0.338727 0.524017 0.172079
H61   H     H_    0.136249 0.161164 0.521585 0.156464
H62   H     H_    0.863653 0.838909 0.477970 0.156681
H63   H     H_    0.972565 0.268304 0.745535 0.151406
H64   H     H_    0.027444 0.731719 0.254496 0.151486
N33   N     N_R   0.794156 0.950072 0.461063 0.230366
O1    O     O_R   0.815585 0.993733 0.431705 -0.295717
O2    O     O_R   0.814421 0.966653 0.551200 -0.368393
N34   N     N_R   0.205794 0.049962 0.538683 0.230349
O3    O     O_R   0.184298 0.006311 0.567944 -0.296044
O4    O     O_R   0.185599 0.033378 0.448604 -0.368290
N35   N     N_R   0.071097 0.818485 0.196256 0.232302
O5    O     O_R   0.005055 0.816696 0.098250 -0.340671
O6    O     O_R   0.099325 0.884776 0.246504 -0.344500
N36   N     N_R   0.928895 0.181554 0.803767 0.232213
O7    O     O_R   0.994830 0.183395 0.901968 -0.340294
O8    O     O_R   0.900804 0.115257 0.753473 -0.344497
N37   N     N_R   0.433676 0.311612 0.819547 0.240807
O9    O     O_R   0.477255 0.352417 0.829576 -0.351641
O10   O     O_R   0.431121 0.324421 0.887321 -0.362328
N38   N     N_R   0.566314 0.688374 0.180418 0.240799
O11   O     O_R   0.522780 0.647539 0.170464 -0.351636
O12   O     O_R   0.568808 0.675601 0.112564 -0.362714
N39   N     N_R   0.711487 0.454157 0.556203 0.241013
O13   O     O_R   0.643784 0.469568 0.472028 -0.347249
O14   O     O_R   0.756168 0.511192 0.615978 -0.337475
N40   N     N_R   0.288495 0.545848 0.443769 0.241002
O15   O     O_R   0.356197 0.530430 0.527939 -0.347127
O16   O     O_R   0.243809 0.488817 0.383993 -0.337453
N41   N     N_R   0.254294 0.663998 0.182108 0.234872
O17   O     O_R   0.318540 0.642132 0.273191 -0.396102
O18   O     O_R   0.201602 0.649228 0.165950 -0.384899
N42   N     N_R   0.745718 0.335992 0.817894 0.234908
O19   O     O_R   0.681473 0.357861 0.726808 -0.396002
O20   O     O_R   0.798412 0.350746 0.834053 -0.384846
N43   N     N_R   0.709162 0.707592 0.854795 0.241108
O21   O     O_R   0.649476 0.672579 0.771061 -0.374164
O22   O     O_R   0.761093 0.705559 0.866989 -0.336819
N44   N     N_R   0.290000 0.291627 0.144862 0.241206
O23   O     O_R   0.349607 0.326535 0.229089 -0.373870
O24   O     O_R   0.237825 0.293252 0.132123 -0.336814
N45   N     N_R   0.791696 0.208966 0.146327 0.240262
O25   O     O_R   0.850876 0.172863 0.229081 -0.376247
O26   O     O_R   0.740176 0.208466 0.135111 -0.347202
N46   N     N_R   0.208291 0.791054 0.853664 0.240222
O27   O     O_R   0.149107 0.827152 0.770912 -0.376378
O28   O     O_R   0.259808 0.791564 0.864873 -0.347324
N47   N     N_R   0.246120 0.163746 0.818258 0.236554
O29   O     O_R   0.182021 0.141734 0.726782 -0.392370
O30   O     O_R   0.299028 0.149878 0.834609 -0.382007
N48   N     N_R   0.754639 0.837010 0.182282 0.236700
O31   O     O_R   0.818915 0.858623 0.273692 -0.392253
O32   O     O_R   0.701940 0.851522 0.166238 -0.381795

loop_
_geom_bond_atom_site_label_1
_geom_bond_atom_site_label_2
_geom_bond_distance
_ccdc_geom_bond_type
C18   C43   1.375112 A    
C25   C36   1.367150 A    
N43   O22   1.300372 A    
C21   N21   1.331868 A    
C55   C79   1.550019 S    
C110  C118  1.396021 A    
C94   C113  1.406662 A    
C33   C67   1.437906 S    
N6    N31   1.386269 A    
N32   Ni7   1.865085 S    
C109  C117  1.396036 A    
C93   C114  1.406696 A    
N9    Ni2   1.844389 S    
N5    Ni3   1.808126 S    
C67   C79   1.541727 S    
C10   C42   1.400002 A    
N34   O4    1.301206 A    
C93   N33   1.433720 S    
C55   H39   1.110790 S    
C94   N34   1.433719 S    
C105  C113  1.391722 A    
C64   C79   1.536158 S    
C51   C75   1.559177 S    
C61   N45   1.458812 S    
C56   C80   1.550282 S    
N41   O17   1.300056 A    
C49   C73   1.549973 S    
C83   C100  1.405819 A    
C14   C46   1.397449 A    
N36   O8    1.301243 A    
N2    N27   1.386269 A    
C13   C45   1.397440 A    
C59   C76   1.527897 S    
C30   N30   1.327944 A    
C81   C98   1.403808 A    
N11   N18   1.423177 A    
N45   O25   1.300333 A    
C92   N40   1.440318 S    
C54   C69   1.538641 S    
C59   N43   1.458767 S    
C58   C66   1.520805 S    
C100  H59   1.078135 S    
C107  C115  1.395276 A    
C62   C77   1.527717 S    
C54   C58   1.544903 S    
C84   C99   1.405841 A    
C49   H33   1.110776 S    
C60   C75   1.528027 S    
C106  C114  1.391771 A    
C90   C117  1.411507 A    
C51   H35   1.110075 S    
C85   C102  1.405718 A    
C112  H55   1.078520 S    
C89   C97   1.396044 A    
C89   C118  1.411521 A    
C14   H14   1.080114 S    
C61   C78   1.527715 S    
C68   C80   1.541730 S    
C50   C65   1.538287 S    
C40   C70   1.437714 S    
C109  H54   1.078773 S    
C69   C73   1.541877 S    
C50   C62   1.525159 S    
C20   H20   1.076386 S    
N20   Ni6   1.910245 S    
N7    Ni4   1.804395 S    
C91   C120  1.407360 A    
C108  H51   1.077201 S    
C93   C101  1.387734 A    
C23   N23   1.324739 A    
C10   H10   1.077048 S    
C72   C76   1.540547 S    
C36   C66   1.436357 S    
N46   O27   1.300331 A    
C24   N24   1.324774 A    
C114  C117  1.420965 A    
C23   H23   1.078972 S    
N22   Ni8   1.797745 S    
C113  C118  1.420974 A    
C96   C104  1.392534 A    
C31   C38   1.366788 A    
C3    N3    1.327880 A    
C2    N2    1.328177 A    
N29   Ni8   1.865632 S    
C71   C75   1.540675 S    
C108  C116  1.395290 A    
C92   C119  1.407372 A    
C92   C100  1.390799 A    
N37   O10   1.301548 A    
N16   N21   1.423178 A    
C5    H5    1.080956 S    
C20   N20   1.332306 A    
C27   N27   1.328324 A    
C43   C84   1.469407 S    
C8    N8    1.327903 A    
C30   H30   1.080854 S    
C6    N6    1.328489 A    
N6    Ni4   1.808122 S    
C35   C65   1.436342 S    
C29   H29   1.080859 S    
C6    C38   1.364473 A    
C8    H8    1.079038 S    
C96   C115  1.410927 A    
C7    C39   1.377601 A    
C31   H31   1.081703 S    
N13   N24   1.423086 A    
C63   N47   1.453266 S    
C16   N16   1.343779 A    
C28   H28   1.080932 S    
N12   N17   1.423178 A    
C1    N1    1.328174 A    
N1    N28   1.386266 A    
C21   H21   1.076249 S    
C26   H26   1.081746 S    
C56   C60   1.525333 S    
C25   H25   1.081748 S    
N34   O3    1.300716 A    
C64   C72   1.520741 S    
C52   H36   1.109948 S    
N33   O1    1.300722 A    
N9    N20   1.423086 A    
C53   H37   1.109934 S    
C99   H60   1.078134 S    
C54   C78   1.559109 S    
C19   H19   1.076387 S    
C98   H57   1.080319 S    
N40   O16   1.301530 A    
N41   O18   1.300102 A    
C41   C82   1.468587 S    
C52   C64   1.544864 S    
N1    Ni1   1.808126 S    
C111  H56   1.078519 S    
C18   H18   1.078952 S    
N26   Ni5   1.865634 S    
C12   H12   1.080145 S    
C1    H1    1.079049 S    
C50   H34   1.110774 S    
N48   O31   1.300072 A    
C111  C119  1.392377 A    
C9    C41   1.399979 A    
C102  H61   1.079047 S    
C1    C33   1.376406 A    
C87   C104  1.403765 A    
N45   O26   1.300368 A    
C45   C86   1.470043 S    
C88   C103  1.403745 A    
C60   N44   1.458939 S    
C7    H7    1.079051 S    
C22   H22   1.076259 S    
N3    Ni2   1.804395 S    
N39   O14   1.301528 A    
C28   C33   1.377142 A    
C12   N12   1.345464 A    
C27   C34   1.377122 A    
C15   C47   1.400713 A    
C47   C88   1.469423 S    
C13   N13   1.345417 A    
C5    N5    1.328506 A    
C60   C68   1.526921 S    
C32   N32   1.331165 A    
N44   O24   1.300505 A    
N28   Ni5   1.865085 S    
N15   N22   1.423177 A    
C31   N31   1.331182 A    
N4    N25   1.386356 A    
C90   C98   1.396043 A    
C11   N11   1.345464 A    
C55   C72   1.538746 S    
C6    H6    1.080954 S    
C8    C40   1.377595 A    
N30   Ni7   1.865634 S    
N10   Ni1   1.844390 S    
C22   N22   1.331845 A    
C116  C119  1.421141 A    
C11   C43   1.397361 A    
C17   C44   1.375108 A    
C56   C71   1.538911 S    
C96   N36   1.433552 S    
C11   H11   1.080146 S    
N24   Ni8   1.910245 S    
C24   H24   1.078971 S    
N38   O12   1.301547 A    
N27   Ni6   1.865086 S    
C61   C69   1.527171 S    
N21   Ni7   1.797746 S    
N35   O6    1.301291 A    
C19   N19   1.332308 A    
C90   N38   1.439947 S    
N25   Ni6   1.865632 S    
C59   C67   1.526754 S    
C56   H40   1.110908 S    
C76   H44   1.109976 S    
N14   N23   1.423085 A    
N15   Ni3   1.848163 S    
C112  C120  1.392392 A    
C17   N17   1.324379 A    
C28   N28   1.328337 A    
N14   Ni3   1.844390 S    
C21   C48   1.383897 A    
C20   C41   1.383424 A    
C50   C74   1.549970 S    
N23   Ni7   1.910243 S    
C52   C76   1.559085 S    
C23   C46   1.375267 A    
N18   Ni6   1.797745 S    
N10   N19   1.423085 A    
C13   H13   1.080117 S    
C42   C81   1.468651 S    
N48   O32   1.300138 A    
C82   C105  1.393072 A    
C4    H4    1.080872 S    
N36   O7    1.300874 A    
C95   C116  1.411006 A    
C88   C111  1.393128 A    
C77   H45   1.109976 S    
N43   O21   1.300318 A    
N19   Ni5   1.910243 S    
C57   N41   1.452849 S    
C95   N35   1.433626 S    
C24   C45   1.375254 A    
C16   H16   1.076735 S    
N2    Ni2   1.808122 S    
C78   H46   1.109978 S    
N42   O20   1.300100 A    
C38   C72   1.436594 S    
C115  C120  1.421108 A    
C46   C85   1.469987 S    
C63   C71   1.520875 S    
C3    C35   1.364158 A    
N40   O15   1.301554 A    
C86   C109  1.396680 A    
C62   N46   1.458808 S    
C63   C80   1.536346 S    
C16   C48   1.400699 A    
C62   C70   1.527168 S    
C30   C39   1.378328 A    
C101  H62   1.079045 S    
C57   C65   1.520800 S    
C81   C106  1.393131 A    
C14   N14   1.345399 A    
C104  H63   1.080831 S    
C83   C108  1.396682 A    
C84   C107  1.396686 A    
C95   C103  1.392558 A    
C74   H42   1.110015 S    
C17   H17   1.078955 S    
C37   C71   1.436603 S    
N47   O29   1.300190 A    
C18   N18   1.324372 A    
C26   C35   1.367155 A    
C66   C78   1.540754 S    
N5    N32   1.386266 A    
C58   N42   1.452849 S    
N31   Ni8   1.865086 S    
C64   N48   1.453203 S    
C65   C77   1.540756 S    
C89   N37   1.439944 S    
C97   H58   1.080326 S    
C5    C37   1.364539 A    
N16   Ni4   1.848164 S    
C32   C37   1.366759 A    
C75   H43   1.110143 S    
C79   H47   1.110016 S    
C26   N26   1.331410 A    
C4    C36   1.364163 A    
N44   O23   1.300465 A    
C85   C110  1.396688 A    
C25   N25   1.331416 A    
C107  H52   1.077243 S    
C32   H32   1.081710 S    
N3    N26   1.386359 A    
N8    N29   1.386356 A    
N11   Ni1   1.848163 S    
C106  H49   1.077751 S    
N47   O30   1.300327 A    
N13   Ni4   1.844389 S    
C27   H27   1.080957 S    
C105  H50   1.077757 S    
C57   C74   1.535730 S    
C7    N7    1.327905 A    
C34   C68   1.437730 S    
C12   C44   1.397350 A    
C19   C42   1.383476 A    
C73   H41   1.110018 S    
C82   C97   1.403799 A    
C29   N29   1.327937 A    
N38   O11   1.301573 A    
N33   O2    1.301207 A    
C54   H38   1.109930 S    
C22   C47   1.383889 A    
C58   C73   1.535738 S    
C53   C77   1.559108 S    
C80   H48   1.110176 S    
C10   N10   1.344141 A    
N4    Ni1   1.804396 S    
C55   C59   1.525171 S    
C87   C112  1.393154 A    
C3    H3    1.080873 S    
C53   C70   1.538633 S    
C39   C69   1.437727 S    
C86   C101  1.405711 A    
N12   Ni2   1.848164 S    
C4    N4    1.327888 A    
N7    N30   1.386359 A    
C53   C57   1.544901 S    
C48   C87   1.469425 S    
C91   C99   1.390814 A    
C51   C68   1.539298 S    
C2    C34   1.376394 A    
N8    Ni3   1.804396 S    
N46   O28   1.300370 A    
C9    N9    1.344130 A    
C70   C74   1.541878 S    
C44   C83   1.469405 S    
C51   C63   1.544909 S    
N35   O5    1.300969 A    
C15   H15   1.076724 S    
N17   Ni5   1.797746 S    
C49   C66   1.538291 S    
C29   C40   1.378318 A    
C15   N15   1.343787 A    
C94   C102  1.387677 A    
C49   C61   1.525160 S    
N37   O9    1.301572 A    
C110  H53   1.078763 S    
C103  H64   1.080828 S    
C91   N39   1.440315 S    
C52   C67   1.539175 S    
N39   O13   1.301554 A    
C9    H9    1.077043 S    
N42   O19   1.300057 A    
C2    H2    1.079070 S    
