data_mof_unit_26265.cif
_audit_creation_date              2013-03-05T15:44:22-0500
_audit_creation_method            fapswitch 2.2
_symmetry_space_group_name_H-M    P1
_symmetry_Int_Tables_number       1
_space_group_crystal_system       triclinic
_cell_length_a                    18.836309
_cell_length_b                    18.833097
_cell_length_c                    20.35861
_cell_angle_alpha                 107.164069
_cell_angle_beta                  106.443931
_cell_angle_gamma                 110.987155
_cell_volume                      5798.70740466

loop_
_atom_site_label
_atom_site_type_symbol
_atom_site_description
_atom_site_fract_x
_atom_site_fract_y
_atom_site_fract_z
_atom_type_partial_charge
C1    C     C_R   0.082794 0.087860 0.352362 -0.154655
H1    H     H_    0.129703 0.153028 0.373430 0.091052
N1    N     N_R   0.052580 0.056040 0.395500 -0.041874
C2    C     C_R   0.761398 0.925922 0.504950 -0.142271
H2    H     H_    0.721716 0.859946 0.488876 0.086366
N2    N     N_R   0.834730 0.954500 0.499860 -0.037735
C3    C     C_R   0.839239 0.816032 0.281395 -0.112881
H3    H     H_    0.860521 0.812955 0.237262 0.121877
N3    N     N_R   0.890210 0.849400 0.355780 -0.043384
C4    C     C_R   0.948298 0.195351 0.520216 -0.130870
H4    H     H_    0.903150 0.198972 0.541944 0.095974
N4    N     N_R   0.997110 0.161140 0.539580 -0.041080
C5    C     C_R   0.760779 0.809924 0.346004 -0.125407
H5    H     H_    0.709225 0.800493 0.361760 0.093082
N5    N     N_R   0.841950 0.845400 0.395490 -0.039487
C6    C     C_R   0.026717 0.202406 0.455758 -0.120057
H6    H     H_    0.054484 0.213255 0.417784 0.097352
N6    N     N_R   0.045360 0.165140 0.499870 -0.040697
C7    C     C_R   0.830809 0.066107 0.569360 -0.145558
H7    H     H_    0.855492 0.129336 0.612805 0.087108
N7    N     N_R   0.877490 0.041510 0.539580 -0.037881
C8    C     C_R   0.013598 0.947639 0.288531 -0.061369
H8    H     H_    0.998576 0.884449 0.251745 0.098285
N8    N     N_R   0.009820 0.969030 0.355780 -0.051127
C9    C     C_R   0.057569 0.021068 0.283684 0.129333
C10   C     C_R   0.757205 0.994730 0.549163 0.084400
C11   C     C_R   0.756960 0.792044 0.273206 0.041080
C12   C     C_R   0.963717 0.220060 0.465587 0.074487
C13   C     C_R   0.229264 0.229418 0.644885 -0.145403
H9    H     H_    0.270832 0.255660 0.621123 0.090427
N9    N     N_R   0.158050 0.154600 0.604510 -0.036337
C14   C     C_R   0.920329 0.756244 0.494263 -0.144647
H10   H     H_    0.869692 0.732217 0.509985 0.087105
N10   N     N_R   0.954640 0.834860 0.500130 -0.038736
C15   C     C_R   0.175542 0.928633 0.480332 -0.132488
H11   H     H_    0.158066 0.862330 0.458761 0.097259
N11   N     N_R   0.122510 0.958490 0.460420 -0.044600
C16   C     C_R   0.034383 0.052248 0.717872 -0.124398
H12   H     H_    0.076284 0.116297 0.762128 0.097124
N12   N     N_R   0.990180 0.030970 0.644220 -0.039620
C17   C     C_R   0.964668 0.911025 0.653191 -0.127223
H13   H     H_    0.943471 0.844447 0.637105 0.097946
N13   N     N_R   0.947420 0.943960 0.604500 -0.039619
C18   C     C_R   0.245221 0.069891 0.544985 -0.133380
H14   H     H_    0.292606 0.134727 0.583575 0.095777
N14   N     N_R   0.165270 0.045500 0.500140 -0.042757
C19   C     C_R   0.151718 0.222950 0.709021 -0.143134
H15   H     H_    0.122958 0.242143 0.744937 0.087785
N15   N     N_R   0.109790 0.150600 0.644220 -0.037365
C20   C     C_R   0.998017 0.762994 0.430185 -0.148008
H16   H     H_    0.019001 0.745477 0.386765 0.088915
N16   N     N_R   0.002890 0.838860 0.460420 -0.038644
Ni1   Ni    Ni4+2 0.104370 0.104380 0.500010 0.211354
Ni2   Ni    Ni4+2 0.895630 0.895620 0.499990 0.213146
Ni3   Ni    Ni4+2 0.006300 0.904810 0.408930 0.214123
Ni4   Ni    Ni4+2 0.993700 0.095190 0.591070 0.212866
C21   C     C_R   0.227179 0.274565 0.711023 0.047344
C22   C     C_R   0.945762 0.708876 0.449833 0.086447
C23   C     C_R   0.253303 0.997320 0.535314 0.076900
C24   C     C_R   0.021207 0.977878 0.725041 0.038207
C25   C     C_R   0.944345 0.577412 0.373408 -0.259325
C26   C     C_R   0.914055 0.616809 0.420163 0.113441
C27   C     C_R   0.859554 0.569315 0.444096 -0.260903
C28   C     C_R   0.845579 0.487611 0.431334 0.142660
C29   C     C_R   0.885127 0.452575 0.392658 0.028252
C30   C     C_R   0.931177 0.495918 0.360317 0.141505
C31   C     C_R   0.799747 0.443954 0.463188 -0.206994
C32   C     C_R   0.800789 0.370556 0.463909 -0.203807
C33   C     C_R   0.847900 0.340674 0.432998 0.140221
C34   C     C_R   0.886362 0.378954 0.393551 0.026791
C35   C     C_R   0.933900 0.349278 0.362352 0.137377
C36   C     C_R   0.971764 0.387535 0.323032 -0.199061
C37   C     C_R   0.970410 0.460712 0.322023 -0.206321
C38   C     C_R   0.865176 0.279837 0.448366 -0.253867
C39   C     C_R   0.923339 0.260098 0.427757 0.115549
C40   C     C_R   0.950738 0.288551 0.378480 -0.245898
H17   H     H_    0.984039 0.611789 0.352131 0.117688
H18   H     H_    0.833278 0.597524 0.477996 0.117202
H19   H     H_    0.767843 0.469506 0.491901 0.129602
H20   H     H_    0.769827 0.340782 0.493315 0.130402
H21   H     H_    0.839528 0.254705 0.482703 0.118876
H22   H     H_    0.991837 0.270282 0.358517 0.122041
H23   H     H_    0.007323 0.364440 0.297749 0.133044
H24   H     H_    0.004801 0.492781 0.295821 0.130689
C41   C     C_R   0.329974 0.915684 0.552726 -0.255079
C42   C     C_R   0.330205 0.993881 0.573270 0.114970
C43   C     C_R   0.406668 0.069356 0.622120 -0.256830
C44   C     C_R   0.483092 0.068309 0.637679 0.140822
C45   C     C_R   0.482377 0.990387 0.606396 0.027257
C46   C     C_R   0.405776 0.913455 0.567512 0.140226
C47   C     C_R   0.559535 0.144527 0.676416 -0.203768
C48   C     C_R   0.633503 0.144177 0.676802 -0.204895
C49   C     C_R   0.631342 0.067609 0.638476 0.141897
C50   C     C_R   0.556682 0.990044 0.606654 0.028002
C51   C     C_R   0.553992 0.912794 0.567947 0.143017
C52   C     C_R   0.479474 0.835925 0.536610 -0.205651
C53   C     C_R   0.405555 0.836245 0.536505 -0.203290
C54   C     C_R   0.699861 0.067976 0.624999 -0.258999
C55   C     C_R   0.693776 0.992055 0.578478 0.114201
C56   C     C_R   0.623067 0.914277 0.554815 -0.259812
H25   H     H_    0.271407 0.856552 0.518752 0.119180
H26   H     H_    0.407799 0.129889 0.642003 0.117937
H27   H     H_    0.561074 0.204715 0.701730 0.130522
H28   H     H_    0.690969 0.204108 0.702599 0.130156
H29   H     H_    0.754796 0.128406 0.645953 0.116563
H30   H     H_    0.618273 0.854932 0.521046 0.116659
H31   H     H_    0.477021 0.776032 0.507882 0.129286
H32   H     H_    0.347231 0.776607 0.507515 0.130624
C57   C     C_R   0.281934 0.366344 0.760759 0.141937
C58   C     C_R   0.253435 0.413910 0.802881 -0.187605
C59   C     C_R   0.306929 0.499776 0.852263 -0.158621
C60   C     C_R   0.389937 0.539284 0.860610 0.224717
C61   C     C_R   0.416443 0.493489 0.814747 -0.178131
C62   C     C_R   0.363124 0.407560 0.765563 -0.178273
C63   C     C_R   0.614749 0.703272 0.063923 -0.135102
C64   C     C_R   0.685973 0.736499 0.131558 -0.143121
C65   C     C_R   0.605696 0.753969 0.203415 -0.165077
C66   C     C_R   0.534147 0.720371 0.135502 -0.184686
C67   C     C_R   0.537572 0.693559 0.065084 0.214781
C68   C     C_2   0.454479 0.622612 0.924543 -0.226218
C69   C     C_2   0.457466 0.641584 0.994607 -0.215257
C70   C     C_R   0.681960 0.760585 0.202004 0.126404
H33   H     H_    0.190301 0.385129 0.798658 0.113005
H34   H     H_    0.743086 0.739986 0.127712 0.142687
H35   H     H_    0.600328 0.773069 0.256562 0.114434
H36   H     H_    0.402100 0.606196 0.001033 0.132654
H37   H     H_    0.480416 0.522838 0.820613 0.116899
H38   H     H_    0.619861 0.680565 0.011039 0.122066
H39   H     H_    0.386770 0.372846 0.733564 0.112127
H40   H     H_    0.509342 0.658203 0.917698 0.138290
H41   H     H_    0.284276 0.534433 0.885657 0.115563
H42   H     H_    0.475139 0.712421 0.137777 0.117588
C71   C     C_R   0.090344 0.024627 0.226447 -0.041414
C72   C     C_R   0.041468 0.963377 0.149196 0.340443
C73   C     C_R   0.078462 0.962890 0.098590 -0.269947
C74   C     C_R   0.161977 0.024114 0.122623 0.169785
C75   C     C_R   0.208761 0.086476 0.198241 -0.167546
C76   C     C_R   0.173767 0.086027 0.250065 -0.211190
C77   C     C_R   0.183391 0.035479 0.918120 -0.150938
C78   C     C_R   0.143830 0.039996 0.851492 -0.183917
C79   C     C_R   0.033098 0.895415 0.799679 -0.164716
C80   C     C_R   0.072594 0.890952 0.866246 -0.176781
C81   C     C_R   0.145675 0.962158 0.927373 0.219937
C82   C     C_2   0.194406 0.031421 0.065724 -0.187662
C83   C     C_2   0.169987 0.962133 0.002876 -0.230974
C84   C     C_R   0.066598 0.971080 0.792914 0.140753
H43   H     H_    0.173077 0.098050 0.846688 0.118159
H44   H     H_    0.974196 0.840890 0.755273 0.113725
H45   H     H_    0.144072 0.900762 0.003556 0.142282
H46   H     H_    0.272383 0.135505 0.217114 0.123491
H47   H     H_    0.241362 0.090505 0.963318 0.113431
H48   H     H_    0.212634 0.133212 0.308955 0.132307
H49   H     H_    0.222007 0.094140 0.068272 0.131479
H50   H     H_    0.039757 0.917813 0.038963 0.168274
H51   H     H_    0.042418 0.833700 0.872070 0.119755
N17   N     N_R   0.953442 0.904471 0.120265 0.221646
O1    O     O_R   0.904122 0.929536 0.141506 -0.409754
O2    O     O_R   0.919947 0.829223 0.064780 -0.424274

loop_
_geom_bond_atom_site_label_1
_geom_bond_atom_site_label_2
_geom_bond_distance
_ccdc_geom_bond_type
C32   H20   1.083744 S    
C43   C44   1.392423 A    
C22   C26   1.470973 S    
C49   C50   1.409052 A    
C17   H13   1.078822 S    
C51   C52   1.401902 A    
C14   C22   1.385173 A    
C65   C70   1.406133 A    
C73   C74   1.405537 A    
C19   N15   1.341298 A    
C41   C42   1.405224 A    
C18   H14   1.077489 S    
N8    Ni3   1.842185 S    
C26   C27   1.405016 A    
C73   H50   1.083139 S    
C64   C70   1.403688 A    
C68   H40   1.084966 S    
N17   O1    1.301533 A    
C15   N11   1.336417 A    
N9    N15   1.374253 A    
N2    N7    1.375353 A    
C16   H12   1.078757 S    
C6    H6    1.076383 S    
C18   C23   1.391799 A    
C29   C34   1.400371 A    
C54   C55   1.405852 A    
C45   C50   1.400482 A    
C3    C11   1.393407 A    
C15   C23   1.389844 A    
C1    H1    1.081168 S    
C82   H49   1.084843 S    
C7    C10   1.383559 A    
C66   C67   1.401008 A    
N6    Ni1   1.859075 S    
C58   C59   1.393142 A    
C53   H32   1.083770 S    
C77   C81   1.404831 A    
C25   C30   1.391612 A    
N12   N13   1.375353 A    
C72   N17   1.438994 S    
C59   C60   1.403165 A    
C25   H17   1.080740 S    
C32   C33   1.401819 A    
N12   Ni4   1.842187 S    
C8    C9    1.383638 A    
C19   H15   1.080428 S    
C20   N16   1.335572 A    
C34   C35   1.410175 A    
N3    Ni3   1.844147 S    
C80   H51   1.083669 S    
C9    C71   1.472150 S    
C46   C53   1.401900 A    
C6    C12   1.391619 A    
C79   H44   1.082058 S    
N16   Ni3   1.842574 S    
C10   C55   1.471251 S    
C71   C76   1.407154 A    
C5    H5    1.078825 S    
C1    C9    1.385888 A    
C17   N13   1.340842 A    
N1    N8    1.375356 A    
C33   C34   1.409445 A    
C79   C80   1.392242 A    
C24   C84   1.473338 S    
N2    Ni2   1.859238 S    
C78   H43   1.081960 S    
C60   C61   1.400706 A    
C11   C70   1.477237 S    
C18   N14   1.338297 A    
C67   C69   1.476808 S    
C21   C57   1.474931 S    
C37   H24   1.083742 S    
C38   C39   1.405161 A    
C31   C32   1.393778 A    
C20   C22   1.382952 A    
C28   C31   1.401817 A    
C3    H3    1.077568 S    
C31   H19   1.083716 S    
C2    N2    1.337840 A    
C78   C84   1.405283 A    
C47   C48   1.393474 A    
C60   C68   1.472008 S    
C42   C43   1.404333 A    
C36   C37   1.393554 A    
C76   H48   1.082264 S    
C30   C37   1.402011 A    
C63   H38   1.080623 S    
C1    N1    1.342977 A    
C15   H11   1.077257 S    
C14   N10   1.338111 A    
C39   C40   1.404360 A    
N5    Ni2   1.830994 S    
C13   H9    1.081541 S    
C58   H33   1.080889 S    
C19   C21   1.386026 A    
C43   H26   1.081350 S    
N13   Ni2   1.831102 S    
C55   C56   1.405130 A    
C44   C47   1.401471 A    
C77   C78   1.394186 A    
C52   C53   1.393934 A    
C20   H16   1.079602 S    
C33   C38   1.391946 A    
C6    N6    1.338799 A    
N9    Ni1   1.830994 S    
C54   H29   1.080714 S    
N4    Ni4   1.842574 S    
C4    N4    1.336009 A    
C57   C62   1.403951 A    
C16   C24   1.391673 A    
C79   C84   1.403120 A    
C59   H41   1.082651 S    
C52   H31   1.083744 S    
C13   C21   1.384051 A    
N10   Ni2   1.859075 S    
C50   C51   1.409990 A    
C63   C67   1.406720 A    
C5    N5    1.340892 A    
C71   C72   1.414374 A    
C62   H39   1.082440 S    
C8    N8    1.338634 A    
C75   H46   1.083359 S    
C38   H21   1.081106 S    
C40   H22   1.081317 S    
C45   C46   1.409497 A    
C41   H25   1.081179 S    
C68   C69   1.343442 D    
C61   C62   1.392920 A    
C4    C12   1.389010 A    
C81   C83   1.474648 S    
C64   H34   1.080700 S    
C7    N7    1.335347 A    
C51   C56   1.393012 A    
C56   H30   1.081197 S    
C8    H8    1.081658 S    
C17   C24   1.389108 A    
C47   H27   1.083760 S    
C82   C83   1.342722 D    
N7    Ni4   1.844641 S    
C2    C10   1.385948 A    
C41   C46   1.392173 A    
C72   C73   1.397333 A    
C61   H37   1.083649 S    
N15   Ni4   1.844147 S    
C75   C76   1.393807 A    
N10   N16   1.374099 A    
C28   C29   1.409912 A    
C7    H7    1.079554 S    
N17   O2    1.301391 A    
N3    N5    1.374251 A    
C23   C42   1.470571 S    
C69   H36   1.086161 S    
C74   C82   1.472547 S    
C57   C58   1.406310 A    
C14   H10   1.079891 S    
C16   N12   1.342280 A    
N1    Ni1   1.831102 S    
C35   C40   1.392450 A    
C2    H2    1.079781 S    
N14   Ni1   1.859237 S    
C77   H47   1.082006 S    
C48   C49   1.402050 A    
C25   C26   1.405686 A    
C36   H23   1.083733 S    
C66   H42   1.083529 S    
C4    H4    1.077149 S    
C48   H28   1.083777 S    
C27   C28   1.392717 A    
N11   Ni3   1.844644 S    
C3    N3    1.339029 A    
C35   C36   1.401478 A    
C44   C45   1.410244 A    
C13   N9    1.341152 A    
C29   C30   1.409103 A    
N4    N6    1.374100 A    
C80   C81   1.401706 A    
C5    C11   1.393860 A    
N11   N14   1.375354 A    
C65   C66   1.395064 A    
C12   C39   1.470435 S    
C65   H35   1.081016 S    
C49   C54   1.391493 A    
C83   H45   1.087883 S    
C74   C75   1.396194 A    
C63   C64   1.389847 A    
C27   H18   1.081140 S    
