data_mof_unit_58821.cif
_audit_creation_date              2012-12-11T15:36:35-0500
_audit_creation_method            fapswitch 2.2
_symmetry_space_group_name_H-M    P1
_symmetry_Int_Tables_number       1
_space_group_crystal_system       triclinic
_cell_length_a                    15.061783
_cell_length_b                    15.076087
_cell_length_c                    34.849676
_cell_angle_alpha                 91.252079
_cell_angle_beta                  91.753718
_cell_angle_gamma                 60.116925
_cell_volume                      6857.86305465

loop_
_atom_site_label
_atom_site_type_symbol
_atom_type_description
_atom_site_fract_x
_atom_site_fract_y
_atom_site_fract_z
_atom_type_partial_charge
C1    C     C_R   0.610930 0.302171 0.444115 0.572059
C2    C     C_R   0.742601 0.687373 0.182904 0.030901
C3    C     C_R   0.611401 0.146045 0.830010 0.069678
C4    C     C_R   0.684406 0.163138 0.849594 -0.172476
C5    C     C_R   0.715003 0.129493 0.887009 -0.142205
C6    C     C_R   0.584957 0.257882 0.774056 -0.128578
C7    C     C_R   0.588920 0.269875 0.734741 -0.120546
C8    C     C_R   0.601743 0.191655 0.709025 0.022969
C9    C     C_R   0.605765 0.103181 0.722952 -0.126892
C10   C     C_R   0.603290 0.090473 0.762420 -0.070426
C11   C     C_R   0.594867 0.166966 0.788355 0.067813
C12   C     C_R   0.550174 0.192155 0.640233 -0.118738
C13   C     C_R   0.827557 0.620922 0.161096 -0.123683
C14   C     C_R   0.552621 0.216775 0.602013 -0.124545
C15   C     C_R   0.689945 0.251719 0.618317 -0.123679
C16   C     C_R   0.686288 0.228733 0.656535 -0.122743
C17   C     C_R   0.614196 0.202054 0.667935 0.029692
C18   C     C_R   0.620242 0.250082 0.590995 0.024612
C19   C     C_R   0.045390 0.739142 0.048612 0.540493
C20   C     C_R   0.747441 0.746731 0.064110 0.543845
C21   C     C_R   0.751365 0.040210 0.050687 0.541534
C22   C     C_R   0.017093 0.722438 0.939802 0.544538
C23   C     C_R   0.717183 0.730145 0.954915 0.541783
C24   C     C_R   0.826964 0.635876 0.121663 -0.127426
C25   C     C_R   0.721477 0.024200 0.941986 0.547105
C26   C     C_R   0.776496 0.582454 0.241604 -0.117132
C27   C     C_R   0.767300 0.575738 0.280984 -0.114310
C28   C     C_R   0.727058 0.664079 0.304279 0.029493
C29   C     C_R   0.701403 0.758257 0.287803 -0.117887
C30   C     C_R   0.709993 0.765013 0.248420 -0.117765
C31   C     C_R   0.744871 0.677654 0.224917 0.026904
C32   C     C_R   0.606209 0.734018 0.358639 -0.118733
C33   C     C_R   0.593358 0.610187 0.449416 0.542383
C34   C     C_R   0.573469 0.721168 0.393998 -0.125967
C35   C     C_R   0.733052 0.561919 0.402773 -0.122533
C36   C     C_R   0.765912 0.574985 0.367456 -0.120015
C37   C     C_R   0.701324 0.659351 0.344478 0.031870
C38   C     C_R   0.635065 0.633154 0.415744 0.020328
C39   C     C_R   0.101599 0.728934 0.085161 0.021654
C40   C     C_R   0.147687 0.635020 0.104499 -0.125729
C41   C     C_R   0.170213 0.631112 0.143662 -0.122547
C42   C     C_R   0.148400 0.720642 0.164022 0.030017
C43   C     C_R   0.113162 0.812419 0.144087 -0.122266
C44   C     C_R   0.303839 0.591503 0.442394 0.541936
C45   C     C_R   0.089760 0.816631 0.104793 -0.128097
C46   C     C_R   0.207291 0.756370 0.227374 -0.118156
C47   C     C_R   0.214688 0.748342 0.267358 -0.114966
C48   C     C_R   0.165227 0.704684 0.286763 0.028780
C49   C     C_R   0.105140 0.672957 0.265498 -0.118969
C50   C     C_R   0.098964 0.679732 0.225625 -0.116818
C51   C     C_R   0.151649 0.719505 0.206262 0.026232
C52   C     C_R   0.200020 0.590407 0.342865 -0.120205
C53   C     C_R   0.231966 0.563506 0.380889 -0.126866
C54   C     C_R   0.226790 0.725290 0.391558 -0.124888
C55   C     C_R   0.605513 0.300724 0.553779 0.542582
C56   C     C_R   0.194173 0.752486 0.353528 -0.120964
C57   C     C_R   0.183808 0.683838 0.328448 0.032564
C58   C     C_R   0.249260 0.629075 0.405225 0.021694
C59   C     C_R   0.725456 0.096864 0.087283 0.024554
C60   C     C_R   0.802430 0.101568 0.109496 -0.126034
C61   C     C_R   0.787089 0.128630 0.148207 -0.123226
C62   C     C_R   0.694173 0.152777 0.165019 0.030878
C63   C     C_R   0.613957 0.157447 0.142008 -0.119862
C64   C     C_R   0.629618 0.129274 0.103403 -0.125455
C65   C     C_R   0.596377 0.242879 0.223366 -0.118420
C66   C     C_R   0.587499 0.606369 0.559099 0.540176
C67   C     C_R   0.586300 0.249787 0.263089 -0.112623
C68   C     C_R   0.663619 0.176066 0.287016 0.032948
C69   C     C_R   0.750970 0.095061 0.270459 -0.118371
C70   C     C_R   0.761375 0.088674 0.230757 -0.116930
C71   C     C_R   0.684368 0.162796 0.206967 0.027582
C72   C     C_R   0.740725 0.173127 0.351712 -0.111285
C73   C     C_R   0.729990 0.201663 0.390709 0.243853
C74   C     C_R   0.549276 0.252928 0.385005 -0.179100
C75   C     C_R   0.561040 0.223892 0.346517 -0.143846
C76   C     C_R   0.655636 0.188264 0.329134 -0.000649
C77   C     C_R   0.298001 0.589131 0.551688 0.545021
C78   C     C_R   0.631895 0.247112 0.406945 0.060325
C79   C     C_R   0.691569 0.690036 0.919855 0.020877
C80   C     C_R   0.765488 0.597286 0.903408 -0.127343
C81   C     C_R   0.753288 0.572641 0.865522 -0.123449
C82   C     C_R   0.667067 0.640294 0.843442 0.031723
C83   C     C_R   0.588788 0.728149 0.861066 -0.117508
C84   C     C_R   0.600751 0.752612 0.898972 -0.126425
C85   C     C_R   0.571338 0.652276 0.781903 -0.116613
C86   C     C_R   0.566335 0.651655 0.741883 -0.115624
C87   C     C_R   0.653975 0.624789 0.720548 0.027516
C88   C     C_R   0.741087 0.717186 0.103530 0.021362
C89   C     C_R   0.747459 0.595340 0.739867 -0.116179
C90   C     C_R   0.752378 0.596591 0.779906 -0.112289
C91   C     C_R   0.664022 0.626475 0.801333 0.029972
C92   C     C_R   0.718907 0.544670 0.656412 -0.123200
C93   C     C_R   0.704368 0.541537 0.616755 -0.128873
C94   C     C_R   0.550834 0.707891 0.619844 -0.126236
C95   C     C_R   0.565108 0.710641 0.659459 -0.122510
C96   C     C_R   0.647131 0.627483 0.678216 0.030731
C97   C     C_R   0.617920 0.621397 0.598302 0.021594
C98   C     C_R   0.066855 0.698390 0.902514 0.023289
C99   C     C_R   0.654003 0.779582 0.125158 -0.124114
C100  C     C_R   0.092949 0.766448 0.886216 -0.126096
C101  C     C_R   0.121793 0.754664 0.848087 -0.122102
C102  C     C_R   0.124537 0.674955 0.825692 0.031206
C103  C     C_R   0.105222 0.602894 0.842713 -0.119256
C104  C     C_R   0.076907 0.614320 0.880927 -0.124497
C105  C     C_R   0.199576 0.577902 0.765329 -0.118257
C106  C     C_R   0.208493 0.574518 0.725663 -0.115603
C107  C     C_R   0.157407 0.664790 0.704177 0.028050
C108  C     C_R   0.097903 0.758658 0.722842 -0.117519
C109  C     C_R   0.088466 0.762016 0.762533 -0.114871
C110  C     C_R   0.654959 0.765005 0.164484 -0.120331
C111  C     C_R   0.139215 0.671614 0.784059 0.028273
C112  C     C_R   0.200912 0.725016 0.645625 -0.121024
C113  C     C_R   0.234440 0.707226 0.607969 -0.127346
C114  C     C_R   0.200093 0.566291 0.602877 -0.123873
C115  C     C_R   0.166897 0.583966 0.640494 -0.121806
C116  C     C_R   0.171505 0.660398 0.662587 0.030728
C117  C     C_R   0.238904 0.624534 0.586976 0.022730
C118  C     C_R   0.673384 0.077817 0.905812 -0.010197
C119  C     C_R   0.594914 0.066927 0.887475 -0.124486
C120  C     C_R   0.563429 0.100717 0.849460 0.245294
Cr1   Cr    Cr6+3 0.426010 0.422500 0.497000 1.009173
Cr2   Cr    Cr6+3 0.651300 0.426310 0.501970 1.040163
Cr3   Cr    Cr6+3 0.422670 0.651170 0.501050 1.011142
Cr4   Cr    Cr6+3 0.905130 0.911420 0.992650 1.010406
Cr5   Cr    Cr6+3 0.911860 0.682710 0.002320 1.010337
Cr6   Cr    Cr6+3 0.682710 0.906840 0.004710 1.011336
H1    H     H_    0.586550 0.842669 0.112057 0.128998
H2    H     H_    0.497639 0.777408 0.403251 0.127968
H3    H     H_    0.782714 0.493794 0.419122 0.135623
H4    H     H_    0.158697 0.565979 0.090089 0.124449
H5    H     H_    0.054205 0.890147 0.090694 0.122577
H6    H     H_    0.180260 0.825836 0.343419 0.100106
H7    H     H_    0.262623 0.772312 0.282880 0.102991
H8    H     H_    0.248007 0.787683 0.212845 0.104522
H9    H     H_    0.199226 0.559204 0.158548 0.103653
H10   H     H_    0.064363 0.641140 0.279641 0.106394
H11   H     H_    0.895425 0.586857 0.105796 0.126519
H12   H     H_    0.053578 0.653099 0.209772 0.110170
H13   H     H_    0.193909 0.535216 0.324218 0.100031
H14   H     H_    0.248997 0.488675 0.390478 0.124895
H15   H     H_    0.096289 0.882201 0.159398 0.101147
H16   H     H_    0.238783 0.777765 0.409727 0.124411
H17   H     H_    0.877140 0.076772 0.097844 0.121375
H18   H     H_    0.568962 0.126580 0.086833 0.118368
H19   H     H_    0.494892 0.233595 0.329883 0.112310
H20   H     H_    0.519104 0.314247 0.275124 0.107701
H21   H     H_    0.536223 0.300788 0.205462 0.104811
H22   H     H_    0.840288 0.517220 0.357471 0.104242
H23   H     H_    0.849378 0.126064 0.165461 0.102461
H24   H     H_    0.828881 0.024874 0.218557 0.110845
H25   H     H_    0.814336 0.144803 0.338545 0.087894
H26   H     H_    0.541661 0.175903 0.154463 0.102361
H27   H     H_    0.473516 0.286149 0.396840 0.133818
H28   H     H_    0.835918 0.546956 0.918892 0.123008
H29   H     H_    0.542280 0.824561 0.910805 0.124597
H30   H     H_    0.510002 0.776306 0.675666 0.105569
H31   H     H_    0.786390 0.502333 0.292798 0.106399
H32   H     H_    0.502420 0.674282 0.797656 0.104246
H33   H     H_    0.813717 0.503220 0.852887 0.101077
H34   H     H_    0.815912 0.574599 0.723987 0.105205
H35   H     H_    0.824509 0.578197 0.794031 0.105132
H36   H     H_    0.782885 0.479730 0.670291 0.101344
H37   H     H_    0.521640 0.782104 0.844768 0.106976
H38   H     H_    0.483681 0.770830 0.606528 0.126586
H39   H     H_    0.086905 0.831290 0.902423 0.122440
H40   H     H_    0.803359 0.514250 0.223934 0.104934
H41   H     H_    0.056939 0.560902 0.892784 0.127948
H42   H     H_    0.142511 0.534644 0.652995 0.105882
H43   H     H_    0.256815 0.501549 0.711802 0.112393
H44   H     H_    0.240301 0.507457 0.781386 0.112476
H45   H     H_    0.138598 0.809821 0.835725 0.102931
H46   H     H_    0.057961 0.828976 0.706668 0.105596
H47   H     H_    0.039845 0.835005 0.776301 0.106140
H48   H     H_    0.204974 0.784426 0.662300 0.103472
H49   H     H_    0.263558 0.753584 0.596358 0.126568
H50   H     H_    0.106237 0.541095 0.825931 0.105697
H51   H     H_    0.587733 0.815678 0.180702 0.105002
H52   H     H_    0.201352 0.502923 0.587150 0.129385
H53   H     H_    0.561894 0.027601 0.901904 0.111767
H54   H     H_    0.775112 0.139576 0.900553 0.138078
H55   H     H_    0.737254 0.235399 0.677528 0.106505
H56   H     H_    0.583898 0.339519 0.724387 0.114944
H57   H     H_    0.615689 0.042101 0.703463 0.108022
H58   H     H_    0.613398 0.018702 0.772730 0.149122
H59   H     H_    0.494333 0.171277 0.648556 0.108453
H60   H     H_    0.498006 0.214958 0.581519 0.120513
H61   H     H_    0.722522 0.197368 0.835148 0.111098
H62   H     H_    0.742441 0.277709 0.610794 0.126345
H63   H     H_    0.687248 0.838924 0.236136 0.110278
H64   H     H_    0.554280 0.799325 0.341382 0.102838
O1    O     O_R   0.324990 0.503440 0.453910 -0.521286
O2    O     O_R   0.639980 0.519500 0.542640 -0.505108
O3    O     O_R   0.500750 0.673190 0.545480 -0.520181
O4    O     O_R   0.336260 0.640450 0.538210 -0.502798
O5    O     O_3   0.499990 0.499990 0.500010 -0.242768
O6    O     O_R   0.834210 0.019400 0.034570 -0.522241
O7    O     O_R   0.002210 0.824620 0.031030 -0.503298
O8    O     O_R   0.024400 0.669340 0.039790 -0.519388
O9    O     O_R   0.830490 0.694950 0.045870 -0.502171
O10   O     O_R   0.675430 0.831160 0.051290 -0.518262
O11   O     O_R   0.698870 0.998880 0.039560 -0.500309
O12   O     O_R   0.522030 0.339050 0.458320 -0.522979
O13   O     O_R   0.811290 0.006780 0.950620 -0.515455
O14   O     O_R   0.980960 0.812920 0.953200 -0.501006
O15   O     O_R   0.001480 0.656720 0.955830 -0.520209
O16   O     O_R   0.809240 0.683250 0.968050 -0.501683
O17   O     O_R   0.652500 0.818540 0.967340 -0.520731
O18   O     O_R   0.677620 0.987170 0.961730 -0.502003
O19   O     O_3   0.833240 0.833660 0.999890 -0.235791
O20   O     O_R   0.676180 0.324490 0.458320 -0.443467
O21   O     O_R   0.643570 0.521510 0.464260 -0.501120
O22   O     O_R   0.504630 0.675350 0.460920 -0.519411
O23   O     O_R   0.339850 0.642450 0.459830 -0.501030
O24   O     O_R   0.321120 0.501280 0.538470 -0.517831
O25   O     O_R   0.518440 0.337050 0.536710 -0.500910
O26   O     O_R   0.672300 0.322330 0.542880 -0.517693
H65   H     H_    0.895815 0.560324 0.174814 0.099729
H66   H     H_    0.811068 0.036597 0.288194 0.106246
O27   O     O_3   0.813066 0.189513 0.412782 -0.684066
H67   H     H_    0.875310 0.156782 0.397001 0.311745
H68   H     H_    0.493818 0.672398 0.727546 0.108101
H69   H     H_    0.757355 0.473730 0.600994 0.122799
H70   H     H_    0.577858 0.318105 0.793452 0.107485
O28   O     O_3   0.488019 0.088571 0.830698 -0.718052
H71   H     H_    0.463164 0.055118 0.848232 0.314768
H72   H     H_    0.671899 0.827137 0.305209 0.106246

loop_
_geom_bond_atom_site_label_1
_geom_bond_atom_site_label_2
_ccdc_geom_bond_type
C8    C9    A    
C15   C18   A    
C112  H48   S    
C101  C102  A    
C81   H33   S    
C94   H38   S    
C53   H14   S    
C10   H58   S    
C41   C42   A    
C14   C18   A    
C95   C96   A    
C70   H24   S    
C41   H9    S    
Cr2   O5    S    
C72   C76   A    
C25   C118  S    
C114  C115  A    
C85   C91   A    
C7    C8    A    
C5    H54   S    
C85   C86   A    
C75   H19   S    
C59   C64   A    
C62   C63   A    
Cr4   O14   S    
C22   C98   S    
Cr4   O13   S    
Cr1   O25   S    
C66   C97   S    
C92   C93   A    
C36   C37   A    
Cr1   O12   S    
C21   C59   S    
C77   C117  S    
C109  C111  A    
C44   O1    A    
C55   O25   A    
C79   C84   A    
C14   H60   S    
C84   H29   S    
C109  H47   S    
C106  C107  A    
Cr6   O10   S    
C15   C16   A    
Cr5   O16   S    
C92   C96   A    
C52   H13   S    
C108  C109  A    
C73   O27   S    
C95   H30   S    
C30   H63   S    
C46   C51   A    
C49   C50   A    
C2    C13   A    
C118  C119  A    
C103  H50   S    
C83   H37   S    
C102  C103  A    
C85   H32   S    
C36   H22   S    
C26   H40   S    
C35   C36   A    
C42   C43   A    
C44   C58   S    
C16   C17   A    
C114  H52   S    
C66   O2    A    
C12   C17   A    
C15   H62   S    
C107  C108  A    
Cr2   O20   S    
Cr3   O4    S    
C93   H69   S    
C86   H68   S    
C65   H21   S    
C25   O18   A    
C9    C10   A    
C35   H3    S    
C42   C51   S    
C113  H49   S    
C105  C111  A    
C59   C60   A    
C120  O28   S    
C34   C38   A    
O28   H71   S    
C1    C78   S    
Cr3   O5    S    
C102  C111  S    
C69   C70   A    
C119  H53   S    
C29   H72   S    
C67   C68   A    
C1    O12   A    
C112  C113  A    
C77   O24   A    
C81   C82   A    
Cr6   O11   S    
C107  C116  S    
C54   C56   A    
C19   O7    A    
C105  H44   S    
C90   H35   S    
C69   H66   S    
C114  C117  A    
C47   C48   A    
C21   O11   A    
C48   C57   S    
C35   C38   A    
C3    C11   S    
C74   C75   A    
Cr6   O18   S    
C6    C11   A    
Cr5   O19   S    
C86   C87   A    
C68   C69   A    
C99   H1    S    
C64   H18   S    
C110  H51   S    
C65   C67   A    
C65   C71   A    
C99   C110  A    
Cr4   O7    S    
C82   C91   S    
C44   O23   A    
C22   O15   A    
C60   C61   A    
C32   C34   A    
C75   C76   A    
Cr1   O5    S    
C20   O9    A    
C29   C30   A    
C9    H57   S    
C46   H8    S    
C43   C45   A    
C83   C84   A    
Cr6   O17   S    
C73   C78   A    
C72   H25   S    
Cr3   O22   S    
Cr4   O6    S    
C67   H20   S    
C50   C51   A    
C26   C27   A    
C32   H64   S    
C94   C95   A    
C32   C37   A    
C119  C120  A    
Cr2   O2    S    
C24   C88   A    
Cr5   O9    S    
C56   H6    S    
C19   C39   S    
C18   C55   S    
C55   O26   A    
C113  C117  A    
C40   C41   A    
C54   H16   S    
C49   H10   S    
C12   C14   A    
Cr5   O8    S    
C45   H5    S    
C98   C100  A    
C108  H46   S    
C23   O16   A    
C74   C78   A    
C13   C24   A    
C106  H43   S    
C80   C81   A    
C43   H15   S    
C27   H31   S    
C56   C57   A    
C3    C4    A    
C93   C97   A    
C112  C116  A    
C66   O3    A    
C52   C53   A    
C4    H61   S    
C89   H34   S    
C6    H70   S    
C54   C58   A    
C92   H36   S    
C3    C120  A    
O27   H67   S    
C40   H4    S    
C46   C47   A    
C28   C29   A    
C19   O8    A    
C7    H56   S    
C23   O17   A    
C1    O20   A    
C16   H55   S    
C26   C31   A    
Cr3   O3    S    
C33   C38   S    
C72   C73   A    
C25   O13   A    
Cr6   O19   S    
Cr1   O1    S    
C52   C57   A    
C53   C58   A    
C50   H12   S    
C87   C96   S    
C80   H28   S    
C6    C7    A    
C63   C64   A    
C22   O14   A    
C24   H11   S    
C68   C76   S    
C105  C106  A    
C8    C17   S    
C94   C97   A    
C39   C45   A    
C5    C118  A    
C23   C79   S    
Cr1   O24   S    
C87   C89   A    
C115  H42   S    
C60   H17   S    
C77   O4    A    
C104  H41   S    
C33   O21   A    
C90   C91   A    
C30   C31   A    
C28   C37   S    
C48   C49   A    
C12   H59   S    
C20   C88   S    
Cr5   O15   S    
C100  C101  A    
C33   O22   A    
Cr2   O26   S    
C62   C71   S    
C101  H45   S    
C21   O6    A    
C61   C62   A    
Cr3   O23   S    
C63   H26   S    
C88   C99   A    
C70   C71   A    
C10   C11   A    
C79   C80   A    
C39   C40   A    
C4    C5    A    
C100  H39   S    
C74   H27   S    
C34   H2    S    
C82   C83   A    
Cr4   O19   S    
C103  C104  A    
C20   O10   A    
Cr2   O21   S    
C2    C31   S    
C13   H65   S    
C89   C90   A    
C61   H23   S    
C98   C104  A    
C47   H7    S    
C115  C116  A    
C27   C28   A    
C2    C110  A    
