data_mof_unit_60405.cif
_audit_creation_date              2013-03-05T15:59:31-0500
_audit_creation_method            fapswitch 2.2
_symmetry_space_group_name_H-M    P1
_symmetry_Int_Tables_number       1
_space_group_crystal_system       triclinic
_cell_length_a                    18.36674
_cell_length_b                    25.760578
_cell_length_c                    18.330633
_cell_angle_alpha                 89.665887
_cell_angle_beta                  90.012482
_cell_angle_gamma                 89.98105
_cell_volume                      8672.76792946

loop_
_atom_site_label
_atom_site_type_symbol
_atom_site_description
_atom_site_fract_x
_atom_site_fract_y
_atom_site_fract_z
_atom_type_partial_charge
Zn1   Zn    Zn3+2 0.500000 0.706650 0.586810 1.015788
Zn2   Zn    Zn3+2 0.500000 0.293350 0.413190 1.016745
Zn3   Zn    Zn3+2 0.500000 0.706650 0.413190 1.013295
Zn4   Zn    Zn3+2 0.500000 0.293350 0.586810 1.013357
Zn5   Zn    Zn3+2 0.000000 0.206650 0.086810 1.020093
Zn6   Zn    Zn3+2 1.000000 0.793350 0.913190 1.024428
Zn7   Zn    Zn3+2 0.000000 0.206650 0.913190 1.019217
Zn8   Zn    Zn3+2 1.000000 0.793350 0.086810 1.006637
Zn9   Zn    Zn3+2 0.586710 0.793420 0.500000 1.011718
Zn10  Zn    Zn3+2 0.413290 0.206580 0.500000 1.011930
Zn11  Zn    Zn3+2 0.413290 0.793420 0.500000 1.020532
Zn12  Zn    Zn3+2 0.586710 0.206580 0.500000 1.018843
Zn13  Zn    Zn3+2 0.086710 0.293420 0.000000 1.021778
Zn14  Zn    Zn3+2 0.913290 0.706580 0.000000 1.009524
Zn15  Zn    Zn3+2 0.913290 0.293420 0.000000 1.023933
Zn16  Zn    Zn3+2 0.086710 0.706580 0.000000 1.027068
O1    O     O_3   0.500000 0.750040 0.500000 -0.497906
O2    O     O_3   0.500000 0.249960 0.500000 -0.497757
O3    O     O_3   0.000000 0.250040 0.000000 -0.494919
O4    O     O_3   0.000000 0.749960 0.000000 -0.496248
O5    O     O_R   0.585420 0.719700 0.353880 -0.643187
O6    O     O_R   0.414580 0.280300 0.646120 -0.642920
O7    O     O_R   0.414580 0.719700 0.646120 -0.630062
O8    O     O_R   0.585420 0.280300 0.353880 -0.629561
O9    O     O_R   0.585420 0.280300 0.646120 -0.629550
O10   O     O_R   0.414580 0.719700 0.353880 -0.629956
O11   O     O_R   0.414580 0.280300 0.353880 -0.641611
O12   O     O_R   0.585420 0.719700 0.646120 -0.641762
O13   O     O_R   0.085420 0.219700 0.853880 -0.642034
O14   O     O_R   0.914580 0.780300 0.146120 -0.646842
O15   O     O_R   0.914580 0.219700 0.146120 -0.642389
O16   O     O_R   0.085420 0.780300 0.853880 -0.628524
O17   O     O_R   0.085420 0.780300 0.146120 -0.635540
O18   O     O_R   0.914580 0.219700 0.853880 -0.641372
O19   O     O_R   0.914580 0.780300 0.853880 -0.638329
O20   O     O_R   0.085420 0.219700 0.146120 -0.638293
O21   O     O_R   0.646120 0.780390 0.585510 -0.644378
O22   O     O_R   0.353880 0.219610 0.414490 -0.644618
O23   O     O_R   0.353880 0.780390 0.414490 -0.644661
O24   O     O_R   0.646120 0.219610 0.585510 -0.645597
O25   O     O_R   0.646120 0.219610 0.414490 -0.641030
O26   O     O_R   0.353880 0.780390 0.585510 -0.640564
O27   O     O_R   0.353880 0.219610 0.585510 -0.640779
O28   O     O_R   0.646120 0.780390 0.414490 -0.640142
O29   O     O_R   0.146120 0.280390 0.085510 -0.634382
O30   O     O_R   0.853880 0.719610 0.914490 -0.639081
O31   O     O_R   0.853880 0.280390 0.914490 -0.635131
O32   O     O_R   0.146120 0.719610 0.085510 -0.633877
O33   O     O_R   0.146120 0.719610 0.914490 -0.641231
O34   O     O_R   0.853880 0.280390 0.085510 -0.640969
O35   O     O_R   0.853880 0.719610 0.085510 -0.644733
O36   O     O_R   0.146120 0.280390 0.914490 -0.640858
O37   O     O_R   0.560660 0.865840 0.500000 -0.619685
O38   O     O_R   0.439340 0.134160 0.500000 -0.618935
O39   O     O_R   0.439340 0.865840 0.500000 -0.620132
O40   O     O_R   0.560660 0.134160 0.500000 -0.621601
O41   O     O_R   0.060660 0.365840 0.000000 -0.622177
O42   O     O_R   0.939340 0.634160 0.000000 -0.619957
O43   O     O_R   0.939340 0.365840 0.000000 -0.620359
O44   O     O_R   0.060660 0.634160 0.000000 -0.620298
O45   O     O_R   0.500000 0.634240 0.439310 -0.624584
O46   O     O_R   0.500000 0.365760 0.560690 -0.624675
O47   O     O_R   0.500000 0.634240 0.560690 -0.624153
O48   O     O_R   0.500000 0.365760 0.439310 -0.624397
O49   O     O_R   1.000000 0.134240 0.939310 -0.618090
O50   O     O_R   0.000000 0.865760 0.060690 -0.622807
O51   O     O_R   1.000000 0.134240 0.060690 -0.619855
O52   O     O_R   1.000000 0.865760 0.939310 -0.616020
C1    C     C_R   0.640110 0.750081 0.359806 0.804315
C2    C     C_R   0.359902 0.249905 0.640210 0.804585
C3    C     C_R   0.359909 0.750033 0.640327 0.827234
C4    C     C_R   0.640095 0.249979 0.359682 0.827493
C5    C     C_R   0.640101 0.249901 0.640215 0.822098
C6    C     C_R   0.359876 0.750075 0.359807 0.822629
C7    C     C_R   0.359909 0.249973 0.359674 0.804576
C8    C     C_R   0.640115 0.750006 0.640301 0.803225
C9    C     C_R   0.140188 0.250004 0.859882 0.814118
C10   C     C_R   0.859847 0.749957 0.140159 0.796503
C11   C     C_R   0.859839 0.249972 0.140261 0.816984
C12   C     C_R   0.140172 0.750049 0.859755 0.821318
C13   C     C_R   0.140055 0.749835 0.140261 0.835413
C14   C     C_R   0.859798 0.250001 0.859899 0.825869
C15   C     C_R   0.859901 0.749992 0.859698 0.808307
C16   C     C_R   0.140054 0.250065 0.140352 0.834871
C17   C     C_R   0.499987 0.890030 0.500006 0.889180
C18   C     C_R   0.500009 0.109970 0.499997 0.889566
C19   C     C_R   0.999988 0.390032 0.000005 0.882831
C20   C     C_R   0.000013 0.609968 0.999995 0.884818
C21   C     C_R   0.492318 0.609637 0.500278 0.847678
C22   C     C_R   0.507669 0.390365 0.499719 0.847273
C23   C     C_R   0.000998 0.109998 0.000547 0.880874
C24   C     C_R   0.002533 0.890341 0.998478 0.838917
C25   C     C_R   0.446759 0.543444 0.369726 0.136590
C26   C     C_R   0.553245 0.456581 0.630232 0.136496
C27   C     C_R   0.458324 0.542045 0.634516 0.140892
C28   C     C_R   0.541647 0.457958 0.365465 0.140955
C29   C     C_R   0.887834 0.046427 0.931715 0.075970
C30   C     C_R   0.123157 0.946617 0.075339 0.086101
C31   C     C_R   0.121701 0.054634 0.074366 0.076212
C32   C     C_R   0.949380 0.956562 0.872380 0.146551
C33   C     C_R   0.465283 0.521215 0.302067 0.114920
C34   C     C_R   0.534735 0.478808 0.697896 0.115164
C35   C     C_R   0.483402 0.519556 0.700226 0.110657
C36   C     C_R   0.516592 0.480452 0.299751 0.110573
C37   C     C_R   0.853189 0.021508 0.872562 0.143526
C38   C     C_R   0.163586 0.973626 0.128018 0.137449
C39   C     C_R   0.163418 0.028112 0.127038 0.143546
C40   C     C_R   0.886746 0.978204 0.840101 0.096834
C41   C     C_R   0.514123 0.475872 0.432848 -0.050639
C42   C     C_R   0.485836 0.524131 0.567129 -0.050619
C43   C     C_R   0.519965 0.475244 0.565589 -0.050193
C44   C     C_R   0.480001 0.524765 0.434385 -0.050372
C45   C     C_R   0.973704 0.975356 0.940646 -0.055975
C46   C     C_R   0.064244 0.027938 0.037894 -0.038437
C47   C     C_R   0.066385 0.972766 0.036837 -0.027304
C48   C     C_R   0.954627 0.025852 0.959380 -0.050492
C49   C     C_R   0.521611 0.447696 0.499024 -0.070796
C50   C     C_R   0.478352 0.552311 0.500957 -0.070955
C51   C     C_R   0.016372 0.946447 0.991162 -0.067003
C52   C     C_R   0.005218 0.053861 0.001835 -0.065469
C53   C     C_R   0.244512 0.784087 0.690660 -0.156009
C54   C     C_R   0.755730 0.216192 0.309600 -0.157865
C55   C     C_R   0.755772 0.783860 0.309069 -0.159978
C56   C     C_R   0.244431 0.215930 0.691149 -0.158825
C57   C     C_R   0.244685 0.215768 0.309164 -0.150560
C58   C     C_R   0.755442 0.784133 0.690704 -0.153668
C59   C     C_R   0.754081 0.214526 0.692712 -0.156618
C60   C     C_R   0.244699 0.784328 0.308510 -0.150987
C61   C     C_R   0.744013 0.283648 0.190177 -0.154188
C62   C     C_R   0.255819 0.716226 0.809668 -0.154817
C63   C     C_R   0.255960 0.283686 0.809242 -0.160939
C64   C     C_R   0.744031 0.716310 0.190763 -0.164933
C65   C     C_R   0.744633 0.715855 0.809279 -0.152373
C66   C     C_R   0.255449 0.284080 0.190629 -0.147975
C67   C     C_R   0.255319 0.715617 0.191426 -0.144391
C68   C     C_R   0.745454 0.285064 0.807798 -0.144655
H1    H     H_    0.239319 0.810660 0.644942 0.177097
H2    H     H_    0.761095 0.189785 0.355487 0.174072
H3    H     H_    0.761142 0.810299 0.354483 0.174638
H4    H     H_    0.239151 0.189404 0.645826 0.174548
H5    H     H_    0.239717 0.188987 0.354662 0.175385
H6    H     H_    0.760453 0.810874 0.645163 0.180140
H7    H     H_    0.758179 0.186883 0.648604 0.174672
H8    H     H_    0.239791 0.811253 0.353406 0.176321
H9    H     H_    0.738633 0.310049 0.144285 0.179387
H10   H     H_    0.261034 0.689660 0.855391 0.179590
H11   H     H_    0.261264 0.310193 0.854584 0.175531
H12   H     H_    0.738639 0.689887 0.145334 0.175397
H13   H     H_    0.739639 0.689118 0.854827 0.179811
H14   H     H_    0.260427 0.310828 0.145092 0.179288
H15   H     H_    0.260224 0.688704 0.146513 0.183115
H16   H     H_    0.741370 0.312727 0.851888 0.183880
C69   C     C_R   0.690477 0.283654 0.243494 -0.142391
C70   C     C_R   0.309352 0.716218 0.756353 -0.142940
C71   C     C_R   0.309395 0.283657 0.755803 -0.163937
C72   C     C_R   0.690579 0.716357 0.244184 -0.165720
C73   C     C_R   0.691087 0.715851 0.755959 -0.163704
C74   C     C_R   0.309009 0.284072 0.243937 -0.161200
C75   C     C_R   0.308825 0.715723 0.244804 -0.137885
C76   C     C_R   0.691979 0.284996 0.754391 -0.137670
C77   C     C_R   0.191006 0.784128 0.744011 -0.154759
C78   C     C_R   0.809239 0.216163 0.256259 -0.163684
C79   C     C_R   0.809236 0.783798 0.255661 -0.169985
C80   C     C_R   0.190986 0.215971 0.744579 -0.163401
C81   C     C_R   0.191100 0.215812 0.255885 -0.146208
C82   C     C_R   0.809013 0.784104 0.744000 -0.153691
C83   C     C_R   0.807477 0.214519 0.746204 -0.148979
C84   C     C_R   0.191213 0.784230 0.255120 -0.141955
H17   H     H_    0.644854 0.310017 0.237701 0.190508
H18   H     H_    0.354810 0.689693 0.761986 0.190573
H19   H     H_    0.354860 0.310153 0.760983 0.176820
H20   H     H_    0.645017 0.689956 0.238907 0.176708
H21   H     H_    0.645851 0.689135 0.761369 0.178509
H22   H     H_    0.354243 0.310791 0.238531 0.178322
H23   H     H_    0.353968 0.688893 0.239985 0.191196
H24   H     H_    0.647651 0.312577 0.758393 0.192147
H25   H     H_    0.145600 0.810707 0.738456 0.184469
H26   H     H_    0.854821 0.189763 0.262003 0.170863
H27   H     H_    0.854801 0.810193 0.260946 0.171096
H28   H     H_    0.145524 0.189475 0.739403 0.172503
H29   H     H_    0.145873 0.189087 0.261270 0.177284
H30   H     H_    0.854321 0.810748 0.738549 0.189543
H31   H     H_    0.851694 0.186838 0.742338 0.175833
H32   H     H_    0.146114 0.811101 0.259877 0.178725
C85   C     C_R   0.696114 0.249966 0.303519 -0.007054
C86   C     C_R   0.303909 0.750089 0.696517 -0.009216
C87   C     C_R   0.303869 0.249819 0.696430 -0.003944
C88   C     C_R   0.696191 0.750113 0.303641 -0.003027
C89   C     C_R   0.696218 0.749989 0.696406 -0.011544
C90   C     C_R   0.303867 0.249944 0.303504 -0.009132
C91   C     C_R   0.303760 0.750053 0.303664 -0.011135
C92   C     C_R   0.696109 0.249809 0.696468 -0.010655
C93   C     C_R   0.196346 0.750154 0.803739 -0.013931
C94   C     C_R   0.803682 0.249910 0.196304 -0.008137
C95   C     C_R   0.803664 0.750011 0.196237 -0.002357
C96   C     C_R   0.196426 0.249889 0.803867 -0.004617
C97   C     C_R   0.196215 0.249963 0.196362 -0.004750
C98   C     C_R   0.803839 0.750001 0.803579 -0.011102
C99   C     C_R   0.803524 0.249865 0.803934 -0.010193
C100  C     C_R   0.196243 0.749881 0.196307 -0.009668
C101  C     C_R   0.472280 0.972590 0.560938 0.112290
C102  C     C_R   0.527640 0.027412 0.439034 0.113475
C103  C     C_R   0.527614 0.973079 0.439028 0.113833
C104  C     C_R   0.472328 0.026923 0.560953 0.112867
C105  C     C_R   0.969765 0.473094 0.940243 0.112991
C106  C     C_R   0.030239 0.526905 0.059756 0.113556
C107  C     C_R   0.030184 0.472581 0.059776 0.113442
C108  C     C_R   0.969824 0.527419 0.940222 0.113439
C109  C     C_R   0.500016 0.053848 0.500005 -0.176290
C110  C     C_R   0.499958 0.946153 0.499990 -0.175336
C111  C     C_R   0.000038 0.553847 0.999986 -0.177729
C112  C     C_R   0.999964 0.446153 0.000013 -0.176403
I1    I     I_    0.446432 0.549163 0.802522 -0.228148
I2    I     I_    0.553567 0.450832 0.197462 -0.227001
I3    I     I_    0.418637 0.551267 0.203539 -0.220782
I4    I     I_    0.581451 0.448782 0.796404 -0.220553
I5    I     I_    0.230000 0.070828 0.201483 -0.246007
I6    I     I_    0.842473 0.943762 0.743814 -0.269987
I7    I     I_    0.754311 0.052064 0.827446 -0.218419
I8    I     I_    0.229926 0.931781 0.204381 -0.248376
I9    I     I_    0.353368 0.593247 0.377671 -0.272039
I10   I     I_    0.646682 0.406835 0.622220 -0.273195
I11   I     I_    0.362858 0.590162 0.635024 -0.280592
I12   I     I_    0.637112 0.409837 0.364965 -0.280343
I13   I     I_    0.829344 0.106311 0.988571 -0.288204
I14   I     I_    0.169684 0.874938 0.037526 -0.270927
I15   I     I_    0.168051 0.125764 0.033074 -0.278361
I16   I     I_    0.026995 0.920252 0.801170 -0.235367
I17   I     I_    0.433641 0.929789 0.653915 -0.249123
I18   I     I_    0.566088 0.070218 0.345984 -0.247682
I19   I     I_    0.566011 0.931025 0.345963 -0.251046
I20   I     I_    0.433872 0.068976 0.653998 -0.244951
I21   I     I_    0.927425 0.431150 0.848730 -0.251091
I22   I     I_    0.072580 0.568850 0.151269 -0.249883
I23   I     I_    0.072297 0.429845 0.151376 -0.262280
I24   I     I_    0.927731 0.570153 0.848611 -0.257617

loop_
_geom_bond_atom_site_label_1
_geom_bond_atom_site_label_2
_geom_bond_distance
_ccdc_geom_bond_type
C66   C97   1.402375 A    
Zn6   O16   1.939344 S    
Zn8   O50   1.923087 S    
C65   C98   1.402418 A    
Zn7   O13   1.937325 S    
C55   H3    1.083158 S    
C62   H10   1.083145 S    
C19   C112  1.445713 S    
C29   I13   2.153629 S    
C63   C96   1.401750 A    
C82   H30   1.083131 S    
C18   C109  1.445737 S    
O48   C22   1.286843 A    
Zn5   O51   1.928496 S    
C62   C93   1.402533 A    
C56   C80   1.386809 A    
O34   C11   1.274342 A    
Zn16  O32   1.940581 S    
C13   C100  1.456029 S    
C46   C47   1.422016 A    
O44   C20   1.276556 A    
C41   C49   1.416628 A    
O18   C14   1.278418 A    
Zn14  O30   1.937293 S    
O32   C13   1.278674 A    
Zn15  O3    1.945232 S    
C12   C93   1.455781 S    
C70   C86   1.401096 A    
Zn8   O4    1.949948 S    
C11   C94   1.455896 S    
Zn11  O26   1.937801 S    
C71   H19   1.083190 S    
C9    C96   1.456602 S    
O20   C16   1.276541 A    
C74   C90   1.401057 A    
O23   C6    1.278996 A    
Zn7   O49   1.923087 S    
C38   C39   1.403606 A    
C66   H14   1.083180 S    
Zn5   O20   1.939141 S    
Zn4   O46   1.923087 S    
C26   C43   1.414820 A    
C55   C79   1.386773 A    
Zn6   O19   1.939142 S    
C70   H18   1.083225 S    
Zn14  O4    1.945837 S    
Zn16  O44   1.926110 S    
Zn15  O34   1.937801 S    
C53   H1    1.083148 S    
C55   C88   1.401694 A    
C32   I16   2.150597 S    
C56   H4    1.083152 S    
C42   C43   1.406987 A    
O10   C6    1.278317 A    
C68   C99   1.401750 A    
C8    C89   1.455691 S    
C64   C72   1.386785 A    
C53   C86   1.402473 A    
C45   C51   1.420377 A    
C106  C111  1.407239 A    
C74   H22   1.083246 S    
C83   H31   1.083201 S    
C44   C50   1.415512 A    
O45   C21   1.289351 A    
C84   H32   1.083159 S    
C20   C111  1.445715 S    
Zn12  O24   1.940581 S    
C104  C109  1.406880 A    
Zn1   O12   1.939141 S    
C103  C110  1.406873 A    
C63   H11   1.083139 S    
Zn2   O11   1.939142 S    
O31   C14   1.278743 A    
Zn15  O31   1.940583 S    
Zn13  O29   1.937292 S    
C84   C100  1.401734 A    
C106  I22   2.146481 S    
C108  I24   2.146363 S    
C61   H9    1.083145 S    
C80   H28   1.083142 S    
C102  I18   2.145465 S    
C45   C48   1.392015 A    
Zn4   O2    1.949948 S    
Zn6   O52   1.928496 S    
C79   C95   1.402021 A    
C78   C94   1.400993 A    
C75   H23   1.083208 S    
C17   C110  1.445751 S    
C76   H24   1.083191 S    
C42   C50   1.416596 A    
C81   H29   1.083212 S    
C31   C46   1.427975 A    
O11   C7    1.276511 A    
Zn1   O47   1.928496 S    
Zn9   O21   1.937292 S    
C10   C95   1.456689 S    
C68   H16   1.083186 S    
Zn2   O48   1.928496 S    
C38   I8    2.141670 S    
Zn4   O9    1.936761 S    
O43   C19   1.276561 A    
O22   C7    1.274621 A    
Zn3   O45   1.923087 S    
Zn14  O42   1.925804 S    
C37   C40   1.409164 A    
C32   C40   1.407038 A    
C67   C75   1.386621 A    
C102  C103  1.399655 A    
Zn13  O3    1.945835 S    
C27   C35   1.410680 A    
C107  I23   2.146367 S    
C64   H12   1.083140 S    
C22   C49   1.498959 S    
C75   C91   1.402144 A    
C7    C90   1.455727 S    
C65   H13   1.083171 S    
Zn16  O33   1.937803 S    
C54   H2    1.083153 S    
C41   C44   1.407057 A    
C57   H5    1.083150 S    
C67   C100  1.401697 A    
O38   C18   1.276515 A    
C61   C94   1.402572 A    
C106  C107  1.399432 A    
C54   C85   1.402322 A    
O50   C24   1.302015 A    
C104  I20   2.145458 S    
C105  C112  1.407236 A    
C28   I12   2.147053 S    
C72   H20   1.083192 S    
C27   I11   2.147001 S    
C31   I15   2.154113 S    
O41   C19   1.276597 A    
C33   I3    2.139597 S    
O5    C1    1.278575 A    
C15   C98   1.455337 S    
O14   C10   1.278660 A    
O39   C17   1.276539 A    
C58   C89   1.402638 A    
C57   C81   1.386361 A    
C82   C98   1.400875 A    
C25   C33   1.410750 A    
Zn12  O25   1.937803 S    
C81   C97   1.400773 A    
O16   C12   1.276163 A    
Zn13  O36   1.940842 S    
Zn4   O6    1.937326 S    
O40   C18   1.276598 A    
Zn14  O35   1.940840 S    
C39   I5    2.141530 S    
Zn16  O4    1.945230 S    
C53   C77   1.386586 A    
O47   C21   1.286893 A    
O51   C23   1.270337 A    
C77   C93   1.401053 A    
O28   C1    1.278959 A    
C62   C70   1.386456 A    
C59   H7    1.083133 S    
C21   C50   1.498938 S    
C29   C48   1.428016 A    
Zn11  O23   1.940583 S    
C60   H8    1.083117 S    
C1    C88   1.456482 S    
C76   C92   1.402114 A    
Zn12  O40   1.926110 S    
C2    C87   1.456566 S    
O25   C4    1.274503 A    
C34   I4    2.139552 S    
C66   C74   1.386424 A    
O21   C8    1.274538 A    
O17   C13   1.278631 A    
Zn1   O7    1.939345 S    
O27   C2    1.278975 A    
C47   C51   1.418142 A    
C28   C36   1.410668 A    
Zn2   O8    1.939344 S    
C107  C112  1.407230 A    
C101  C104  1.399657 A    
Zn3   O5    1.937325 S    
O29   C16   1.274451 A    
Zn9   O37   1.925804 S    
C102  C109  1.406836 A    
Zn12  O2    1.945230 S    
O36   C9    1.278956 A    
O12   C8    1.276566 A    
C101  C110  1.406865 A    
C57   C90   1.402507 A    
Zn11  O39   1.926110 S    
Zn7   O18   1.936763 S    
O8    C4    1.276048 A    
C60   C84   1.386521 A    
C105  C108  1.399429 A    
Zn9   O1    1.945835 S    
O49   C23   1.281476 A    
C64   C95   1.401772 A    
C35   I1    2.139125 S    
Zn11  O1    1.945232 S    
Zn9   O28   1.940842 S    
O19   C15   1.276359 A    
C61   C69   1.386515 A    
Zn10  O27   1.940840 S    
Zn15  O43   1.926110 S    
C29   C37   1.414491 A    
C24   C51   1.472947 S    
Zn3   O10   1.936763 S    
C32   C45   1.416636 A    
C65   C73   1.386386 A    
Zn2   O2    1.939282 S    
C58   C82   1.386405 A    
C27   C42   1.414529 A    
O42   C20   1.276608 A    
C56   C87   1.401723 A    
O37   C17   1.276582 A    
C80   C96   1.402001 A    
O15   C11   1.276316 A    
Zn5   O3    1.939281 S    
C16   C97   1.455201 S    
C72   C88   1.402024 A    
C31   C39   1.406320 A    
C28   C41   1.414547 A    
C37   I7    2.143012 S    
Zn7   O3    1.949950 S    
C59   C92   1.401677 A    
C30   C38   1.405624 A    
O33   C12   1.274424 A    
C43   C49   1.415441 A    
C54   C78   1.386483 A    
Zn10  O22   1.937293 S    
C60   C91   1.401594 A    
Zn8   O14   1.937326 S    
C105  I21   2.146473 S    
O35   C10   1.278985 A    
C40   I6    2.140508 S    
C14   C99   1.456112 S    
C71   C87   1.402026 A    
C103  I19   2.145402 S    
C30   C47   1.425765 A    
Zn13  O41   1.925804 S    
C69   C85   1.401154 A    
Zn6   O4    1.939282 S    
Zn10  O2    1.945837 S    
C108  C111  1.407228 A    
C67   H15   1.083162 S    
O46   C22   1.289413 A    
C101  I17   2.145503 S    
O26   C3    1.274448 A    
O52   C24   1.259938 A    
C58   H6    1.083168 S    
Zn3   O1    1.949950 S    
O9    C5    1.278321 A    
Zn8   O17   1.936761 S    
C34   C35   1.411553 A    
Zn10  O38   1.925804 S    
C73   C89   1.401016 A    
C4    C85   1.455648 S    
C78   H26   1.083159 S    
C5    C92   1.456363 S    
C25   C44   1.414899 A    
C36   I2    2.139147 S    
O30   C15   1.274549 A    
C68   C76   1.386604 A    
C48   C52   1.412913 A    
C63   C71   1.386796 A    
O13   C9    1.278610 A    
Zn1   O1    1.939281 S    
C26   C34   1.410737 A    
O7    C3    1.276166 A    
C59   C83   1.386657 A    
C69   H17   1.083236 S    
C26   I10   2.147026 S    
C83   C99   1.401930 A    
C23   C52   1.448220 S    
C25   I9    2.147135 S    
C33   C36   1.411540 A    
C3    C86   1.455767 S    
C30   I14   2.152759 S    
O24   C5    1.278985 A    
C79   H27   1.083133 S    
C77   H25   1.083250 S    
O6    C2    1.278605 A    
C46   C52   1.432564 A    
C73   H21   1.083235 S    
C6    C91   1.456355 S    
Zn5   O15   1.939345 S    
