data_mof_unit_41165.cif
_audit_creation_date              2012-12-10T16:59:18-0500
_audit_creation_method            fapswitch 2.2
_symmetry_space_group_name_H-M    P1
_symmetry_Int_Tables_number       1
_space_group_crystal_system       triclinic
_cell_length_a                    7.879167
_cell_length_b                    8.494989
_cell_length_c                    27.531092
_cell_angle_alpha                 93.644265
_cell_angle_beta                  85.775548
_cell_angle_gamma                 92.171757
_cell_volume                      1833.00654105

loop_
_atom_site_label
_atom_site_type_symbol
_atom_type_description
_atom_site_fract_x
_atom_site_fract_y
_atom_site_fract_z
_atom_type_partial_charge
C1    C     C_R   0.542413 0.793723 0.497772 0.938337
C2    C     C_R   0.457587 0.206277 0.502228 0.938337
C3    C     C_R   0.563446 0.499180 0.898374 -0.140936
C4    C     C_R   0.436553 0.500820 0.101625 -0.140936
C5    C     C_R   0.624771 0.637840 0.876838 -0.260009
C6    C     C_R   0.375229 0.362160 0.123162 -0.260009
C7    C     C_R   0.707043 0.755934 0.905711 0.442800
C8    C     C_R   0.292957 0.244066 0.094289 0.442800
C9    C     C_R   0.526515 0.364187 0.868616 -0.043209
C10   C     C_R   0.473484 0.635813 0.131384 -0.043209
C11   C     C_R   0.511565 0.513933 0.646996 -0.120915
C12   C     C_R   0.488435 0.486067 0.353004 -0.120916
C13   C     C_R   0.536557 0.640385 0.029487 0.008934
C14   C     C_R   0.463443 0.359615 0.970513 0.008934
C15   C     C_R   0.411438 0.369136 0.021100 -0.138020
C16   C     C_R   0.588561 0.630863 0.978900 -0.138019
C17   C     C_R   0.461781 0.503561 0.050503 -0.066069
C18   C     C_R   0.538218 0.496439 0.949497 -0.066069
C19   C     C_R   0.547531 0.783515 0.059502 0.533586
C20   C     C_R   0.452469 0.216485 0.940498 0.533586
C21   C     C_R   0.516460 0.777893 0.110325 -0.245952
C22   C     C_R   0.483540 0.222107 0.889675 -0.245952
C23   C     C_R   0.502276 0.502290 0.593972 0.920253
C24   C     C_R   0.497724 0.497710 0.406028 0.920253
C25   C     C_R   0.701229 0.744491 0.956351 0.538537
C26   C     C_R   0.298770 0.255509 0.043649 0.538537
C27   C     C_2   0.552083 0.951466 0.486605 -0.067304
C28   C     C_2   0.447917 0.048534 0.513395 -0.067304
C29   C     C_R   0.606880 0.649514 0.826855 0.626435
C30   C     C_R   0.393120 0.350486 0.173145 0.626434
C31   C     C_R   0.536553 0.374386 0.818069 0.618975
C32   C     C_R   0.463446 0.625614 0.181931 0.618975
C33   C     C_R   0.381178 0.494240 0.728834 0.158573
C34   C     C_R   0.618822 0.505760 0.271166 0.158573
C35   C     C_R   0.366719 0.489548 0.678567 -0.210422
C36   C     C_R   0.633281 0.510451 0.321433 -0.210421
C37   C     C_R   0.668948 0.550714 0.666220 -0.312390
C38   C     C_R   0.331052 0.449286 0.333780 -0.312389
C39   C     C_R   0.683275 0.566635 0.716559 0.566644
C40   C     C_R   0.316724 0.433366 0.283441 0.566643
C41   C     C_R   0.540698 0.529674 0.747789 0.137982
C42   C     C_R   0.459302 0.470326 0.252210 0.137983
H1    H     H_    0.781862 0.565215 0.642201 0.193585
H2    H     H_    0.218138 0.434785 0.357799 0.193585
H3    H     H_    0.755953 0.538479 0.335757 0.201255
H4    H     H_    0.244047 0.461520 0.664243 0.201255
H5    H     H_    0.524345 0.884593 0.133711 0.216368
H6    H     H_    0.475654 0.115407 0.866289 0.216368
N1    N     N_R   0.560907 0.518418 0.798698 -0.331960
N2    N     N_R   0.439093 0.481582 0.201302 -0.331959
N3    N     N_2   0.950320 0.457960 0.486880 0.026190
N4    N     N_2   0.049680 0.542040 0.513120 0.026190
O1    O     O_R   0.389250 0.738570 0.503220 -0.592964
O2    O     O_R   0.610750 0.261430 0.496780 -0.592963
O3    O     O_R   0.678390 0.711630 0.494810 -0.590224
O4    O     O_R   0.321610 0.288370 0.505190 -0.590224
O5    O     O_R   0.355440 0.513440 0.575450 -0.606902
O6    O     O_R   0.644560 0.486560 0.424550 -0.606902
O7    O     O_R   0.644590 0.486500 0.567040 -0.614348
O8    O     O_R   0.355410 0.513500 0.432960 -0.614348
O9    O     O_2   0.631203 0.790176 0.806822 -0.504057
O10   O     O_2   0.368796 0.209823 0.193178 -0.504057
O11   O     O_2   0.484053 0.756972 0.211487 -0.514018
O12   O     O_2   0.515947 0.243028 0.788513 -0.514018
Zn1   Zn    Zn3+2 0.306940 0.517990 0.505620 1.055587
Zn2   Zn    Zn3+2 0.693060 0.482010 0.494380 1.055587
I1    I     I_    0.038954 0.277208 0.438890 -0.200625
I2    I     I_    0.961046 0.722792 0.561110 -0.200624
O13   O     O_3   0.838204 0.602010 0.736282 -0.596504
C43   C     C_3   0.919142 0.736806 0.716139 -0.174934
H7    H     H_    0.827967 0.830071 0.710514 0.187868
H8    H     H_    0.993932 0.703142 0.681526 0.167333
H9    H     H_    0.010436 0.788844 0.741981 0.200851
O14   O     O_3   0.161795 0.397990 0.263718 -0.596504
C44   C     C_3   0.080858 0.263193 0.283861 -0.174933
H10   H     H_    0.006069 0.296857 0.318474 0.167332
H11   H     H_    0.172033 0.169928 0.289486 0.187869
H12   H     H_    0.989563 0.211156 0.258019 0.200850
O15   O     O_3   0.794979 0.882664 0.885302 -0.541348
C45   C     C_3   0.956740 0.833637 0.865988 -0.183711
H13   H     H_    0.946733 0.741546 0.835721 0.195837
H14   H     H_    0.028230 0.936667 0.850893 0.189744
H15   H     H_    0.031794 0.789656 0.894613 0.120513
O16   O     O_3   0.205020 0.117335 0.114698 -0.541348
C46   C     C_3   0.043260 0.166363 0.134012 -0.183711
H16   H     H_    0.968206 0.210344 0.105387 0.120512
H17   H     H_    0.053266 0.258454 0.164279 0.195836
H18   H     H_    0.971770 0.063333 0.149107 0.189744
I3    I     I_    0.839515 0.557879 0.225213 -0.322750
I4    I     I_    0.160484 0.442120 0.774787 -0.322750
O17   O     O_3   0.559891 0.927920 0.038054 -0.528246
C47   C     C_3   0.667817 0.038707 0.062431 -0.160840
H19   H     H_    0.784901 0.984443 0.073093 0.158474
H20   H     H_    0.599253 0.097966 0.094675 0.132868
H21   H     H_    0.707891 0.132095 0.037264 0.190452
O18   O     O_3   0.440109 0.072080 0.961946 -0.528246
C48   C     C_3   0.332183 0.961293 0.937569 -0.160841
H22   H     H_    0.400747 0.902034 0.905325 0.132869
H23   H     H_    0.215098 0.015557 0.926907 0.158475
H24   H     H_    0.292109 0.867904 0.962736 0.190452
O19   O     O_3   0.814204 0.839989 0.982059 -0.557252
C49   C     C_3   0.936940 0.745853 0.999997 -0.360301
H25   H     H_    0.880596 0.672857 0.029532 0.161688
H26   H     H_    0.035889 0.825024 0.016077 0.238687
H27   H     H_    0.000885 0.668863 0.970479 0.133518
O20   O     O_3   0.185796 0.160011 0.017941 -0.557252
C50   C     C_3   0.063059 0.254146 0.000003 -0.360301
H28   H     H_    0.119403 0.327144 0.970468 0.161687
H29   H     H_    0.999114 0.331135 0.029521 0.133518
H30   H     H_    0.964111 0.174976 0.983923 0.238687
I5    I     I_    0.658166 0.992257 0.414554 -0.275665
I6    I     I_    0.341834 0.007743 0.585446 -0.275665

loop_
_geom_bond_atom_site_label_1
_geom_bond_atom_site_label_2
_ccdc_geom_bond_type
C22   H6    S    
O19   C49   S    
C8    C26   A    
C14   C18   A    
C34   C42   A    
C26   O20   S    
C48   H22   S    
C39   C41   A    
C29   N1    A    
C46   H16   S    
C28   I6    S    
C23   O7    A    
C49   H27   S    
C19   C21   A    
O7    Zn2   S    
C9    C22   A    
O20   C50   S    
O4    Zn1   S    
C3    C18   A    
C15   C17   A    
C11   C37   A    
C1    O1    A    
O6    Zn2   S    
C50   H28   S    
C43   H7    S    
C12   C36   A    
O1    Zn1   S    
N4    I2    S    
C40   C42   A    
C30   N2    A    
C27   I5    S    
C12   C38   A    
C50   H29   S    
O13   C43   S    
C31   N1    A    
C45   H15   S    
C41   N1    S    
C48   H23   S    
C5    C29   A    
C46   H17   S    
C10   C21   A    
C29   O9    S    
O14   C44   S    
C13   C19   A    
N3    N4    D    
C24   O6    A    
C14   C20   A    
O16   C46   S    
C45   H14   S    
C2    O2    A    
O17   C47   S    
C5    C7    A    
C15   C26   A    
C6    C8    A    
C47   H21   S    
N3    Zn2   S    
C37   H1    S    
C44   H10   S    
C38   H2    S    
C3    C9    A    
C24   O8    A    
O18   C48   S    
C43   H9    S    
C47   H20   S    
C39   O13   S    
C36   H3    S    
N3    I1    S    
C49   H26   S    
C44   H11   S    
C32   N2    A    
C42   N2    S    
C4    C17   A    
C4    C6    A    
C6    C30   A    
C20   C22   A    
O8    Zn1   S    
C30   O10   S    
C50   H30   S    
C4    C10   A    
O3    Zn2   S    
C7    O15   S    
C46   H18   S    
C16   C25   A    
C23   O5    A    
C48   H24   S    
C8    O16   S    
C31   O12   S    
C32   O11   S    
O5    Zn1   S    
C45   H13   S    
C3    C5    A    
C43   H8    S    
O2    Zn2   S    
C12   C24   S    
C7    C25   A    
C13   C17   A    
C33   C41   A    
C11   C35   A    
C1    O3    A    
C34   I3    S    
C37   C39   A    
C2    O4    A    
C33   I4    S    
C38   C40   A    
C25   O19   S    
C11   C23   S    
C47   H19   S    
C33   C35   A    
C40   O14   S    
C34   C36   A    
C20   O18   S    
C49   H25   S    
C44   H12   S    
C19   O17   S    
C9    C31   A    
O15   C45   S    
C10   C32   A    
C16   C18   A    
C13   C16   A    
C27   C28   D    
C1    C27   S    
C14   C15   A    
C2    C28   S    
C35   H4    S    
N4    Zn1   S    
C21   H5    S    
