data_mof_unit_19709.cif
_audit_creation_date              2012-12-10T17:03:39-0500
_audit_creation_method            fapswitch 2.2
_symmetry_space_group_name_H-M    P1
_symmetry_Int_Tables_number       1
_space_group_crystal_system       triclinic
_cell_length_a                    10.116493
_cell_length_b                    10.756716
_cell_length_c                    13.06839
_cell_angle_alpha                 89.703173
_cell_angle_beta                  71.440617
_cell_angle_gamma                 89.319276
_cell_volume                      1348.05113734

loop_
_atom_site_label
_atom_site_type_symbol
_atom_type_description
_atom_site_fract_x
_atom_site_fract_y
_atom_site_fract_z
_atom_type_partial_charge
C1    C     C_R   0.500392 0.736756 0.497981 0.950822
C2    C     C_R   0.443676 0.434903 0.978768 0.047672
C3    C     C_R   0.484471 0.420488 0.866617 -0.011038
C4    C     C_R   0.548620 0.468890 0.023940 -0.020040
C5    C     C_R   0.691579 0.459861 0.959924 0.014656
C6    C     C_R   0.726263 0.401146 0.858753 0.035161
C7    C     C_R   0.620975 0.378212 0.813382 0.083756
C8    C     C_R   0.517312 0.519406 0.127415 -0.031997
C9    C     C_R   0.761875 0.526054 0.112069 0.011266
C10   C     C_R   0.383635 0.431509 0.813925 -0.140414
C11   C     C_2   0.622730 0.059901 0.465489 -0.029419
C12   C     C_R   0.424944 0.478371 0.701218 0.909232
C13   C     C_2   0.517523 0.134410 0.458516 -0.133508
C14   C     C_2   0.618156 0.929116 0.442901 0.115680
C15   C     C_2   0.502120 0.868482 0.497135 -0.307480
C16   C     C_2   0.098625 0.430364 0.438832 -0.049429
C17   C     C_2   0.946432 0.417524 0.449314 0.121752
C18   C     C_R   0.503453 0.262677 0.493475 0.877695
C19   C     C_R   0.576590 0.508825 0.296136 0.875363
C20   C     C_R   0.794470 0.507013 0.000879 0.014654
C21   C     C_R   0.620932 0.518749 0.177760 -0.188619
C22   C     C_R   0.247714 0.392867 0.870517 0.109847
C23   C     C_R   0.209101 0.378342 0.983049 -0.221613
C24   C     C_R   0.304077 0.403285 0.038482 0.110849
H1    H     H_    0.410356 0.916506 0.549299 0.128072
H2    H     H_    0.172890 0.374908 0.377414 0.128779
H3    H     H_    0.885815 0.584293 0.513973 0.187624
H4    H     H_    0.105601 0.346332 0.027939 0.139099
N1    N     N_2   0.148270 0.498670 0.498870 -0.083151
N2    N     N_2   0.852610 0.498640 0.498840 -0.203267
O1    O     O_R   0.386950 0.680940 0.500020 -0.612326
O2    O     O_R   0.613110 0.680900 0.499980 -0.594916
O3    O     O_R   0.330780 0.500000 0.653640 -0.603949
O4    O     O_R   0.556930 0.499960 0.653610 -0.602310
O5    O     O_R   0.386890 0.319100 0.500020 -0.627201
O6    O     O_R   0.613050 0.319060 0.499980 -0.591464
O7    O     O_R   0.443070 0.500040 0.346390 -0.599395
O8    O     O_R   0.669220 0.500000 0.346360 -0.628065
Zn1   Zn    Zn3+2 0.349000 0.500030 0.500020 0.950666
Zn2   Zn    Zn3+2 0.651000 0.499970 0.499980 0.940121
N3    N     N_3   0.870575 0.562542 0.154032 -0.450920
H5    H     H_    0.838119 0.641509 0.202233 0.212928
H6    H     H_    0.891258 0.489837 0.199912 0.191819
N4    N     N_3   0.420569 0.089539 0.407086 -0.450824
H7    H     H_    0.319648 0.097040 0.461756 0.197186
H8    H     H_    0.426418 0.146836 0.340915 0.195413
N5    N     N_3   0.738143 0.866952 0.370617 -0.439405
H9    H     H_    0.763570 0.912186 0.295981 0.180267
H10   H     H_    0.821928 0.876992 0.400298 0.189271
N6    N     N_3   0.055477 0.548060 0.592451 -0.429650
H11   H     H_    0.084288 0.512599 0.656702 0.242811
H12   H     H_    0.073875 0.643550 0.590497 0.195495
N7    N     N_3   0.905410 0.314009 0.398115 -0.398003
H13   H     H_    0.990367 0.254087 0.365385 0.146942
H14   H     H_    0.876347 0.347870 0.333438 0.190126
N8    N     N_3   0.864935 0.356019 0.806935 -0.475277
H15   H     H_    0.862886 0.258977 0.804474 0.180607
H16   H     H_    0.898312 0.388784 0.727804 0.201042
C25   C     C_1   0.923987 0.555386 0.929430 0.240086
N9    N     N_1   0.025948 0.597526 0.872808 -0.198915
C26   C     C_1   0.394439 0.598031 0.170707 0.241944
N10   N     N_1   0.297035 0.661196 0.205164 -0.212867
N11   N     N_3   0.155650 0.354850 0.813047 -0.422336
H17   H     H_    0.207764 0.286979 0.757273 0.178298
H18   H     H_    0.070920 0.308981 0.866394 0.189934
N12   N     N_3   0.264112 0.375963 0.151566 -0.465502
H19   H     H_    0.240671 0.281401 0.162101 0.171361
H20   H     H_    0.172363 0.425732 0.189874 0.179498
N13   N     N_3   0.645893 0.296171 0.722906 -0.434787
H21   H     H_    0.730600 0.328484 0.659852 0.240180
H22   H     H_    0.671115 0.208345 0.746277 0.180267
C27   C     C_1   0.727749 0.093360 0.513733 0.193809
N14   N     N_1   0.813097 0.115881 0.552156 -0.233963

loop_
_geom_bond_atom_site_label_1
_geom_bond_atom_site_label_2
_ccdc_geom_bond_type
C7    N13   S    
N6    H12   S    
C23   C24   A    
N11   H18   S    
C6    C7    A    
C1    C15   S    
C19   O8    A    
C5    C20   A    
N3    H6    S    
N3    H5    S    
C9    C20   A    
C9    N3    S    
N5    H9    S    
C14   C15   D    
C24   N12   S    
C8    C26   S    
C4    C8    A    
N1    Zn1   S    
N7    H14   S    
C2    C3    A    
C16   N1    D    
N2    Zn2   S    
C25   N9    T    
N5    H10   S    
C3    C10   A    
N7    H13   S    
C10   C22   A    
H3    N2    S    
C2    C24   A    
C17   N2    D    
C11   C13   D    
C9    C21   A    
N4    H8    S    
O3    Zn1   S    
C10   C12   S    
C13   C18   S    
O4    Zn2   S    
O5    Zn1   S    
C19   C21   S    
N8    H16   S    
N12   H19   S    
C3    C7    A    
N1    N6    S    
O2    Zn2   S    
C13   N4    S    
C16   H2    S    
C26   N10   T    
O7    Zn1   S    
C11   C14   S    
N13   H21   S    
C15   H1    S    
C11   C27   S    
C16   C17   S    
N12   H20   S    
C12   O4    A    
N11   H17   S    
C2    C4    A    
C17   N7    S    
C1    O1    A    
N8    H15   S    
N13   H22   S    
C18   O5    A    
C6    N8    S    
C5    C6    A    
C22   C23   A    
C4    C5    A    
O6    Zn2   S    
C19   O7    A    
N6    H11   S    
C12   O3    A    
C23   H4    S    
C14   N5    S    
C18   O6    A    
O8    Zn2   S    
C1    O2    A    
N4    H7    S    
C22   N11   S    
O1    Zn1   S    
C27   N14   T    
C20   C25   S    
C8    C21   A    
