data_mof_unit_33291.cif
_audit_creation_date              2012-12-11T20:00:45-0500
_audit_creation_method            fapswitch 2.2
_symmetry_space_group_name_H-M    P1
_symmetry_Int_Tables_number       1
_space_group_crystal_system       triclinic
_cell_length_a                    8.250218
_cell_length_b                    16.361091
_cell_length_c                    26.943194
_cell_angle_alpha                 72.929141
_cell_angle_beta                  96.732132
_cell_angle_gamma                 95.67045
_cell_volume                      3444.70743459

loop_
_atom_site_label
_atom_site_type_symbol
_atom_type_description
_atom_site_fract_x
_atom_site_fract_y
_atom_site_fract_z
_atom_type_partial_charge
Ba1   Ba    Ba6+2 0.337820 0.939830 0.518500 1.667976
Ba2   Ba    Ba6+2 0.851970 0.060110 0.481480 1.695360
C1    C     C_3   0.995897 0.537301 0.610123 -0.358739
C2    C     C_R   0.471976 0.393688 0.192631 0.589996
C3    C     C_2   0.291524 0.279513 0.280492 -0.089209
C4    C     C_3   0.537775 0.638104 0.629895 0.299262
C5    C     C_3   0.280576 0.248307 0.338780 -0.106513
C6    C     C_1   0.475671 0.142737 0.341612 0.037071
C7    C     C_2   0.513906 0.184366 0.293338 -0.083550
C8    C     C_2   0.414814 0.256389 0.259357 0.212651
C9    C     C_R   0.526741 0.400862 0.104275 -0.080447
C10   C     C_R   0.515400 0.310507 0.118827 -0.036059
C11   C     C_R   0.539326 0.269520 0.081572 -0.056631
C12   C     C_3   0.032987 0.632964 0.601974 0.342813
C13   C     C_R   0.504583 0.442330 0.141632 -0.028985
C14   C     C_2   0.362003 0.166162 0.364408 -0.256756
C15   C     C_2   0.811944 0.821834 0.639678 -0.252842
C16   C     C_3   0.500623 0.565678 0.678188 -0.321319
C17   C     C_R   0.628487 0.456726 0.964390 0.019768
C18   C     C_R   0.593199 0.589908 0.985946 0.020426
C19   C     C_R   0.627951 0.547718 0.949609 0.051011
C20   C     C_R   0.670357 0.418403 0.927273 -0.099610
C21   C     C_R   0.707431 0.467228 0.877554 -0.059524
C22   C     C_R   0.703974 0.556713 0.862124 -0.028042
C23   C     C_3   0.215839 0.053227 0.656598 0.282789
C24   C     C_R   0.663162 0.597154 0.897982 -0.078241
C25   C     C_R   0.658601 0.687100 0.882325 -0.038948
C26   C     C_R   0.695390 0.735283 0.831390 0.597746
C27   C     C_R   0.741801 0.606416 0.811625 0.576437
C28   C     C_3   0.598403 0.886478 0.388759 0.285766
C29   C     C_2   0.921381 0.735323 0.726580 -0.113281
C30   C     C_3   0.965019 0.793192 0.674278 0.056259
C31   C     C_1   0.703485 0.853507 0.659866 0.101405
C32   C     C_2   0.668623 0.812404 0.708750 -0.077734
C33   C     C_2   0.779594 0.746052 0.744480 0.209892
C34   C     C_3   0.273387 0.046336 0.713620 -0.356851
C35   C     C_R   0.588670 0.407392 0.015516 0.020021
C36   C     C_R   0.560548 0.449901 0.052442 0.051300
C37   C     C_R   0.566099 0.541023 0.038168 0.018930
C38   C     C_R   0.575378 0.316530 0.031300 -0.097960
C39   C     C_R   0.516345 0.532070 0.127537 -0.050368
C40   C     C_3   0.568235 0.814385 0.363006 -0.337490
C41   C     C_R   0.585944 0.680135 0.968459 -0.096972
C42   C     C_R   0.617976 0.727312 0.918009 -0.057955
C43   C     C_R   0.546061 0.580251 0.077173 -0.098480
C44   C     C_2   0.387476 0.258216 0.500153 -0.284560
C45   C     C_3   0.592531 0.387112 0.376011 0.285809
C46   C     C_R   0.797814 0.761205 0.488568 -0.299985
C47   C     C_2   0.230362 0.326319 0.546543 -0.108881
C48   C     C_2   0.252136 0.257248 0.531504 0.067424
C49   C     C_2   0.512834 0.318066 0.496752 -0.010464
C50   C     C_3   0.512809 0.385555 0.525215 -0.046163
C51   C     C_3   0.337490 0.406856 0.528822 0.049226
C52   C     C_3   0.614632 0.116845 0.606293 0.351643
C53   C     C_2   0.630802 0.462620 0.507184 -0.084966
C54   C     C_2   0.586257 0.543546 0.492862 -0.013907
C55   C     C_R   0.845667 0.617226 0.458029 0.032324
C56   C     C_3   0.615897 0.463741 0.328872 -0.278588
C57   C     C_R   0.706908 0.617872 0.483394 -0.054684
C58   C     C_R   0.956436 0.688921 0.446634 -0.117157
C59   C     C_R   0.930662 0.761715 0.461010 0.039431
C60   C     C_R   0.682813 0.691030 0.498424 0.001779
C61   C     C_3   0.646107 0.190983 0.630215 -0.375990
C62   C     C_3   0.117349 0.989423 0.358065 0.300522
C63   C     C_3   0.114598 0.025477 0.299145 -0.341400
C64   C     C_2   0.074748 0.991584 0.652159 0.772025
C65   C     C_3   0.118139 0.401805 0.354988 0.242649
C66   C     C_3   0.051035 0.488840 0.347424 0.348938
C67   C     C_R   0.478527 0.263060 0.170112 0.596211
H1    H     H_    0.118120 0.656887 0.570946 0.083820
H2    H     H_    0.245708 0.989591 0.375301 0.003343
H3    H     H_    0.048550 0.031118 0.372725 0.078874
H4    H     H_    0.110413 0.503380 0.622595 0.128466
H5    H     H_    0.189065 0.987259 0.283609 0.139460
H6    H     H_    0.165499 0.092989 0.288694 0.068794
H7    H     H_    0.986812 0.023434 0.280983 0.135957
H8    H     H_    0.916206 0.664757 0.589283 -0.058055
H9    H     H_    0.940334 0.525430 0.573117 0.066516
H10   H     H_    0.318541 0.039172 0.638852 0.050735
H11   H     H_    0.175574 0.062843 0.733355 0.151733
H12   H     H_    0.642593 0.828272 0.329324 0.130240
H13   H     H_    0.307921 0.980159 0.734468 0.085894
H14   H     H_    0.382221 0.091143 0.715914 0.120141
H15   H     H_    0.908809 0.511695 0.640383 0.127460
H16   H     H_    0.535551 0.587585 0.713397 0.124575
H17   H     H_    0.568525 0.328547 0.362750 0.028640
H18   H     H_    0.485332 0.397450 0.394332 0.009343
H19   H     H_    0.702320 0.449965 0.304250 0.129789
H20   H     H_    0.496809 0.476725 0.305653 0.180713
H21   H     H_    0.662752 0.521383 0.341310 0.128966
H22   H     H_    0.205657 0.409942 0.325253 0.024366
H23   H     H_    0.602346 0.752804 0.391085 0.079124
H24   H     H_    0.182487 0.380759 0.394879 -0.002014
H25   H     H_    0.978738 0.485814 0.380197 0.059233
H26   H     H_    0.484888 0.696158 0.632636 0.093178
H27   H     H_    0.971460 0.506383 0.310276 0.035826
H28   H     H_    0.619198 0.167653 0.278620 0.122470
H29   H     H_    0.530321 0.200212 0.091173 0.124537
H30   H     H_    0.008674 0.691581 0.751008 0.109715
H31   H     H_    0.739277 0.434086 0.851016 0.122068
H32   H     H_    0.678711 0.350379 0.935620 0.071076
H33   H     H_    0.589512 0.279180 0.005377 0.071340
H34   H     H_    0.436655 0.807922 0.349168 0.160847
H35   H     H_    0.214619 0.329811 0.257315 0.106453
H36   H     H_    0.502000 0.565971 0.155621 0.134181
H37   H     H_    0.552998 0.716785 0.992583 0.072817
H38   H     H_    0.672546 0.649499 0.629251 -0.026204
H39   H     H_    0.611049 0.796200 0.907075 0.124453
H40   H     H_    0.556375 0.823680 0.722263 0.115886
H41   H     H_    0.555740 0.648642 0.070501 0.075394
H42   H     H_    0.345154 0.135529 0.405205 0.071828
H43   H     H_    0.783970 0.807708 0.602623 0.031644
H44   H     H_    0.137293 0.324407 0.572268 0.090615
H45   H     H_    0.492742 0.120190 0.584108 -0.084224
H46   H     H_    0.060118 0.688320 0.425777 0.165421
H47   H     H_    0.390641 0.205438 0.483634 0.053671
H48   H     H_    0.778976 0.817736 0.499661 0.070763
H49   H     H_    0.759636 0.451386 0.510654 0.097227
H50   H     H_    0.367770 0.546330 0.676848 0.144583
H51   H     H_    0.458997 0.555820 0.491281 0.140920
H52   H     H_    0.569819 0.509534 0.680621 0.119906
H53   H     H_    0.729819 0.893094 0.401550 0.003614
H54   H     H_    0.525131 0.870186 0.422809 0.066295
H55   H     H_    0.959463 0.955968 0.591652 0.292824
H56   H     H_    0.706144 0.123724 0.578650 0.096014
H57   H     H_    0.386826 0.635574 0.289679 0.361340
H58   H     H_    0.543116 0.193097 0.652735 0.103549
H59   H     H_    0.658762 0.252341 0.599187 0.062589
H60   H     H_    0.761426 0.183497 0.656435 0.147959
N1    N     N_R   0.456091 0.304690 0.206598 -0.423286
N2    N     N_R   0.736662 0.695057 0.796402 -0.423922
O1    O     O_2   0.431310 0.922990 0.623550 -0.458967
O2    O     O_2   0.850958 0.304495 0.504881 -0.484715
O3    O     O_3   0.734992 0.380445 0.410471 -0.573786
O4    O     O_3   0.663280 0.983100 0.563360 -0.516417
O5    O     O_3   0.016420 0.932050 0.462720 -0.491844
O6    O     O_2   0.959730 0.164640 0.549160 -0.456857
O7    O     O_3   0.169002 0.135902 0.630888 -0.658551
O8    O     O_2   0.948108 0.193973 0.327562 -0.481112
O9    O     O_3   0.988471 0.341849 0.348455 -0.588890
O10   O     O_2   0.464245 0.184853 0.181869 -0.592591
O11   O     O_2   0.779012 0.570427 0.781170 -0.610450
O12   O     O_3   0.045240 0.905581 0.370017 -0.620252
O13   O     O_2   0.458657 0.431099 0.224844 -0.617556
O14   O     O_2   0.693746 0.813330 0.818645 -0.585207
O15   O     O_3   0.126250 0.812630 0.574830 -0.453354
O16   O     O_2   0.294480 0.773062 0.667470 -0.499244
O17   O     O_3   0.625903 0.039411 0.646216 -0.598906
O18   O     O_3   0.105507 0.647215 0.648817 -0.605733
O19   O     O_2   0.229950 0.835370 0.450810 -0.456936
O20   O     O_3   0.517580 0.797570 0.545130 -0.501282
O21   O     O_2   0.346019 0.696895 0.492967 -0.474112
O22   O     O_2   0.958454 0.984442 0.677637 -0.639723
O23   O     O_3   0.467172 0.615031 0.585551 -0.608029
O24   O     O_R   0.069150 0.952226 0.612805 -0.731718
O25   O     O_2   0.139835 0.651598 0.346033 -0.305108
O26   O     O_2   0.338008 0.544685 0.389612 -0.354598
O27   O     O_3   0.296504 0.591562 0.287957 -0.524200
O28   O     O_2   0.758370 0.077020 0.376420 -0.452771
O29   O     O_3   0.526390 0.016840 0.436620 -0.506760
O30   O     O_3   0.063420 0.187310 0.425160 -0.461021
O31   O     O_3   0.552911 0.962554 0.352084 -0.626125
O32   O     O_3   0.173250 0.067890 0.537260 -0.450959
O33   O     O_3   0.672100 0.202370 0.454860 -0.477237
P1    P     P_3+3 0.610630 0.953360 0.619150 1.035296
P2    P     P_3+3 0.057260 0.861390 0.437850 1.001366
P3    P     P_3+3 0.502634 0.700206 0.530028 0.937478
P4    P     P_3+3 0.579040 0.046590 0.380840 0.989686
P5    P     P_3+3 0.694108 0.301511 0.467898 0.975892
P6    P     P_3+3 0.121560 0.757626 0.641361 0.992448
P7    P     P_3+3 0.147775 0.154455 0.562594 0.962492
P8    P     P_3+3 0.069739 0.242480 0.358948 0.971566
S1    S     S_3+6 0.210987 0.571575 0.344305 -0.126300

loop_
_geom_bond_atom_site_label_1
_geom_bond_atom_site_label_2
_ccdc_geom_bond_type
C6    C7    D    
C47   H44   S    
C53   C54   D    
Ba1   O19   S    
C33   N2    S    
C12   H1    S    
C19   C24   A    
Ba1   O1    S    
C40   H34   S    
O21   P3    D    
Ba1   O15   S    
C27   N2    Am   
O29   P4    S    
C26   O14   D    
C66   H27   S    
C20   H32   S    
C39   H36   S    
C52   O17   S    
C17   C19   A    
C22   C24   A    
Ba1   Ba2   S    
C35   C38   A    
C36   C37   A    
C32   C33   S    
O20   P3    S    
C55   C57   A    
C52   C61   S    
C34   H14   S    
C67   O10   D    
O19   P2    D    
O28   P4    D    
C59   P2    S    
C62   H2    S    
C11   H29   S    
O2    P5    D    
C22   C27   A    
C11   C38   A    
C17   C35   A    
O30   P8    S    
C9    C13   A    
C25   C42   A    
C28   H53   S    
C34   H13   S    
Ba2   O28   S    
O3    P5    S    
C63   H7    S    
C21   C22   A    
Ba1   O20   S    
C48   P7    S    
C29   H30   S    
Ba1   O5    S    
C6    P4    S    
C7    C8    S    
C61   H59   S    
C50   C53   S    
C37   C43   A    
C62   H3    S    
C21   H31   S    
C3    H35   S    
C6    C14   D    
C5    P8    S    
O17   P1    S    
C54   H51   S    
O33   P5    S    
C40   H12   S    
C15   C31   D    
Ba2   O30   S    
C42   H39   S    
C4    C16   S    
C52   H56   S    
O25   S1    D    
C16   H16   S    
C49   C50   S    
C45   H17   S    
C49   P5    S    
C17   C20   A    
O1    P1    D    
C13   C39   A    
C34   H11   S    
Ba2   O33   S    
C12   H8    S    
C18   C37   A    
C43   H41   S    
C67   N1    Am   
C55   C58   A    
C2    N1    Am   
C16   H52   S    
C44   C49   D    
C66   H25   S    
C63   H5    S    
O18   P6    S    
C58   C59   A    
C41   H37   S    
C45   H18   S    
C9    C36   A    
C65   C66   S    
C8    N1    S    
O12   P2    S    
C35   C36   A    
O27   S1    S    
C46   C60   A    
C29   C30   S    
Ba1   P1    S    
C4    H38   S    
C65   H22   S    
C31   C32   D    
O4    P1    S    
O8    P8    D    
C18   C19   A    
C65   O9    S    
C56   H21   S    
C4    O23   S    
C1    C12   S    
O31   P4    S    
Ba2   O29   S    
C5    C14   S    
C10   C67   A    
C47   C48   D    
O15   P6    S    
C41   C42   A    
C24   C25   A    
C29   C33   D    
O23   P3    S    
C28   O31   S    
C15   H43   S    
Ba2   P4    S    
C28   H54   S    
C25   C26   A    
C18   C41   A    
O32   P7    S    
C50   C51   S    
C3    C5    S    
C15   C30   S    
C30   P6    S    
C57   C60   A    
C7    H28   S    
O7    P7    S    
C23   H10   S    
Ba2   O6    S    
Ba1   O29   S    
C31   P1    S    
C23   C64   S    
C56   H19   S    
Ba2   O32   S    
C2    O13   D    
C64   O22   D    
C9    C10   A    
O16   P6    D    
C46   H48   S    
C62   O12   S    
C44   C48   S    
Ba2   O4    S    
C63   H6    S    
C54   C57   S    
C44   H47   S    
C66   S1    S    
C62   C63   S    
C26   N2    Am   
C2    C13   A    
C23   O7    S    
C3    C8    D    
C45   O3    S    
C45   C56   S    
C46   C59   A    
C64   O24   S    
O5    P2    S    
Ba1   P2    S    
C47   C51   S    
C27   O11   D    
C52   H45   S    
C12   O18   S    
C60   P3    S    
C40   H23   S    
C61   H60   S    
C1    H4    S    
C56   H20   S    
Ba2   O5    S    
O6    P7    D    
C23   C34   S    
C38   H33   S    
H57   O27   S    
C10   C11   A    
Ba1   O32   S    
O9    P8    S    
C4    H26   S    
H55   O24   S    
C1    H15   S    
C65   H24   S    
C32   H40   S    
C39   C43   A    
C20   C21   A    
C28   C40   S    
C58   H46   S    
Ba1   O4    S    
C1    H9    S    
C16   H50   S    
C61   H58   S    
C14   H42   S    
O26   S1    D    
C53   H49   S    
