data_mof_unit_30451.cif
_audit_creation_date              2012-12-10T19:47:23-0500
_audit_creation_method            fapswitch 2.2
_symmetry_space_group_name_H-M    P1
_symmetry_Int_Tables_number       1
_space_group_crystal_system       triclinic
_cell_length_a                    10.899443
_cell_length_b                    10.921578
_cell_length_c                    12.701867
_cell_angle_alpha                 91.214495
_cell_angle_beta                  91.620806
_cell_angle_gamma                 89.685691
_cell_volume                      1511.05649135

loop_
_atom_site_label
_atom_site_type_symbol
_atom_type_description
_atom_site_fract_x
_atom_site_fract_y
_atom_site_fract_z
_atom_type_partial_charge
C1    C     C_R   0.261935 0.496533 0.502073 0.800812
C2    C     C_R   0.738106 0.497925 0.498274 0.788628
C3    C     C_R   0.505602 0.871942 0.494918 -0.090967
C4    C     C_R   0.507591 0.128476 0.504514 -0.089629
C5    C     C_R   0.504288 0.938645 0.400510 -0.003151
C6    C     C_R   0.514851 0.062204 0.598520 -0.009965
C7    C     C_R   0.202967 0.389829 0.852800 -0.210633
C8    C     C_R   0.828461 0.508182 0.122895 -0.240484
C9    C     C_R   0.172913 0.398002 0.745747 -0.086361
C10   C     C_R   0.859039 0.537133 0.227722 -0.143101
C11   C     C_R   0.119547 0.505403 0.706428 0.059691
C12   C     C_R   0.879131 0.443710 0.299752 0.107396
C13   C     C_R   0.098990 0.605190 0.775356 -0.215971
C14   C     C_R   0.865067 0.321017 0.267036 -0.271796
C15   C     C_R   0.130048 0.598986 0.882865 0.513664
C16   C     C_R   0.832220 0.290606 0.160726 0.501047
C17   C     C_R   0.179780 0.488331 0.921560 -0.226576
C18   C     C_R   0.815353 0.386363 0.090013 -0.144542
C19   C     C_R   0.935870 0.509151 0.592809 -0.238224
C20   C     C_R   0.064089 0.472372 0.409028 -0.253806
C21   C     C_R   0.871666 0.494182 0.496396 -0.091772
C22   C     C_R   0.128430 0.490725 0.505079 -0.094207
C23   C     C_R   0.503052 0.261952 0.502069 0.785921
C24   C     C_R   0.501933 0.738221 0.497720 0.794588
C25   C     C_R   0.936898 0.472403 0.403603 0.020091
C26   C     C_R   0.063065 0.504578 0.599107 0.021226
C27   C     C_2   0.470134 0.461545 0.031980 -0.283532
C28   C     C_2   0.536987 0.530708 0.968185 -0.271142
C29   C     C_1   0.526222 0.523406 0.852620 0.214301
C30   C     C_1   0.476900 0.473152 0.147439 0.206789
C31   C     C_R   0.676285 0.210831 0.834306 -0.118948
C32   C     C_R   0.446538 0.895392 0.107886 -0.144151
C33   C     C_R   0.650782 0.169688 0.731217 -0.101095
C34   C     C_R   0.426756 0.923169 0.213840 -0.182463
C35   C     C_R   0.535863 0.118911 0.704093 0.137829
C36   C     C_R   0.511099 0.884838 0.292638 0.138470
C37   C     C_R   0.446876 0.109759 0.781346 -0.160318
C38   C     C_R   0.615135 0.817633 0.263128 -0.093155
C39   C     C_R   0.472802 0.151071 0.884474 -0.169539
C40   C     C_R   0.634457 0.790219 0.156935 -0.175111
C41   C     C_R   0.587622 0.200924 0.911063 -0.083455
C42   C     C_R   0.550853 0.829809 0.079352 -0.112248
C43   C     C_R   0.511043 0.935282 0.592394 -0.228531
C44   C     C_R   0.503940 0.065623 0.407419 -0.245871
Cu1   Cu    Cu3+1 0.492140 0.492110 0.395880 0.967323
Cu2   Cu    Cu3+1 0.507860 0.507890 0.604120 0.977748
H1    H     H_    0.607838 0.231247 0.991255 0.155515
H2    H     H_    0.568042 0.811953 0.996945 0.129386
H3    H     H_    0.053815 0.686787 0.745987 0.147882
H4    H     H_    0.885613 0.251695 0.324433 0.127868
H5    H     H_    0.886730 0.521084 0.665421 0.169919
H6    H     H_    0.112893 0.456538 0.336681 0.172837
H7    H     H_    0.602139 0.595205 0.002779 0.159388
H8    H     H_    0.408216 0.393660 0.997568 0.160453
H9    H     H_    0.765584 0.248453 0.854611 0.130141
H10   H     H_    0.383135 0.928164 0.047652 0.117474
H11   H     H_    0.721201 0.175086 0.673001 0.111029
H12   H     H_    0.348395 0.979352 0.234269 0.122756
H13   H     H_    0.358544 0.068875 0.762039 0.123761
H14   H     H_    0.683752 0.791435 0.321815 0.115872
H15   H     H_    0.404475 0.143087 0.944106 0.117889
H16   H     H_    0.717246 0.743603 0.134408 0.122009
H17   H     H_    0.515723 0.885853 0.665571 0.168600
H18   H     H_    0.503997 0.115991 0.334749 0.166668
H19   H     H_    0.198353 0.476177 0.004620 0.130599
H20   H     H_    0.794320 0.366394 0.007915 0.137181
H21   H     H_    0.240301 0.305244 0.883180 0.143730
H22   H     H_    0.819249 0.579703 0.065658 0.151941
H23   H     H_    0.186063 0.318857 0.694353 0.125619
H24   H     H_    0.872762 0.631720 0.251935 0.121427
N1    N     N_1   0.480320 0.480250 0.239400 -0.163120
N2    N     N_1   0.519680 0.519750 0.760600 -0.156998
O1    O     O_R   0.313000 0.493330 0.412070 -0.586453
O2    O     O_R   0.687000 0.506670 0.587930 -0.588008
O3    O     O_R   0.326280 0.506660 0.587930 -0.568994
O4    O     O_R   0.673720 0.493340 0.412070 -0.570582
O5    O     O_R   0.493370 0.312980 0.412070 -0.587237
O6    O     O_R   0.506630 0.687020 0.587930 -0.583318
O7    O     O_R   0.506650 0.326310 0.587930 -0.572347
O8    O     O_R   0.493350 0.673690 0.412070 -0.574872
O9    O     O_3   0.094945 0.697333 0.946874 -0.628441
C45   C     C_3   0.175079 0.719137 0.034823 0.045649
H25   H     H_    0.190457 0.819470 0.040357 0.163097
H26   H     H_    0.267829 0.676669 0.027682 0.142295
C46   C     C_3   0.113359 0.680805 0.135657 -0.368642
H27   H     H_    0.023183 0.728186 0.140683 0.229494
H28   H     H_    0.097100 0.580618 0.133840 0.219992
C47   C     C_3   0.191071 0.714275 0.233535 -0.875090
H29   H     H_    0.282807 0.669846 0.230198 0.282028
H30   H     H_    0.144525 0.683680 0.304809 0.255537
H31   H     H_    0.201813 0.814952 0.240013 0.248190
O10   O     O_3   0.825495 0.171992 0.117703 -0.636426
C48   C     C_3   0.816816 0.078204 0.192068 0.061399
H32   H     H_    0.765132 0.002212 0.152815 0.184945
H33   H     H_    0.761474 0.105359 0.261235 0.130550
C49   C     C_3   0.944797 0.028869 0.222960 -0.356007
H34   H     H_    0.986046 0.983344 0.153183 0.224640
H35   H     H_    0.006591 0.104764 0.248878 0.214633
C50   C     C_3   0.938226 0.937078 0.311420 -0.937118
H36   H     H_    0.890493 0.977997 0.379931 0.257744
H37   H     H_    0.032363 0.910343 0.337657 0.262078
H38   H     H_    0.888840 0.853794 0.282972 0.246658

loop_
_geom_bond_atom_site_label_1
_geom_bond_atom_site_label_2
_ccdc_geom_bond_type
C5    C36   S    
C48   H32   S    
Cu1   N1    S    
C30   N1    T    
C27   H8    S    
C43   H17   S    
C39   C41   A    
C46   H27   S    
C44   H18   S    
C3    C43   A    
Cu1   O4    S    
C28   C29   S    
C19   C21   A    
C9    H23   S    
Cu2   O7    S    
C20   C25   A    
C49   C50   S    
C40   H16   S    
C6    C35   S    
Cu1   O1    S    
C19   C26   A    
C23   O7    A    
C24   O8    A    
C7    C17   A    
C49   H35   S    
C31   C33   A    
Cu2   N2    S    
C2    O2    A    
C29   N2    T    
C40   C42   A    
C1    C22   S    
C48   H33   S    
C27   C30   S    
C3    C24   S    
Cu2   O3    S    
O9    C45   S    
C46   H28   S    
C39   H15   S    
C1    O3    A    
C15   O9    S    
Cu2   O6    S    
C4    C23   S    
C4    C44   A    
C11   C26   S    
Cu1   Cu2   S    
C8    C18   A    
C32   C34   A    
C19   H5    S    
C50   H36   S    
C47   H31   S    
C49   H34   S    
C2    C21   S    
C41   H1    S    
C42   H2    S    
C23   O5    A    
C9    C11   A    
C37   H13   S    
C10   C12   A    
C13   H3    S    
C10   H24   S    
C4    C6    A    
C50   H37   S    
C5    C44   A    
C47   H30   S    
C8    H22   S    
C48   C49   S    
C45   H26   S    
C6    C43   A    
C13   C15   A    
C38   H14   S    
Cu2   O2    S    
C2    O4    A    
C46   C47   S    
C24   O6    A    
C15   C17   A    
C21   C25   A    
C33   H11   S    
C31   C41   A    
C35   C37   A    
C8    C10   A    
C20   C22   A    
C3    C5    A    
C28   H7    S    
C16   O10   S    
C18   H20   S    
C45   C46   S    
C17   H19   S    
C12   C25   S    
C20   H6    S    
C1    O1    A    
C36   C38   A    
C12   C14   A    
C37   C39   A    
C38   C40   A    
C11   C13   A    
C14   H4    S    
O10   C48   S    
C33   C35   A    
C34   C36   A    
Cu1   O8    S    
C14   C16   A    
C7    H21   S    
C7    C9    A    
C50   H38   S    
C47   H29   S    
C16   C18   A    
C45   H25   S    
C22   C26   A    
C27   C28   D    
C34   H12   S    
C32   C42   A    
Cu1   O5    S    
C31   H9    S    
C32   H10   S    
