data_mof_unit_59572.cif
_audit_creation_date              2013-03-05T15:52:32-0500
_audit_creation_method            fapswitch 2.2
_symmetry_space_group_name_H-M    P1
_symmetry_Int_Tables_number       1
_space_group_crystal_system       triclinic
_cell_length_a                    6.952754
_cell_length_b                    20.459415
_cell_length_c                    24.417078
_cell_angle_alpha                 89.807372
_cell_angle_beta                  90.444747
_cell_angle_gamma                 89.372522
_cell_volume                      3472.97819707

loop_
_atom_site_label
_atom_site_type_symbol
_atom_site_description
_atom_site_fract_x
_atom_site_fract_y
_atom_site_fract_z
_atom_type_partial_charge
O1    O     O_R   0.507310 0.423620 0.460450 -0.596696
O2    O     O_R   0.170760 0.556060 0.437190 -0.566326
O3    O     O_R   0.004040 0.576380 0.539550 -0.590243
C1    C     C_R   0.338743 0.576000 0.421160 0.973228
O4    O     O_R   0.177350 0.422870 0.454070 -0.584991
O5    O     O_R   0.010680 0.442240 0.556560 -0.588884
C2    C     C_R   0.346281 0.398833 0.443511 0.952994
O6    O     O_R   0.500670 0.557760 0.443440 -0.592001
O7    O     O_3   0.340380 0.506510 0.533610 -0.268239
V1    V     V_3+5 0.064130 0.498790 0.493770 1.227400
O8    O     O_R   0.681170 0.443940 0.562810 -0.586608
C3    C     C_R   0.851030 0.424072 0.578749 0.965699
O9    O     O_R   0.674570 0.577130 0.545930 -0.589895
C4    C     C_R   0.842660 0.600994 0.556764 0.940555
V2    V     V_3+5 0.564560 0.501210 0.506230 1.211504
O10   O     O_3   0.838170 0.493490 0.466390 -0.259958
C5    C     C_R   0.976717 0.836365 0.912949 -0.202565
C6    C     C_R   0.847862 0.661725 0.589144 -0.119380
C7    C     C_R   0.027814 0.719299 0.908074 -0.034409
C8    C     C_R   0.025851 0.776927 0.938948 -0.098633
C9    C     C_R   0.934178 0.837174 0.856568 -0.170926
C10   C     C_R   0.940267 0.779205 0.824295 0.126835
C11   C     C_R   0.982494 0.719245 0.851656 -0.069972
C12   C     C_R   0.907673 0.778946 0.765942 0.023194
C13   C     C_R   0.916794 0.718892 0.736056 0.008490
C14   C     C_R   0.953280 0.660706 0.765577 -0.245261
C15   C     C_R   0.983592 0.660113 0.822095 0.302149
C16   C     C_R   0.869203 0.837065 0.736437 -0.289628
C17   C     C_R   0.836908 0.837569 0.679982 0.323241
C18   C     C_R   0.839150 0.778498 0.650458 -0.025518
C19   C     C_R   0.884462 0.718581 0.677734 0.115020
C20   C     C_R   0.791393 0.778138 0.594178 -0.063979
C21   C     C_R   0.794502 0.720495 0.564197 -0.174649
C22   C     C_R   0.893186 0.660607 0.645319 -0.178479
H1    H     H_    0.932024 0.613564 0.662174 0.122234
H2    H     H_    0.754883 0.721762 0.521186 0.125308
H3    H     H_    0.069212 0.674269 0.928477 0.207270
H4    H     H_    0.899473 0.884364 0.839340 0.103207
H5    H     H_    0.953969 0.613646 0.746106 0.186089
H6    H     H_    0.866769 0.884111 0.755890 0.168661
H7    H     H_    0.746589 0.822213 0.572882 0.174830
C23   C     C_3   0.727568 0.249512 0.796611 -0.363702
C24   C     C_3   0.092215 0.261769 0.797237 -0.473310
C25   C     C_3   0.092208 0.306844 0.745056 0.227492
H8    H     H_    0.232909 0.235448 0.800134 0.118916
H9    H     H_    0.077709 0.290402 0.835464 0.255836
H10   H     H_    0.211290 0.289087 0.718479 0.058075
C26   C     C_1   0.864499 0.379899 0.625211 -0.204899
C27   C     C_3   0.925600 0.211711 0.794669 0.292741
C28   C     C_3   0.720186 0.303978 0.750589 0.117575
C29   C     C_3   0.898752 0.297796 0.712070 0.072672
C30   C     C_3   0.902775 0.226235 0.690569 -0.510474
C31   C     C_3   0.936247 0.176821 0.738320 -0.402538
C32   C     C_1   0.879354 0.343045 0.664186 0.075042
C33   C     C_1   0.945588 0.162142 0.839436 0.031530
C34   C     C_1   0.960109 0.122472 0.876420 -0.267700
H11   H     H_    0.826646 0.137671 0.735841 0.191707
H12   H     H_    0.079669 0.152816 0.733742 0.183894
H13   H     H_    0.764694 0.215069 0.669377 0.194266
H14   H     H_    0.615610 0.213067 0.785829 0.078128
H15   H     H_    0.590542 0.293662 0.724963 0.073134
H16   H     H_    0.018746 0.219851 0.659799 0.191062
C35   C     C_3   0.531072 0.682844 0.250457 -0.324817
C36   C     C_3   0.180367 0.719154 0.258624 0.552369
C37   C     C_3   0.219077 0.767083 0.208191 -0.544093
H17   H     H_    0.543995 0.708487 0.163357 0.205986
H18   H     H_    0.487651 0.635155 0.232888 0.234052
H19   H     H_    0.192105 0.743392 0.168110 0.220619
H20   H     H_    0.119337 0.809695 0.206883 0.206791
C38   C     C_1   0.475048 0.877977 0.124326 -0.223024
C39   C     C_3   0.376729 0.708540 0.291328 -0.014059
C40   C     C_3   0.565931 0.732843 0.203571 -0.344587
C41   C     C_3   0.428426 0.792586 0.208432 0.217747
C42   C     C_3   0.464382 0.826377 0.264207 -0.285646
C43   C     C_3   0.453469 0.776030 0.312625 -0.316188
C44   C     C_1   0.457446 0.839583 0.162174 0.009734
C45   C     C_1   0.360061 0.660091 0.337404 0.091378
C46   C     C_1   0.347977 0.621440 0.375274 -0.162072
H21   H     H_    0.603324 0.767673 0.327598 0.195449
H22   H     H_    0.608289 0.849558 0.264406 0.205903
H23   H     H_    0.669158 0.673398 0.272507 0.233617
H24   H     H_    0.717833 0.749373 0.205125 0.193715
H25   H     H_    0.357135 0.866693 0.268476 0.220145
C47   C     C_R   0.464367 0.162413 0.088228 -0.237353
C48   C     C_R   0.350452 0.338694 0.410429 -0.149031
C49   C     C_R   0.399193 0.279305 0.086549 -0.014149
C50   C     C_R   0.415925 0.219359 0.059754 -0.290542
C51   C     C_R   0.484041 0.164145 0.145880 0.268556
C52   C     C_R   0.444579 0.223862 0.174579 -0.049216
C53   C     C_R   0.434492 0.282865 0.144156 0.087977
C54   C     C_R   0.404780 0.226320 0.231933 0.059685
C55   C     C_R   0.408971 0.287048 0.261198 -0.075729
C56   C     C_R   0.433694 0.345559 0.229914 0.254839
C57   C     C_R   0.454913 0.342910 0.172401 -0.231363
C58   C     C_R   0.334686 0.170455 0.258802 -0.041956
C59   C     C_R   0.284487 0.171565 0.313441 -0.207562
C60   C     C_R   0.306407 0.227969 0.344315 0.153441
C61   C     C_R   0.377787 0.286000 0.319874 0.123376
C62   C     C_R   0.252786 0.226710 0.399591 -0.139284
C63   C     C_R   0.268433 0.282282 0.431734 -0.160407
C64   C     C_R   0.413375 0.339458 0.355804 -0.146459
H26   H     H_    0.490605 0.382040 0.343307 0.175146
H27   H     H_    0.217673 0.281173 0.473575 0.115285
H28   H     H_    0.226806 0.127611 0.331688 0.160643
H29   H     H_    0.388298 0.216722 0.015999 0.128736
H30   H     H_    0.303287 0.126022 0.236937 0.171763
H31   H     H_    0.193630 0.182918 0.417681 0.135948
O11   O     O_R   0.323590 0.942280 0.056590 -0.594835
O12   O     O_R   0.647030 0.077140 0.045940 -0.576715
O13   O     O_R   0.813570 0.057750 0.943430 -0.591979
C65   C     C_R   0.477570 0.101144 0.056574 1.055541
O14   O     O_R   0.653510 0.943950 0.062820 -0.582855
O15   O     O_R   0.820100 0.923600 0.960440 -0.592507
C66   C     C_R   0.485519 0.923624 0.078585 1.031608
O16   O     O_R   0.317060 0.076430 0.039590 -0.590544
O17   O     O_3   0.483830 0.993520 0.966410 -0.286755
V3    V     V_3+5 0.760140 0.001200 0.006230 1.213484
O18   O     O_R   0.149560 0.922820 0.954030 -0.597768
C67   C     C_R   0.981534 0.898689 0.943548 0.901111
O19   O     O_R   0.143080 0.056020 0.937150 -0.597978
C68   C     C_R   0.973259 0.076165 0.921414 0.983504
V4    V     V_3+5 0.259690 0.998730 0.993720 1.189792
O20   O     O_3   0.986120 0.006480 0.033580 -0.256969
N1    N     N_R   0.010619 0.598022 0.848987 0.246837
O21   O     O_R   0.122244 0.553797 0.827377 -0.269476
O22   O     O_R   0.897394 0.581277 0.888716 -0.311914
N2    N     N_R   0.695962 0.371032 0.771419 0.251276
O23   O     O_R   0.575944 0.410842 0.746926 -0.308229
O24   O     O_R   0.796440 0.392517 0.812617 -0.279509
C69   C     C_2   0.665996 0.274052 0.852495 0.661862
H32   H     H_    0.520453 0.292718 0.857450 0.031842
O25   O     O_2   0.774989 0.273698 0.891946 -0.562521
N3    N     N_R   0.136165 0.375565 0.757803 0.284635
O26   O     O_R   0.196527 0.392281 0.806341 -0.267934
O27   O     O_R   0.156036 0.417404 0.718062 -0.341284
N4    N     N_R   0.033074 0.747460 0.295699 0.205079
O28   O     O_R   0.977910 0.715011 0.338661 -0.422967
O29   O     O_R   0.961987 0.805972 0.288338 -0.432745
N5    N     N_R   0.109828 0.655245 0.238486 0.216941
O30   O     O_R   0.148243 0.634624 0.189311 -0.368295
O31   O     O_R   0.028852 0.614530 0.272046 -0.330817
C70   C     C_2   0.347349 0.801860 0.362343 0.710771
H33   H     H_    0.338120 0.771495 0.398720 -0.019559
O32   O     O_2   0.275108 0.856516 0.363243 -0.526838
C71   C     C_2   0.515737 0.403199 0.143265 0.734019
H34   H     H_    0.459644 0.450723 0.155117 0.093923
O33   O     O_2   0.634441 0.400344 0.106714 -0.539869
C72   C     C_2   0.315773 0.333803 0.053536 0.630420
H35   H     H_    0.345843 0.336960 0.010043 0.048912
O34   O     O_2   0.203238 0.373027 0.073607 -0.532870
N6    N     N_R   0.806187 0.899482 0.653099 0.235248
O35   O     O_R   0.915247 0.916352 0.612466 -0.376093
O36   O     O_R   0.694805 0.943411 0.675213 -0.386560
N7    N     N_R   0.563724 0.108129 0.174190 0.219287
O37   O     O_R   0.699809 0.115657 0.210447 -0.377743
O38   O     O_R   0.501090 0.049640 0.164159 -0.443406
N8    N     N_R   0.411119 0.408874 0.254121 0.203334
O39   O     O_R   0.556878 0.448096 0.257606 -0.393334
O40   O     O_R   0.240605 0.429826 0.267576 -0.347854
C73   C     C_2   0.074471 0.774300 0.998436 0.543622
H36   H     H_    0.068888 0.818112 0.023284 -0.013027
O41   O     O_2   0.121270 0.722913 0.020667 -0.536777

loop_
_geom_bond_atom_site_label_1
_geom_bond_atom_site_label_2
_geom_bond_distance
_ccdc_geom_bond_type
C13   C19   1.440011 A    
C18   C20   1.411292 A    
C33   C34   1.215037 T    
C36   N4    1.486137 S    
N8    O39   1.301980 A    
C31   H12   1.113300 S    
C41   C42   1.549187 S    
C4    C6    1.475616 S    
C69   O25   1.220960 D    
C7    C8    1.401574 A    
C47   C50   1.391600 A    
C42   H25   1.111558 S    
C1    O6    1.297166 A    
C21   H2    1.083816 S    
O14   C66   1.304560 A    
C71   H34   1.084700 S    
C55   C61   1.450793 A    
V1    O10   1.707279 S    
C45   C46   1.218674 T    
C38   C66   1.456223 S    
C26   C32   1.215231 T    
C14   C15   1.394370 A    
C64   H26   1.073051 S    
O17   V4    1.702227 S    
C35   H23   1.111829 S    
C48   C63   1.393883 A    
C9    C10   1.426542 A    
C16   C17   1.394894 A    
C30   H13   1.113338 S    
C72   O34   1.221148 D    
O12   C65   1.299894 A    
O13   C68   1.296418 A    
O5    C3    1.296470 A    
O14   V3    1.963388 S    
C58   H30   1.079301 S    
C27   C31   1.554055 S    
C14   H5    1.075211 S    
C24   H9    1.108356 S    
C16   H6    1.074822 S    
V2    O10   2.147866 S    
C60   C61   1.422950 A    
C5    C8    1.407414 A    
C37   C41   1.551592 S    
O17   V3    2.153918 S    
C22   H1    1.076374 S    
O18   V4    1.990518 S    
C36   C39   1.588769 S    
O11   C66   1.296715 A    
O18   C67   1.297261 A    
C7    H3    1.081043 S    
C71   O33   1.221382 D    
O15   C67   1.298365 A    
O8    V2    1.972245 S    
H17   C40   1.112799 S    
C9    H4    1.076085 S    
C58   C59   1.381835 A    
N6    O35   1.301370 A    
O1    V2    1.986653 S    
C11   C15   1.410823 A    
C52   C54   1.430541 A    
O7    V1    2.153832 S    
N7    O38   1.301266 A    
C25   H10   1.114420 S    
C3    C26   1.449890 S    
C51   C52   1.435441 A    
C57   C71   1.488835 S    
N8    O40   1.301179 A    
O16   V4    1.989874 S    
C42   H22   1.111936 S    
O9    C4    1.297211 A    
O13   V3    1.958120 S    
C60   C62   1.403243 A    
O19   V4    1.972315 S    
C53   C57   1.418792 A    
C35   H18   1.111042 S    
C47   C65   1.477236 S    
C70   H33   1.084934 S    
C42   C43   1.568232 S    
O12   V3    1.991918 S    
C29   C30   1.557076 S    
C12   C16   1.410235 A    
C12   C13   1.432186 A    
N4    O29   1.301486 A    
C49   C53   1.428216 A    
C23   H14   1.114492 S    
C54   C55   1.435827 A    
O4    C2    1.296441 A    
C31   H11   1.113072 S    
C49   C50   1.396144 A    
C24   C27   1.555653 S    
C13   C14   1.409213 A    
C27   C33   1.493225 S    
C63   H27   1.083695 S    
C5    C9    1.405843 A    
C51   N7    1.439793 S    
O2    C1    1.303913 A    
C24   C25   1.570325 S    
N2    O24   1.300768 A    
C1    C46   1.455729 S    
C17   C18   1.409309 A    
C43   C70   1.518896 S    
C17   N6    1.437821 S    
C24   H8    1.113121 S    
C62   C63   1.388474 A    
C50   H29   1.085648 S    
C18   C19   1.424196 A    
C15   N1    1.437895 S    
C37   H19   1.109148 S    
C59   C60   1.389665 A    
C28   C29   1.567630 S    
O19   C68   1.301093 A    
C19   C22   1.429158 A    
C23   C69   1.518624 S    
C56   C57   1.414317 A    
C72   H35   1.085796 S    
C56   N8    1.433235 S    
C6    C22   1.405032 A    
N7    O37   1.301474 A    
O3    C4    1.298304 A    
C23   C28   1.580054 S    
O15   V3    1.987249 S    
C25   C29   1.575374 S    
C35   C39   1.559378 S    
O6    V2    1.962832 S    
C59   H28   1.084437 S    
C38   C44   1.218641 T    
N3    O26   1.302251 A    
C41   C44   1.497141 S    
C10   C12   1.441031 A    
C34   C68   1.449981 S    
C20   H7    1.081080 S    
N2    O23   1.300561 A    
O2    V1    1.963460 S    
C39   C45   1.502911 S    
C48   C64   1.407001 A    
C30   C31   1.555101 S    
C7    C11   1.410770 A    
N1    O22   1.301389 A    
C25   N3    1.475790 S    
O1    C2    1.299380 A    
C47   C51   1.413867 A    
O11   V4    1.963175 S    
C40   C41   1.548949 S    
C49   C72   1.483876 S    
O5    V1    1.957954 S    
N5    O30   1.302662 A    
C61   C64   1.426935 A    
C62   H31   1.084084 S    
C29   C32   1.493228 S    
C20   C21   1.390215 A    
O9    V2    1.990476 S    
C69   H32   1.085463 S    
V3    O20   1.707094 S    
O4    V1    1.991782 S    
O3    V1    1.987130 S    
C30   H16   1.113298 S    
C73   H36   1.084601 S    
C39   C43   1.574275 S    
N5    O31   1.302005 A    
C2    C48   1.474279 S    
C37   H20   1.108245 S    
C36   C37   1.597859 S    
C55   C56   1.430547 A    
C70   O32   1.221158 D    
N6    O36   1.301367 A    
O7    V2    1.703267 S    
C6    C21   1.391489 A    
C5    C67   1.480611 S    
C23   C27   1.572922 S    
C54   C58   1.409404 A    
C35   C40   1.554884 S    
C8    C73   1.489447 S    
N3    O27   1.300964 A    
C28   H15   1.115730 S    
C10   C11   1.421604 A    
N4    O28   1.302081 A    
C65   O16   1.296021 A    
C28   N2    1.473123 S    
V4    O20   2.147885 S    
C52   C53   1.416073 A    
C43   H21   1.112762 S    
C40   H24   1.112893 S    
O8    C3    1.301050 A    
C73   O41   1.221388 D    
N1    O21   1.301404 A    
C36   N5    1.485474 S    
